@<TRIPOS>MOLECULE
3R540
247   249    1
SMALL
USER_CHARGES


@<TRIPOS>ATOM
      1 CA          5.0498  -13.5066  -47.9109 C.3       0 UNK        -0.1800 
      2 C           3.6869  -12.8719  -47.6807 C.2       0 UNK         0.5000 
      3 O           3.3611  -11.8667  -48.3136 O.2       0 UNK        -0.5000 
      4 N           2.8804  -13.4589  -46.7901 N.am      1 UNK        -0.5000 
      5 CA          1.4965  -13.0673  -46.5294 C.3       1 UNK         0.1400 
      6 C6          1.0004  -13.6460  -45.1855 C.3       23 UNK        -0.0398 
      7 S7         -0.6197  -12.9782  -44.6681 S.3       23 UNK        -0.2404 
      8 C8         -1.3757  -14.4329  -43.8767 C.3       23 UNK        -0.0205 
      9 C9         -2.2377  -15.2519  -44.8291 C.ar      23 UNK        -0.0193 
     10 C10        -3.6159  -15.3509  -44.6177 C.ar      23 UNK        -0.1150 
     11 C11        -4.4123  -16.1687  -45.4261 C.ar      23 UNK        -0.0193 
     12 C12        -3.8118  -16.8826  -46.4716 C.ar      23 UNK        -0.1150 
     13 C13        -2.4441  -16.7545  -46.7238 C.ar      23 UNK        -0.0193 
     14 C14        -1.6632  -15.9515  -45.8920 C.ar      23 UNK        -0.1150 
     15 C15        -1.7995  -17.4542  -47.9080 C.3       23 UNK        -0.0205 
     16 S16        -0.5941  -18.7109  -47.3859 S.3       23 UNK        -0.2404 
     17 C17        -1.7103  -20.0708  -46.9361 C.3       23 UNK        -0.0398 
     18 CA         -0.9481  -21.4005  -46.7376 C.3       11 UNK         0.1400 
     19 N          -0.1185  -21.4253  -45.5285 N.am      11 UNK        -0.5000 
     20 C           0.7457  -22.4076  -45.2274 C.2       10 UNK         0.5000 
     21 O           1.0203  -23.3324  -45.9910 O.2       10 UNK        -0.5000 
     22 CA          1.3504  -22.4021  -43.8119 C.3       10 UNK         0.1400 
     23 CB          2.6129  -21.5324  -43.7286 C.3       10 UNK        -0.1800 
     24 N           0.3807  -21.9635  -42.8104 N.am      10 UNK        -0.5000 
     25 C          -0.6714  -22.6933  -42.4142 C.2       9 UNK         0.5000 
     26 O          -0.9065  -23.8311  -42.8212 O.2       9 UNK        -0.5000 
     27 CA         -1.6449  -22.0207  -41.4294 C.3       9 UNK         0.1400 
     28 CB         -1.1633  -22.2054  -39.9829 C.3       9 UNK        -0.1800 
     29 N          -1.8232  -20.5936  -41.7016 N.am      9 UNK        -0.5000 
     30 C          -2.4096  -20.0977  -42.8007 C.2       8 UNK         0.5000 
     31 O          -2.8968  -20.7958  -43.6884 O.2       8 UNK        -0.5000 
     32 CA         -2.4099  -18.5657  -42.9503 C.3       8 UNK         0.1400 
     33 CB         -3.6144  -17.9675  -42.2078 C.3       8 UNK        -0.1800 
     34 N          -1.1797  -17.9391  -42.4576 N.am      8 UNK        -0.5000 
     35 C           0.0489  -18.1752  -42.9371 C.2       7 UNK         0.5000 
     36 O           0.2941  -18.9653  -43.8522 O.2       7 UNK        -0.5000 
     37 CA          1.1967  -17.4561  -42.2197 C.3       7 UNK         0.1400 
     38 CB          1.5155  -18.1529  -40.8834 C.3       7 UNK        -0.1800 
     39 N           2.3868  -17.4538  -43.0638 N.am      7 UNK        -0.5000 
     40 C           3.3887  -16.5711  -42.9722 C.2       6 UNK         0.5000 
     41 O           3.3864  -15.6243  -42.1842 O.2       6 UNK        -0.5000 
     42 CA          4.6153  -16.7752  -43.8858 C.3       6 UNK         0.1400 
     43 CB          5.7860  -17.3594  -43.0795 C.3       6 UNK        -0.1800 
     44 N           4.3762  -17.6346  -45.0478 N.am      6 UNK        -0.5000 
     45 C           3.6412  -17.2858  -46.1097 C.2       5 UNK         0.5000 
     46 O           3.0456  -16.2111  -46.1907 O.2       5 UNK        -0.5000 
     47 CA          3.5746  -18.3193  -47.2510 C.3       5 UNK         0.1400 
     48 CB          2.8929  -19.6163  -46.7864 C.3       5 UNK        -0.1800 
     49 N           2.8705  -17.8134  -48.4286 N.am      5 UNK        -0.5000 
     50 C           3.4018  -16.9925  -49.3439 C.2       4 UNK         0.5000 
     51 O           4.5504  -16.5508  -49.2739 O.2       4 UNK        -0.5000 
     52 CA          2.5430  -16.6399  -50.5723 C.3       4 UNK         0.1400 
     53 CB          1.1559  -17.3076  -50.5922 C.3       4 UNK        -0.1800 
     54 N           2.3710  -15.1936  -50.6466 N.am      4 UNK        -0.5000 
     55 C           2.7832  -14.4123  -51.6545 C.2       3 UNK         0.5000 
     56 O           3.3870  -14.8395  -52.6404 O.2       3 UNK        -0.5000 
     57 CA          2.4835  -12.8985  -51.5473 C.3       3 UNK         0.1400 
     58 CB          2.2993  -12.2229  -52.9226 C.3       3 UNK        -0.1800 
     59 N           1.3680  -12.5809  -50.6492 N.am      3 UNK        -0.5000 
     60 C           0.0772  -12.9333  -50.7798 C.2       2 UNK         0.5000 
     61 O          -0.3832  -13.4881  -51.7782 O.2       2 UNK        -0.5000 
     62 CA         -0.8439  -12.6335  -49.5714 C.3       2 UNK         0.1400 
     63 CB         -2.0062  -13.6409  -49.4536 C.3       2 UNK        -0.1800 
     64 N          -0.1125  -12.5370  -48.2991 N.am      2 UNK        -0.5000 
     65 C           0.6384  -13.4956  -47.7360 C.2       1 UNK         0.5000 
     66 O           0.7445  -14.6392  -48.1842 O.2       1 UNK        -0.5000 
     67 C          -1.9296  -22.5860  -46.7671 C.2       11 UNK         0.5000 
     68 O          -2.0054  -23.2690  -47.7871 O.2       11 UNK        -0.5000 
     69 N          -2.6403  -22.8344  -45.6575 N.am      12 UNK        -0.5000 
     70 CA         -3.5868  -23.9431  -45.5036 C.3       12 UNK         0.1400 
     71 CB         -4.2826  -23.8513  -44.1380 C.3       12 UNK        -0.1800 
     72 C          -2.9325  -25.3233  -45.6983 C.2       12 UNK         0.5000 
     73 O          -3.4837  -26.1576  -46.4174 O.2       12 UNK        -0.5000 
     74 N          -1.7369  -25.5091  -45.1203 N.am      13 UNK        -0.5000 
     75 CA         -0.8938  -26.6958  -45.2962 C.3       13 UNK         0.1400 
     76 CB          0.3036  -26.6086  -44.3384 C.3       13 UNK        -0.1800 
     77 C          -0.4105  -26.9026  -46.7476 C.2       13 UNK         0.5000 
     78 O          -0.1785  -28.0417  -47.1526 O.2       13 UNK        -0.5000 
     79 N          -0.3050  -25.8079  -47.5108 N.am      14 UNK        -0.5000 
     80 CA          0.0357  -25.7762  -48.9325 C.3       14 UNK         0.1400 
     81 CB          0.9181  -24.5427  -49.1972 C.3       14 UNK        -0.1800 
     82 C          -1.2155  -25.7929  -49.8387 C.2       14 UNK         0.5000 
     83 O          -1.1315  -25.3530  -50.9858 O.2       14 UNK        -0.5000 
     84 N          -2.3541  -26.2811  -49.3204 N.am      15 UNK        -0.5000 
     85 CA         -3.6537  -26.4060  -49.9919 C.3       15 UNK         0.1400 
     86 CB         -3.5791  -27.4216  -51.1516 C.3       15 UNK        -0.1800 
     87 C          -4.2188  -25.0382  -50.4220 C.2       15 UNK         0.5000 
     88 O          -4.5474  -24.8345  -51.5923 O.2       15 UNK        -0.5000 
     89 N          -4.2717  -24.1109  -49.4558 N.am      16 UNK        -0.5000 
     90 CA         -4.6515  -22.7010  -49.6020 C.3       16 UNK         0.1400 
     91 CB         -6.1441  -22.5648  -49.9684 C.3       16 UNK        -0.1800 
     92 C          -3.7127  -21.9571  -50.5729 C.2       16 UNK         0.5000 
     93 O          -4.1781  -21.2140  -51.4371 O.2       16 UNK        -0.5000 
     94 N          -2.4046  -22.2137  -50.4231 N.am      17 UNK        -0.5000 
     95 CA         -1.3027  -21.7462  -51.2693 C.3       17 UNK         0.1400 
     96 CB         -1.0746  -20.2353  -51.0651 C.3       17 UNK        -0.1800 
     97 C          -1.5024  -22.1374  -52.7482 C.2       17 UNK         0.5000 
     98 O          -1.4810  -21.2754  -53.6263 O.2       17 UNK        -0.5000 
     99 N          -1.7469  -23.4350  -52.9825 N.am      18 UNK        -0.5000 
    100 CA        -2.1055  -24.0483  -54.2662 C.3       18 UNK         0.1400 
    101 CB        -0.9002  -24.0399  -55.2290 C.3       18 UNK        -0.1800 
    102 C         -3.3802  -23.4257  -54.8779 C.2       18 UNK         0.5000 
    103 O         -3.4094  -23.0983  -56.0658 O.2       18 UNK        -0.5000 
    104 N         -4.4027  -23.2583  -54.0276 N.am      19 UNK        -0.5000 
    105 CA        -5.7139  -22.6623  -54.2988 C.3       19 UNK         0.1400 
    106 CB        -6.5059  -23.5194  -55.3084 C.3       19 UNK        -0.1800 
    107 C         -5.6847  -21.1643  -54.6815 C.2       19 UNK         0.5000 
    108 O         -6.6624  -20.6693  -55.2458 O.2       19 UNK        -0.5000 
    109 N         -4.5984  -20.4505  -54.3502 N.am      20 UNK        -0.5000 
    110 CA        -4.4941  -18.9959  -54.5054 C.3       20 UNK         0.1400 
    111 CB        -3.0190  -18.5736  -54.4548 C.3       20 UNK        -0.1800 
    112 C         -5.3093  -18.2302  -53.4443 C.2       20 UNK         0.5000 
    113 O         -5.7941  -17.1352  -53.7335 O.2       20 UNK        -0.5000 
    114 N         -5.4607  -18.8364  -52.2574 N.am      21 UNK        -0.5000 
    115 CA        -6.1912  -18.3543  -51.0844 C.3       21 UNK         0.1400 
    116 CB        -7.6985  -18.2260  -51.3999 C.3       21 UNK        -0.1800 
    117 C         -5.5834  -17.0815  -50.4530 C.2       21 UNK         0.5000 
    118 O         -4.4309  -16.7342  -50.7216 O.2       21 UNK        -0.5000 
    119 N         -6.3562  -16.4556  -49.5603 N.am      22 UNK        -0.5000 
    120 CA        -5.9848  -15.2616  -48.7877 C.3       22 UNK         0.1400 
    121 C         -6.0134  -13.9532  -49.6284 C.2       22 UNK         0.5000 
    122 N         -5.4022  -12.8835  -49.1371 N.am      22 UNK        -0.7600 
    123 O         -6.6170  -13.8775  -50.6968 O.2       22 UNK        -0.5000 
    124 C124       -6.8637  -15.1179  -47.5145 C.3       23 UNK        -0.0398 
    125 S125       -6.9826  -16.6534  -46.5275 S.3       23 UNK        -0.2404 
    126 C126       -5.9011  -16.2914  -45.1031 C.3       23 UNK        -0.0205 
    127 H127        5.1678  -13.7670  -48.9627 H         1 UNK         0.0600 
    128 H128        5.1758  -14.4155  -47.3216 H         1 UNK         0.0600 
    129 H129        5.8414  -12.8089  -47.6383 H         1 UNK         0.0600 
    130 H130        3.1353  -14.3738  -46.4231 H         1 UNK         0.3000 
    131 H131        1.4730  -11.9782  -46.4487 H         1 UNK         0.0600 
    132 H132        0.9859  -14.7347  -45.2167 H         1 UNK         0.0800 
    133 H133        1.7126  -13.3925  -44.3990 H         1 UNK         0.0800 
    134 H134       -1.9750  -14.0837  -43.0346 H         1 UNK         0.0800 
    135 H135       -0.6022  -15.0686  -43.4466 H         1 UNK         0.0800 
    136 H136       -4.0682  -14.8142  -43.7955 H         1 UNK         0.1150 
    137 H137       -4.4069  -17.5260  -47.1032 H         1 UNK         0.1150 
    138 H138       -0.6037  -15.8881  -46.0831 H         1 UNK         0.1150 
    139 H139       -2.5475  -17.8964  -48.5681 H         1 UNK         0.0800 
    140 H140       -1.2816  -16.7027  -48.5000 H         1 UNK         0.0800 
    141 H141       -2.4449  -20.1669  -47.7383 H         1 UNK         0.0800 
    142 H142       -2.2657  -19.7929  -46.0404 H         1 UNK         0.0800 
    143 H143       -0.2783  -21.5311  -47.5908 H         1 UNK         0.0600 
    144 H144       -0.2341  -20.6566  -44.8766 H         1 UNK         0.3000 
    145 H145        1.6405  -23.4282  -43.5752 H         1 UNK         0.0600 
    146 H146        3.0548  -21.5754  -42.7331 H         1 UNK         0.0600 
    147 H147        2.4051  -20.4879  -43.9549 H         1 UNK         0.0600 
    148 H148        3.3688  -21.8818  -44.4325 H         1 UNK         0.0600 
    149 H149        0.4685  -21.0151  -42.4781 H         1 UNK         0.3000 
    150 H150       -2.6155  -22.5100  -41.5318 H         1 UNK         0.0600 
    151 H151       -1.0376  -23.2628  -39.7461 H         1 UNK         0.0600 
    152 H152       -1.8831  -21.7981  -39.2727 H         1 UNK         0.0600 
    153 H153       -0.2050  -21.7138  -39.8099 H         1 UNK         0.0600 
    154 H154       -1.4551  -19.9481  -41.0191 H         1 UNK         0.3000 
    155 H155       -2.5022  -18.3301  -44.0123 H         1 UNK         0.0600 
    156 H156       -4.5507  -18.3490  -42.6171 H         1 UNK         0.0600 
    157 H157       -3.6398  -16.8823  -42.2954 H         1 UNK         0.0600 
    158 H158       -3.5964  -18.2124  -41.1452 H         1 UNK         0.0600 
    159 H159       -1.2889  -17.2925  -41.6901 H         1 UNK         0.3000 
    160 H160        0.8852  -16.4269  -42.0303 H         1 UNK         0.0600 
    161 H161        1.8412  -19.1827  -41.0363 H         1 UNK         0.0600 
    162 H162        0.6435  -18.1763  -40.2289 H         1 UNK         0.0600 
    163 H163        2.3060  -17.6313  -40.3436 H         1 UNK         0.0600 
    164 H164        2.4045  -18.1678  -43.7794 H         1 UNK         0.3000 
    165 H165        4.9132  -15.7893  -44.2494 H         1 UNK         0.0600 
    166 H166        6.6884  -17.4303  -43.6871 H         1 UNK         0.0600 
    167 H167        6.0242  -16.7295  -42.2212 H         1 UNK         0.0600 
    168 H168        5.5552  -18.3559  -42.7006 H         1 UNK         0.0600 
    169 H169        4.8379  -18.5324  -45.0421 H         1 UNK         0.3000 
    170 H170        4.5981  -18.5607  -47.5454 H         1 UNK         0.0600 
    171 H171        1.9652  -19.4172  -46.2499 H         1 UNK         0.0600 
    172 H172        2.6621  -20.2755  -47.6236 H         1 UNK         0.0600 
    173 H173        3.5467  -20.1727  -46.1165 H         1 UNK         0.0600 
    174 H174        1.8974  -18.0703  -48.5113 H         1 UNK         0.3000 
    175 H175        3.0952  -17.0078  -51.4391 H         1 UNK         0.0600 
    176 H176        0.5408  -16.9694  -49.7610 H         1 UNK         0.0600 
    177 H177        0.6216  -17.0721  -51.5129 H         1 UNK         0.0600 
    178 H178        1.2378  -18.3930  -50.5356 H         1 UNK         0.0600 
    179 H179        1.8876  -14.7782  -49.8564 H         1 UNK         0.3000 
    180 H180        3.3683  -12.4568  -51.0870 H         1 UNK         0.0600 
    181 H181        1.4849  -12.6727  -53.4909 H         1 UNK         0.0600 
    182 H182        3.2035  -12.3112  -53.5259 H         1 UNK         0.0600 
    183 H183        2.0870  -11.1592  -52.8147 H         1 UNK         0.0600 
    184 H184        1.6453  -12.1364  -49.7825 H         1 UNK         0.3000 
    185 H185       -1.2756  -11.6481  -49.7511 H         1 UNK         0.0600 
    186 H186       -1.6473  -14.6688  -49.4482 H         1 UNK         0.0600 
    187 H187       -2.5800  -13.4833  -48.5408 H         1 UNK         0.0600 
    188 H188       -2.6932  -13.5455  -50.2950 H         1 UNK         0.0600 
    189 H189       -0.1247  -11.6238  -47.8658 H         1 UNK         0.3000 
    190 H190       -2.5669  -22.1907  -44.8728 H         1 UNK         0.3000 
    191 H191       -4.3502  -23.8286  -46.2755 H         1 UNK         0.0600 
    192 H192       -4.8009  -22.8992  -44.0226 H         1 UNK         0.0600 
    193 H193       -3.5741  -23.9482  -43.3160 H         1 UNK         0.0600 
    194 H194       -5.0255  -24.6418  -44.0251 H         1 UNK         0.0600 
    195 H195       -1.3762  -24.7857  -44.5050 H         1 UNK         0.3000 
    196 H196       -1.4885  -27.5693  -45.0214 H         1 UNK         0.0600 
    197 H197       -0.0249  -26.5386  -43.3012 H         1 UNK         0.0600 
    198 H198        0.9249  -25.7383  -44.5520 H         1 UNK         0.0600 
    199 H199        0.9365  -27.4931  -44.4203 H         1 UNK         0.0600 
    200 H200       -0.5237  -24.9110  -47.0954 H         1 UNK         0.3000 
    201 H201        0.6200  -26.6624  -49.1868 H         1 UNK         0.0600 
    202 H202        1.8092  -24.5569  -48.5695 H         1 UNK         0.0600 
    203 H203        0.3852  -23.6145  -48.9923 H         1 UNK         0.0600 
    204 H204        1.2550  -24.5092  -50.2339 H         1 UNK         0.0600 
    205 H205       -2.3446  -26.5582  -48.3471 H         1 UNK         0.3000 
    206 H206       -4.3466  -26.8054  -49.2500 H         1 UNK         0.0600 
    207 H207       -3.1993  -28.3838  -50.8085 H         1 UNK         0.0600 
    208 H208       -2.9335  -27.0748  -51.9590 H         1 UNK         0.0600 
    209 H209       -4.5672  -27.5962  -51.5787 H         1 UNK         0.0600 
    210 H210       -3.8768  -24.3590  -48.5584 H         1 UNK         0.3000 
    211 H211       -4.5110  -22.2364  -48.6253 H         1 UNK         0.0600 
    212 H212       -6.3620  -22.9741  -50.9543 H         1 UNK         0.0600 
    213 H213       -6.4527  -21.5194  -49.9744 H         1 UNK         0.0600 
    214 H214       -6.7739  -23.0832  -49.2457 H         1 UNK         0.0600 
    215 H215       -2.1452  -22.8340  -49.6617 H         1 UNK         0.3000 
    216 H216       -0.4037  -22.2651  -50.9348 H         1 UNK         0.0600 
    217 H217       -0.2578  -19.8761  -51.6912 H         1 UNK         0.0600 
    218 H218       -0.8112  -20.0181  -50.0315 H         1 UNK         0.0600 
    219 H219       -1.9594  -19.6492  -51.3136 H         1 UNK         0.0600 
    220 H220       -1.7062  -24.0790  -52.1943 H         1 UNK         0.3000 
    221 H221       -2.3478  -25.0896  -54.0483 H         1 UNK         0.0600 
    222 H222       -0.6225  -23.0274  -55.5233 H         1 UNK         0.0600 
    223 H223       -0.0284  -24.5074  -54.7713 H         1 UNK         0.0600 
    224 H224       -1.1251  -24.5954  -56.1401 H         1 UNK         0.0600 
    225 H225       -4.2839  -23.6051  -53.0789 H         1 UNK         0.3000 
    226 H226       -6.2502  -22.7056  -53.3506 H         1 UNK         0.0600 
    227 H227       -6.5307  -24.5654  -55.0026 H         1 UNK         0.0600 
    228 H228       -7.5402  -23.1822  -55.3840 H         1 UNK         0.0600 
    229 H229       -6.0736  -23.4710  -56.3081 H         1 UNK         0.0600 
    230 H230       -3.8373  -20.9150  -53.8701 H         1 UNK         0.3000 
    231 H231       -4.8862  -18.7248  -55.4879 H         1 UNK         0.0600 
    232 H232       -2.9138  -17.5034  -54.6365 H         1 UNK         0.0600 
    233 H233       -2.4319  -19.0932  -55.2122 H         1 UNK         0.0600 
    234 H234       -2.5752  -18.7839  -53.4816 H         1 UNK         0.0600 
    235 H235       -4.9736  -19.7199  -52.1162 H         1 UNK         0.3000 
    236 H236       -6.0783  -19.1376  -50.3344 H         1 UNK         0.0600 
    237 H237       -7.9066  -17.3643  -52.0351 H         1 UNK         0.0600 
    238 H238       -8.0688  -19.1143  -51.9120 H         1 UNK         0.0600 
    239 H239       -8.2904  -18.1165  -50.4909 H         1 UNK         0.0600 
    240 H240       -7.2890  -16.8034  -49.3977 H         1 UNK         0.3000 
    241 H241       -4.9497  -15.3942  -48.4702 H         1 UNK         0.0600 
    242 H242       -5.4311  -12.0242  -49.6633 H         1 UNK         0.3800 
    243 H243       -4.9160  -12.9055  -48.2550 H         1 UNK         0.3800 
    244 H244       -7.8797  -14.8300  -47.7905 H         1 UNK         0.0800 
    245 H245       -6.4873  -14.3144  -46.8795 H         1 UNK         0.0800 
    246 H246       -6.0220  -17.0916  -44.3722 H         1 UNK         0.0800 
    247 H247       -6.2596  -15.3804  -44.6212 H         1 UNK         0.0800 
@<TRIPOS>BOND
     1    1    2 1    
     2    1  127 1    
     3    1  128 1    
     4    1  129 1    
     5    2    3 2    
     6    2    4 am   BACKBONE|DICT|INTERRES
     7    4    5 1    
     8    4  130 1    
     9    5    6 1    
    10    5   65 1    
    11    5  131 1    
    12    6    7 1    
    13    6  132 1    
    14    6  133 1    
    15    7    8 1    
    16    8    9 1    
    17    8  134 1    
    18    8  135 1    
    19    9   10 ar   
    20    9   14 ar   
    21   10   11 ar   
    22   10  136 1    
    23   11   12 ar   
    24   11  126 1    
    25   12   13 ar   
    26   12  137 1    
    27   13   14 ar   
    28   13   15 1    
    29   14  138 1    
    30   15   16 1    
    31   15  139 1    
    32   15  140 1    
    33   16   17 1    
    34   17   18 1    
    35   17  141 1    
    36   17  142 1    
    37   18   19 1    
    38   18   67 1    
    39   18  143 1    
    40   19   20 am   BACKBONE|DICT|INTERRES
    41   19  144 1    
    42   20   21 2    
    43   20   22 1    
    44   22   23 1    
    45   22   24 1    
    46   22  145 1    
    47   23  146 1    
    48   23  147 1    
    49   23  148 1    
    50   24   25 am   BACKBONE|DICT|INTERRES
    51   24  149 1    
    52   25   26 2    
    53   25   27 1    
    54   27   28 1    
    55   27   29 1    
    56   27  150 1    
    57   28  151 1    
    58   28  152 1    
    59   28  153 1    
    60   29   30 am   BACKBONE|DICT|INTERRES
    61   29  154 1    
    62   30   31 2    
    63   30   32 1    
    64   32   33 1    
    65   32   34 1    
    66   32  155 1    
    67   33  156 1    
    68   33  157 1    
    69   33  158 1    
    70   34   35 am   BACKBONE|DICT|INTERRES
    71   34  159 1    
    72   35   36 2    
    73   35   37 1    
    74   37   38 1    
    75   37   39 1    
    76   37  160 1    
    77   38  161 1    
    78   38  162 1    
    79   38  163 1    
    80   39   40 am   BACKBONE|DICT|INTERRES
    81   39  164 1    
    82   40   41 2    
    83   40   42 1    
    84   42   43 1    
    85   42   44 1    
    86   42  165 1    
    87   43  166 1    
    88   43  167 1    
    89   43  168 1    
    90   44   45 am   BACKBONE|DICT|INTERRES
    91   44  169 1    
    92   45   46 2    
    93   45   47 1    
    94   47   48 1    
    95   47   49 1    
    96   47  170 1    
    97   48  171 1    
    98   48  172 1    
    99   48  173 1    
   100   49   50 am   BACKBONE|DICT|INTERRES
   101   49  174 1    
   102   50   51 2    
   103   50   52 1    
   104   52   53 1    
   105   52   54 1    
   106   52  175 1    
   107   53  176 1    
   108   53  177 1    
   109   53  178 1    
   110   54   55 am   BACKBONE|DICT|INTERRES
   111   54  179 1    
   112   55   56 2    
   113   55   57 1    
   114   57   58 1    
   115   57   59 1    
   116   57  180 1    
   117   58  181 1    
   118   58  182 1    
   119   58  183 1    
   120   59   60 am   BACKBONE|DICT|INTERRES
   121   59  184 1    
   122   60   61 2    
   123   60   62 1    
   124   62   63 1    
   125   62   64 1    
   126   62  185 1    
   127   63  186 1    
   128   63  187 1    
   129   63  188 1    
   130   64   65 am   BACKBONE|DICT|INTERRES
   131   64  189 1    
   132   65   66 2    
   133   67   68 2    
   134   67   69 am   BACKBONE|DICT|INTERRES
   135   69   70 1    
   136   69  190 1    
   137   70   71 1    
   138   70   72 1    
   139   70  191 1    
   140   71  192 1    
   141   71  193 1    
   142   71  194 1    
   143   72   73 2    
   144   72   74 am   BACKBONE|DICT|INTERRES
   145   74   75 1    
   146   74  195 1    
   147   75   76 1    
   148   75   77 1    
   149   75  196 1    
   150   76  197 1    
   151   76  198 1    
   152   76  199 1    
   153   77   78 2    
   154   77   79 am   BACKBONE|DICT|INTERRES
   155   79   80 1    
   156   79  200 1    
   157   80   81 1    
   158   80   82 1    
   159   80  201 1    
   160   81  202 1    
   161   81  203 1    
   162   81  204 1    
   163   82   83 2    
   164   82   84 am   BACKBONE|DICT|INTERRES
   165   84   85 1    
   166   84  205 1    
   167   85   86 1    
   168   85   87 1    
   169   85  206 1    
   170   86  207 1    
   171   86  208 1    
   172   86  209 1    
   173   87   88 2    
   174   87   89 am   BACKBONE|DICT|INTERRES
   175   89   90 1    
   176   89  210 1    
   177   90   91 1    
   178   90   92 1    
   179   90  211 1    
   180   91  212 1    
   181   91  213 1    
   182   91  214 1    
   183   92   93 2    
   184   92   94 am   BACKBONE|DICT|INTERRES
   185   94   95 1    
   186   94  215 1    
   187   95   96 1    
   188   95   97 1    
   189   95  216 1    
   190   96  217 1    
   191   96  218 1    
   192   96  219 1    
   193   97   98 2    
   194   97   99 am   BACKBONE|DICT|INTERRES
   195   99  100 1    
   196   99  220 1    
   197  100  101 1    
   198  100  102 1    
   199  100  221 1    
   200  101  222 1    
   201  101  223 1    
   202  101  224 1    
   203  102  103 2    
   204  102  104 am   BACKBONE|DICT|INTERRES
   205  104  105 1    
   206  104  225 1    
   207  105  106 1    
   208  105  107 1    
   209  105  226 1    
   210  106  227 1    
   211  106  228 1    
   212  106  229 1    
   213  107  108 2    
   214  107  109 am   BACKBONE|DICT|INTERRES
   215  109  110 1    
   216  109  230 1    
   217  110  111 1    
   218  110  112 1    
   219  110  231 1    
   220  111  232 1    
   221  111  233 1    
   222  111  234 1    
   223  112  113 2    
   224  112  114 am   BACKBONE|DICT|INTERRES
   225  114  115 1    
   226  114  235 1    
   227  115  116 1    
   228  115  117 1    
   229  115  236 1    
   230  116  237 1    
   231  116  238 1    
   232  116  239 1    
   233  117  118 2    
   234  117  119 am   BACKBONE|DICT|INTERRES
   235  119  120 1    
   236  119  240 1    
   237  120  121 1    
   238  120  124 1    
   239  120  241 1    
   240  121  122 am   BACKBONE|DICT|INTERRES
   241  121  123 2    
   242  122  242 1    
   243  122  243 1    
   244  124  125 1    
   245  124  244 1    
   246  124  245 1    
   247  125  126 1    
   248  126  246 1    
   249  126  247 1    
@<TRIPOS>SUBSTRUCTURE
     1 UNK         1 GROUP             0       ****    0 ROOT    
