@<TRIPOS>MOLECULE
3R540
247   249    1
SMALL
USER_CHARGES


@<TRIPOS>ATOM
      1 CA         -1.2904  -11.1553  -52.0563 C.3       0 UNK        -0.1800 
      2 C           0.0281  -11.5932  -51.4338 C.2       0 UNK         0.5000 
      3 O           0.8633  -10.7474  -51.1109 O.2       0 UNK        -0.5000 
      4 N           0.2218  -12.9062  -51.2730 N.am      1 UNK        -0.5000 
      5 CA          1.3964  -13.5089  -50.6366 C.3       1 UNK         0.1400 
      6 C6          1.4942  -15.0248  -50.9325 C.3       23 UNK        -0.0398 
      7 S7          1.6868  -15.3997  -52.7054 S.3       23 UNK        -0.2404 
      8 C8          2.7458  -16.8864  -52.6371 C.3       23 UNK        -0.0205 
      9 C9          2.1474  -18.0357  -51.8281 C.ar      23 UNK        -0.0193 
     10 C10         0.8011  -18.3907  -51.9704 C.ar      23 UNK        -0.1150 
     11 C11         0.2605  -19.4453  -51.2315 C.ar      23 UNK        -0.0193 
     12 C12         1.0866  -20.1799  -50.3813 C.ar      23 UNK        -0.1150 
     13 C13         2.4343  -19.8455  -50.2298 C.ar      23 UNK        -0.0193 
     14 C14         2.9570  -18.7668  -50.9504 C.ar      23 UNK        -0.1150 
     15 C15         3.3255  -20.6765  -49.3154 C.3       23 UNK        -0.0205 
     16 S16         3.3805  -20.0593  -47.5985 S.3       23 UNK        -0.2404 
     17 C17         1.6336  -20.1372  -47.0818 C.3       23 UNK        -0.0398 
     18 CA          1.0974  -21.5729  -46.8768 C.3       11 UNK         0.1400 
     19 N           1.7365  -22.2428  -45.7451 N.am      11 UNK        -0.5000 
     20 C           1.8801  -23.5687  -45.6300 C.2       10 UNK         0.5000 
     21 O           1.5634  -24.3719  -46.5075 O.2       10 UNK        -0.5000 
     22 CA          2.4651  -24.0895  -44.3025 C.3       10 UNK         0.1400 
     23 CB          3.9925  -24.2183  -44.4034 C.3       10 UNK        -0.1800 
     24 N           2.1315  -23.2501  -43.1489 N.am      10 UNK        -0.5000 
     25 C           0.8929  -23.0719  -42.6688 C.2       9 UNK         0.5000 
     26 O          -0.1096  -23.6015  -43.1461 O.2       9 UNK        -0.5000 
     27 CA          0.7425  -22.0989  -41.4852 C.3       9 UNK         0.1400 
     28 CB          0.9829  -22.8297  -40.1561 C.3       9 UNK        -0.1800 
     29 N           1.6096  -20.9183  -41.5502 N.am      9 UNK        -0.5000 
     30 C           1.6801  -20.0469  -42.5651 C.2       8 UNK         0.5000 
     31 O           1.0710  -20.1787  -43.6290 O.2       8 UNK        -0.5000 
     32 CA          2.5453  -18.7989  -42.3252 C.3       8 UNK         0.1400 
     33 CB          3.2353  -18.3172  -43.6115 C.3       8 UNK        -0.1800 
     34 N           1.7115  -17.7261  -41.7879 N.am      8 UNK        -0.5000 
     35 C           1.3167  -17.6404  -40.5089 C.2       7 UNK         0.5000 
     36 O           1.6791  -18.4351  -39.6387 O.2       7 UNK        -0.5000 
     37 CA          0.3488  -16.4922  -40.1456 C.3       7 UNK         0.1400 
     38 CB          0.3620  -16.1431  -38.6427 C.3       7 UNK        -0.1800 
     39 N           0.5328  -15.2893  -40.9625 N.am      7 UNK        -0.5000 
     40 C           1.6271  -14.5167  -41.0540 C.2       6 UNK         0.5000 
     41 O           2.6456  -14.6916  -40.3839 O.2       6 UNK        -0.5000 
     42 CA          1.5907  -13.3634  -42.0780 C.3       6 UNK         0.1400 
     43 CB          2.7912  -13.4461  -43.0337 C.3       6 UNK        -0.1800 
     44 N           0.3635  -13.3836  -42.8770 N.am      6 UNK        -0.5000 
     45 C          -0.6669  -12.5386  -42.7345 C.2       5 UNK         0.5000 
     46 O          -0.6728  -11.5931  -41.9459 O.2       5 UNK        -0.5000 
     47 CA         -1.9131  -12.7983  -43.6076 C.3       5 UNK         0.1400 
     48 CB         -1.8695  -11.9227  -44.8695 C.3       5 UNK        -0.1800 
     49 N          -2.0730  -14.1973  -44.0124 N.am      5 UNK        -0.5000 
     50 C          -2.2769  -15.2315  -43.1836 C.2       4 UNK         0.5000 
     51 O          -2.3976  -15.1176  -41.9646 O.2       4 UNK        -0.5000 
     52 CA         -2.2653  -16.6378  -43.8153 C.3       4 UNK         0.1400 
     53 CB         -3.6901  -17.0732  -44.1877 C.3       4 UNK        -0.1800 
     54 N          -1.4071  -16.7413  -45.0005 N.am      4 UNK        -0.5000 
     55 C          -0.0882  -16.5012  -45.0249 C.2       3 UNK         0.5000 
     56 O           0.5533  -16.1703  -44.0254 O.2       3 UNK        -0.5000 
     57 CA          0.6247  -16.5950  -46.3863 C.3       3 UNK         0.1400 
     58 CB         -0.2791  -17.0723  -47.5412 C.3       3 UNK        -0.1800 
     59 N           1.1652  -15.2878  -46.7351 N.am      3 UNK        -0.5000 
     60 C           2.4163  -14.8675  -46.5187 C.2       2 UNK         0.5000 
     61 O           3.2921  -15.5567  -45.9949 O.2       2 UNK        -0.5000 
     62 CA          2.7411  -13.4470  -47.0346 C.3       2 UNK         0.1400 
     63 CB          4.1767  -13.0039  -46.6987 C.3       2 UNK        -0.1800 
     64 N           2.5523  -13.3648  -48.4854 N.am      2 UNK        -0.5000 
     65 C           1.3693  -13.2977  -49.1097 C.2       1 UNK         0.5000 
     66 O           0.2950  -13.1767  -48.5125 O.2       1 UNK        -0.5000 
     67 C          -0.4301  -21.5406  -46.6899 C.2       11 UNK         0.5000 
     68 O          -1.1639  -21.7644  -47.6514 O.2       11 UNK        -0.5000 
     69 N          -0.8769  -21.2526  -45.4588 N.am      12 UNK        -0.5000 
     70 CA         -2.2848  -21.1184  -45.0879 C.3       12 UNK         0.1400 
     71 CB         -2.3768  -20.5856  -43.6513 C.3       12 UNK        -0.1800 
     72 C          -3.0923  -22.4215  -45.2286 C.2       12 UNK         0.5000 
     73 O          -4.2730  -22.3510  -45.5712 O.2       12 UNK        -0.5000 
     74 N          -2.4469  -23.5707  -44.9720 N.am      13 UNK        -0.5000 
     75 CA         -2.9893  -24.9304  -45.0591 C.3       13 UNK         0.1400 
     76 CB         -1.8580  -25.9371  -44.7916 C.3       13 UNK        -0.1800 
     77 C          -3.6764  -25.2165  -46.4086 C.2       13 UNK         0.5000 
     78 O          -2.9949  -25.4489  -47.4097 O.2       13 UNK        -0.5000 
     79 N          -5.0152  -25.1210  -46.4118 N.am      14 UNK        -0.5000 
     80 CA         -5.9194  -25.2253  -47.5652 C.3       14 UNK         0.1400 
     81 CB         -5.9541  -26.6782  -48.0850 C.3       14 UNK        -0.1800 
     82 C          -5.6148  -24.2113  -48.6917 C.2       14 UNK         0.5000 
     83 O          -5.9370  -24.4798  -49.8498 O.2       14 UNK        -0.5000 
     84 N          -4.9533  -23.0937  -48.3485 N.am      15 UNK        -0.5000 
     85 CA         -4.3555  -22.1077  -49.2571 C.3       15 UNK         0.1400 
     86 CB         -5.4495  -21.2332  -49.9025 C.3       15 UNK        -0.1800 
     87 C          -3.4124  -22.7580  -50.2950 C.2       15 UNK         0.5000 
     88 O          -3.4932  -22.4414  -51.4826 O.2       15 UNK        -0.5000 
     89 N          -2.5865  -23.7084  -49.8282 N.am      16 UNK        -0.5000 
     90 CA         -1.6774  -24.5607  -50.6020 C.3       16 UNK         0.1400 
     91 CB         -0.4913  -23.7441  -51.1508 C.3       16 UNK        -0.1800 
     92 C          -2.4130  -25.3741  -51.6884 C.2       16 UNK         0.5000 
     93 O          -1.9571  -25.4428  -52.8308 O.2       16 UNK        -0.5000 
     94 N          -3.5542  -25.9586  -51.2941 N.am      17 UNK        -0.5000 
     95 CA         -4.5229  -26.6765  -52.1279 C.3       17 UNK         0.1400 
     96 CB         -3.9050  -27.9517  -52.7398 C.3       17 UNK        -0.1800 
     97 C          -5.1841  -25.7473  -53.1674 C.2       17 UNK         0.5000 
     98 O          -5.1918  -26.0497  -54.3623 O.2       17 UNK        -0.5000 
     99 N          -5.7358  -24.6330  -52.6658 N.am      18 UNK        -0.5000 
    100 CA        -6.4737  -23.5919  -53.3853 C.3       18 UNK         0.1400 
    101 CB        -7.8266  -24.1395  -53.8852 C.3       18 UNK        -0.1800 
    102 C         -5.6501  -22.9088  -54.4966 C.2       18 UNK         0.5000 
    103 O         -6.1386  -22.7336  -55.6157 O.2       18 UNK        -0.5000 
    104 N         -4.4158  -22.5078  -54.1679 N.am      19 UNK        -0.5000 
    105 CA        -3.4996  -21.7922  -55.0557 C.3       19 UNK         0.1400 
    106 CB        -2.0580  -22.0095  -54.5661 C.3       19 UNK        -0.1800 
    107 C         -3.8793  -20.3004  -55.1476 C.2       19 UNK         0.5000 
    108 O         -3.1966  -19.4461  -54.5788 O.2       19 UNK        -0.5000 
    109 N         -5.0053  -20.0249  -55.8241 N.am      20 UNK        -0.5000 
    110 CA        -5.6004  -18.7037  -56.0782 C.3       20 UNK         0.1400 
    111 CB        -4.7202  -17.9035  -57.0604 C.3       20 UNK        -0.1800 
    112 C         -5.9171  -17.9133  -54.7887 C.2       20 UNK         0.5000 
    113 O         -5.7993  -16.6858  -54.7667 O.2       20 UNK        -0.5000 
    114 N         -6.2557  -18.6482  -53.7165 N.am      21 UNK        -0.5000 
    115 CA        -6.4722  -18.1761  -52.3412 C.3       21 UNK         0.1400 
    116 CB        -7.7611  -17.3327  -52.2601 C.3       21 UNK        -0.1800 
    117 C         -5.2511  -17.4471  -51.7297 C.2       21 UNK         0.5000 
    118 O         -5.4122  -16.6793  -50.7799 O.2       21 UNK        -0.5000 
    119 N         -4.0603  -17.6876  -52.2968 N.am      22 UNK        -0.5000 
    120 CA        -2.7935  -17.0021  -52.0028 C.3       22 UNK         0.1400 
    121 C         -2.7709  -15.4911  -52.3879 C.2       22 UNK         0.5000 
    122 N         -3.6527  -15.0199  -53.2636 N.am      22 UNK        -0.7600 
    123 O         -1.9256  -14.7372  -51.9131 O.2       22 UNK        -0.5000 
    124 C124       -2.2569  -17.2710  -50.5675 C.3       23 UNK        -0.0398 
    125 S125       -2.2292  -19.0290  -50.0660 S.3       23 UNK        -0.2404 
    126 C126       -1.2082  -19.8119  -51.3556 C.3       23 UNK        -0.0205 
    127 H127       -1.9218  -12.0073  -52.3087 H         1 UNK         0.0600 
    128 H128       -1.1055  -10.5880  -52.9684 H         1 UNK         0.0600 
    129 H129       -1.8399  -10.5194  -51.3623 H         1 UNK         0.0600 
    130 H130       -0.5179  -13.5561  -51.5333 H         1 UNK         0.3000 
    131 H131        2.2888  -13.0188  -51.0323 H         1 UNK         0.0600 
    132 H132        2.3401  -15.4630  -50.3991 H         1 UNK         0.0800 
    133 H133        0.6074  -15.5439  -50.5685 H         1 UNK         0.0800 
    134 H134        3.7189  -16.6002  -52.2350 H         1 UNK         0.0800 
    135 H135        2.9241  -17.2353  -53.6549 H         1 UNK         0.0800 
    136 H136        0.1732  -17.8383  -52.6533 H         1 UNK         0.1150 
    137 H137        0.6705  -21.0076  -49.8264 H         1 UNK         0.1150 
    138 H138        4.0008  -18.5086  -50.8388 H         1 UNK         0.1150 
    139 H139        3.0009  -21.7177  -49.3199 H         1 UNK         0.0800 
    140 H140        4.3427  -20.6853  -49.7097 H         1 UNK         0.0800 
    141 H141        1.0354  -19.5896  -47.8080 H         1 UNK         0.0800 
    142 H142        1.5449  -19.5780  -46.1512 H         1 UNK         0.0800 
    143 H143        1.2922  -22.1468  -47.7842 H         1 UNK         0.0600 
    144 H144        1.9806  -21.6560  -44.9584 H         1 UNK         0.3000 
    145 H145        2.0476  -25.0832  -44.1267 H         1 UNK         0.0600 
    146 H146        4.4689  -23.2492  -44.5578 H         1 UNK         0.0600 
    147 H147        4.4124  -24.6601  -43.4996 H         1 UNK         0.0600 
    148 H148        4.2757  -24.8598  -45.2390 H         1 UNK         0.0600 
    149 H149        2.8951  -22.7676  -42.6982 H         1 UNK         0.3000 
    150 H150       -0.2870  -21.7394  -41.4858 H         1 UNK         0.0600 
    151 H151        0.3343  -23.7023  -40.0664 H         1 UNK         0.0600 
    152 H152        0.7717  -22.1813  -39.3055 H         1 UNK         0.0600 
    153 H153        2.0135  -23.1756  -40.0672 H         1 UNK         0.0600 
    154 H154        2.1056  -20.6883  -40.6998 H         1 UNK         0.3000 
    155 H155        3.3280  -19.0454  -41.6046 H         1 UNK         0.0600 
    156 H156        3.8735  -19.0967  -44.0291 H         1 UNK         0.0600 
    157 H157        3.8631  -17.4468  -43.4203 H         1 UNK         0.0600 
    158 H158        2.5159  -18.0403  -44.3792 H         1 UNK         0.0600 
    159 H159        1.3449  -17.0620  -42.4638 H         1 UNK         0.3000 
    160 H160       -0.6492  -16.8626  -40.3835 H         1 UNK         0.0600 
    161 H161       -0.3397  -15.3395  -38.4190 H         1 UNK         0.0600 
    162 H162        1.3508  -15.8290  -38.3074 H         1 UNK         0.0600 
    163 H163        0.0707  -17.0028  -38.0383 H         1 UNK         0.0600 
    164 H164       -0.2629  -15.0406  -41.5361 H         1 UNK         0.3000 
    165 H165        1.6675  -12.4305  -41.5165 H         1 UNK         0.0600 
    166 H166        2.8208  -14.4045  -43.5526 H         1 UNK         0.0600 
    167 H167        2.7538  -12.6545  -43.7818 H         1 UNK         0.0600 
    168 H168        3.7325  -13.3379  -42.4938 H         1 UNK         0.0600 
    169 H169        0.2774  -14.1625  -43.5200 H         1 UNK         0.3000 
    170 H170       -2.7900  -12.5165  -43.0211 H         1 UNK         0.0600 
    171 H171       -1.0248  -12.1806  -45.5103 H         1 UNK         0.0600 
    172 H172       -2.7816  -12.0302  -45.4568 H         1 UNK         0.0600 
    173 H173       -1.7746  -10.8672  -44.6106 H         1 UNK         0.0600 
    174 H174       -1.9855  -14.3912  -44.9988 H         1 UNK         0.3000 
    175 H175       -1.8768  -17.3276  -43.0637 H         1 UNK         0.0600 
    176 H176       -4.1310  -16.4110  -44.9339 H         1 UNK         0.0600 
    177 H177       -3.7045  -18.0857  -44.5905 H         1 UNK         0.0600 
    178 H178       -4.3421  -17.0630  -43.3132 H         1 UNK         0.0600 
    179 H179       -1.8653  -16.9955  -45.8633 H         1 UNK         0.3000 
    180 H180        1.4400  -17.3092  -46.2798 H         1 UNK         0.0600 
    181 H181       -1.0760  -16.3604  -47.7605 H         1 UNK         0.0600 
    182 H182       -0.7402  -18.0362  -47.3210 H         1 UNK         0.0600 
    183 H183        0.3019  -17.2026  -48.4549 H         1 UNK         0.0600 
    184 H184        0.5343  -14.6409  -47.1978 H         1 UNK         0.3000 
    185 H185        2.0542  -12.7547  -46.5429 H         1 UNK         0.0600 
    186 H186        4.3571  -11.9779  -47.0197 H         1 UNK         0.0600 
    187 H187        4.3602  -13.0434  -45.6246 H         1 UNK         0.0600 
    188 H188        4.9190  -13.6415  -47.1805 H         1 UNK         0.0600 
    189 H189        3.3872  -13.4895  -49.0400 H         1 UNK         0.3000 
    190 H190       -0.1981  -21.0373  -44.7337 H         1 UNK         0.3000 
    191 H191       -2.7294  -20.3779  -45.7562 H         1 UNK         0.0600 
    192 H192       -2.0244  -21.3224  -42.9305 H         1 UNK         0.0600 
    193 H193       -1.7827  -19.6813  -43.5238 H         1 UNK         0.0600 
    194 H194       -3.4076  -20.3426  -43.3908 H         1 UNK         0.0600 
    195 H195       -1.4904  -23.5049  -44.6400 H         1 UNK         0.3000 
    196 H196       -3.7290  -25.0413  -44.2642 H         1 UNK         0.0600 
    197 H197       -1.4759  -25.8403  -43.7756 H         1 UNK         0.0600 
    198 H198       -1.0222  -25.7948  -45.4785 H         1 UNK         0.0600 
    199 H199       -2.2092  -26.9632  -44.9074 H         1 UNK         0.0600 
    200 H200       -5.4649  -24.8623  -45.5441 H         1 UNK         0.3000 
    201 H201       -6.9167  -24.9781  -47.1994 H         1 UNK         0.0600 
    202 H202       -6.7179  -26.8042  -48.8533 H         1 UNK         0.0600 
    203 H203       -6.1881  -27.3774  -47.2823 H         1 UNK         0.0600 
    204 H204       -4.9998  -26.9762  -48.5201 H         1 UNK         0.0600 
    205 H205       -4.7471  -22.9536  -47.3629 H         1 UNK         0.3000 
    206 H206       -3.7310  -21.4575  -48.6431 H         1 UNK         0.0600 
    207 H207       -6.1179  -21.8186  -50.5330 H         1 UNK         0.0600 
    208 H208       -5.0052  -20.4556  -50.5243 H         1 UNK         0.0600 
    209 H209       -6.0531  -20.7357  -49.1438 H         1 UNK         0.0600 
    210 H210       -2.6357  -23.9323  -48.8402 H         1 UNK         0.3000 
    211 H211       -1.2741  -25.2884  -49.8964 H         1 UNK         0.0600 
    212 H212       -0.0033  -23.1807  -50.3564 H         1 UNK         0.0600 
    213 H213        0.2601  -24.3988  -51.5929 H         1 UNK         0.0600 
    214 H214       -0.8053  -23.0440  -51.9237 H         1 UNK         0.0600 
    215 H215       -3.8479  -25.7929  -50.3416 H         1 UNK         0.3000 
    216 H216       -5.3211  -26.9957  -51.4560 H         1 UNK         0.0600 
    217 H217       -4.6656  -28.5433  -53.2503 H         1 UNK         0.0600 
    218 H218       -3.1291  -27.7224  -53.4704 H         1 UNK         0.0600 
    219 H219       -3.4646  -28.5847  -51.9696 H         1 UNK         0.0600 
    220 H220       -5.6825  -24.5002  -51.6570 H         1 UNK         0.3000 
    221 H221       -6.6899  -22.8145  -52.6521 H         1 UNK         0.0600 
    222 H222       -7.6963  -24.9048  -54.6509 H         1 UNK         0.0600 
    223 H223       -8.4000  -24.5770  -53.0679 H         1 UNK         0.0600 
    224 H224       -8.4353  -23.3443  -54.3173 H         1 UNK         0.0600 
    225 H225       -4.0945  -22.6338  -53.2086 H         1 UNK         0.3000 
    226 H226       -3.5714  -22.2157  -56.0596 H         1 UNK         0.0600 
    227 H227       -1.7992  -23.0685  -54.5624 H         1 UNK         0.0600 
    228 H228       -1.3427  -21.4990  -55.2119 H         1 UNK         0.0600 
    229 H229       -1.9169  -21.6313  -53.5550 H         1 UNK         0.0600 
    230 H230       -5.5287  -20.8191  -56.1787 H         1 UNK         0.3000 
    231 H231       -6.5596  -18.8858  -56.5647 H         1 UNK         0.0600 
    232 H232       -5.2104  -16.9772  -57.3624 H         1 UNK         0.0600 
    233 H233       -4.5229  -18.4742  -57.9678 H         1 UNK         0.0600 
    234 H234       -3.7604  -17.6364  -56.6166 H         1 UNK         0.0600 
    235 H235       -6.2999  -19.6486  -53.8439 H         1 UNK         0.3000 
    236 H236       -6.6261  -19.0686  -51.7340 H         1 UNK         0.0600 
    237 H237       -8.6095  -17.8665  -52.6882 H         1 UNK         0.0600 
    238 H238       -8.0151  -17.1017  -51.2250 H         1 UNK         0.0600 
    239 H239       -7.6584  -16.3853  -52.7901 H         1 UNK         0.0600 
    240 H240       -4.0155  -18.3342  -53.0771 H         1 UNK         0.3000 
    241 H241       -2.0823  -17.4354  -52.7024 H         1 UNK         0.0600 
    242 H242       -3.6255  -14.0454  -53.5153 H         1 UNK         0.3800 
    243 H243       -4.3504  -15.6258  -53.6808 H         1 UNK         0.3800 
    244 H244       -1.2434  -16.8859  -50.4670 H         1 UNK         0.0800 
    245 H245       -2.8561  -16.7272  -49.8362 H         1 UNK         0.0800 
    246 H246       -1.5889  -19.5775  -52.3485 H         1 UNK         0.0800 
    247 H247       -1.3114  -20.8900  -51.2508 H         1 UNK         0.0800 
@<TRIPOS>BOND
     1    1    2 1    
     2    1  127 1    
     3    1  128 1    
     4    1  129 1    
     5    2    3 2    
     6    2    4 am   BACKBONE|DICT|INTERRES
     7    4    5 1    
     8    4  130 1    
     9    5    6 1    
    10    5   65 1    
    11    5  131 1    
    12    6    7 1    
    13    6  132 1    
    14    6  133 1    
    15    7    8 1    
    16    8    9 1    
    17    8  134 1    
    18    8  135 1    
    19    9   10 ar   
    20    9   14 ar   
    21   10   11 ar   
    22   10  136 1    
    23   11   12 ar   
    24   11  126 1    
    25   12   13 ar   
    26   12  137 1    
    27   13   14 ar   
    28   13   15 1    
    29   14  138 1    
    30   15   16 1    
    31   15  139 1    
    32   15  140 1    
    33   16   17 1    
    34   17   18 1    
    35   17  141 1    
    36   17  142 1    
    37   18   19 1    
    38   18   67 1    
    39   18  143 1    
    40   19   20 am   BACKBONE|DICT|INTERRES
    41   19  144 1    
    42   20   21 2    
    43   20   22 1    
    44   22   23 1    
    45   22   24 1    
    46   22  145 1    
    47   23  146 1    
    48   23  147 1    
    49   23  148 1    
    50   24   25 am   BACKBONE|DICT|INTERRES
    51   24  149 1    
    52   25   26 2    
    53   25   27 1    
    54   27   28 1    
    55   27   29 1    
    56   27  150 1    
    57   28  151 1    
    58   28  152 1    
    59   28  153 1    
    60   29   30 am   BACKBONE|DICT|INTERRES
    61   29  154 1    
    62   30   31 2    
    63   30   32 1    
    64   32   33 1    
    65   32   34 1    
    66   32  155 1    
    67   33  156 1    
    68   33  157 1    
    69   33  158 1    
    70   34   35 am   BACKBONE|DICT|INTERRES
    71   34  159 1    
    72   35   36 2    
    73   35   37 1    
    74   37   38 1    
    75   37   39 1    
    76   37  160 1    
    77   38  161 1    
    78   38  162 1    
    79   38  163 1    
    80   39   40 am   BACKBONE|DICT|INTERRES
    81   39  164 1    
    82   40   41 2    
    83   40   42 1    
    84   42   43 1    
    85   42   44 1    
    86   42  165 1    
    87   43  166 1    
    88   43  167 1    
    89   43  168 1    
    90   44   45 am   BACKBONE|DICT|INTERRES
    91   44  169 1    
    92   45   46 2    
    93   45   47 1    
    94   47   48 1    
    95   47   49 1    
    96   47  170 1    
    97   48  171 1    
    98   48  172 1    
    99   48  173 1    
   100   49   50 am   BACKBONE|DICT|INTERRES
   101   49  174 1    
   102   50   51 2    
   103   50   52 1    
   104   52   53 1    
   105   52   54 1    
   106   52  175 1    
   107   53  176 1    
   108   53  177 1    
   109   53  178 1    
   110   54   55 am   BACKBONE|DICT|INTERRES
   111   54  179 1    
   112   55   56 2    
   113   55   57 1    
   114   57   58 1    
   115   57   59 1    
   116   57  180 1    
   117   58  181 1    
   118   58  182 1    
   119   58  183 1    
   120   59   60 am   BACKBONE|DICT|INTERRES
   121   59  184 1    
   122   60   61 2    
   123   60   62 1    
   124   62   63 1    
   125   62   64 1    
   126   62  185 1    
   127   63  186 1    
   128   63  187 1    
   129   63  188 1    
   130   64   65 am   BACKBONE|DICT|INTERRES
   131   64  189 1    
   132   65   66 2    
   133   67   68 2    
   134   67   69 am   BACKBONE|DICT|INTERRES
   135   69   70 1    
   136   69  190 1    
   137   70   71 1    
   138   70   72 1    
   139   70  191 1    
   140   71  192 1    
   141   71  193 1    
   142   71  194 1    
   143   72   73 2    
   144   72   74 am   BACKBONE|DICT|INTERRES
   145   74   75 1    
   146   74  195 1    
   147   75   76 1    
   148   75   77 1    
   149   75  196 1    
   150   76  197 1    
   151   76  198 1    
   152   76  199 1    
   153   77   78 2    
   154   77   79 am   BACKBONE|DICT|INTERRES
   155   79   80 1    
   156   79  200 1    
   157   80   81 1    
   158   80   82 1    
   159   80  201 1    
   160   81  202 1    
   161   81  203 1    
   162   81  204 1    
   163   82   83 2    
   164   82   84 am   BACKBONE|DICT|INTERRES
   165   84   85 1    
   166   84  205 1    
   167   85   86 1    
   168   85   87 1    
   169   85  206 1    
   170   86  207 1    
   171   86  208 1    
   172   86  209 1    
   173   87   88 2    
   174   87   89 am   BACKBONE|DICT|INTERRES
   175   89   90 1    
   176   89  210 1    
   177   90   91 1    
   178   90   92 1    
   179   90  211 1    
   180   91  212 1    
   181   91  213 1    
   182   91  214 1    
   183   92   93 2    
   184   92   94 am   BACKBONE|DICT|INTERRES
   185   94   95 1    
   186   94  215 1    
   187   95   96 1    
   188   95   97 1    
   189   95  216 1    
   190   96  217 1    
   191   96  218 1    
   192   96  219 1    
   193   97   98 2    
   194   97   99 am   BACKBONE|DICT|INTERRES
   195   99  100 1    
   196   99  220 1    
   197  100  101 1    
   198  100  102 1    
   199  100  221 1    
   200  101  222 1    
   201  101  223 1    
   202  101  224 1    
   203  102  103 2    
   204  102  104 am   BACKBONE|DICT|INTERRES
   205  104  105 1    
   206  104  225 1    
   207  105  106 1    
   208  105  107 1    
   209  105  226 1    
   210  106  227 1    
   211  106  228 1    
   212  106  229 1    
   213  107  108 2    
   214  107  109 am   BACKBONE|DICT|INTERRES
   215  109  110 1    
   216  109  230 1    
   217  110  111 1    
   218  110  112 1    
   219  110  231 1    
   220  111  232 1    
   221  111  233 1    
   222  111  234 1    
   223  112  113 2    
   224  112  114 am   BACKBONE|DICT|INTERRES
   225  114  115 1    
   226  114  235 1    
   227  115  116 1    
   228  115  117 1    
   229  115  236 1    
   230  116  237 1    
   231  116  238 1    
   232  116  239 1    
   233  117  118 2    
   234  117  119 am   BACKBONE|DICT|INTERRES
   235  119  120 1    
   236  119  240 1    
   237  120  121 1    
   238  120  124 1    
   239  120  241 1    
   240  121  122 am   BACKBONE|DICT|INTERRES
   241  121  123 2    
   242  122  242 1    
   243  122  243 1    
   244  124  125 1    
   245  124  244 1    
   246  124  245 1    
   247  125  126 1    
   248  126  246 1    
   249  126  247 1    
@<TRIPOS>SUBSTRUCTURE
     1 UNK         1 GROUP             0       ****    0 ROOT    
