@<TRIPOS>MOLECULE
3R540
247   249    1
SMALL
USER_CHARGES


@<TRIPOS>ATOM
      1 CA         -0.8812  -14.5434  -48.1951 C.3       0 UNK        -0.1800 
      2 C           0.4160  -13.7503  -48.2074 C.2       0 UNK         0.5000 
      3 O           0.5154  -12.7124  -47.5520 O.2       0 UNK        -0.5000 
      4 N           1.4113  -14.2364  -48.9562 N.am      1 UNK        -0.5000 
      5 CA          2.7042  -13.5886  -49.2118 C.3       1 UNK         0.1400 
      6 C6          3.3545  -14.0849  -50.5339 C.3       23 UNK        -0.0398 
      7 S7          2.2637  -13.9632  -51.9962 S.3       23 UNK        -0.2404 
      8 C8          2.0527  -15.7145  -52.4616 C.3       23 UNK        -0.0205 
      9 C9          1.1091  -16.4419  -51.5162 C.ar      23 UNK        -0.0193 
     10 C10        -0.2711  -16.4075  -51.7400 C.ar      23 UNK        -0.1150 
     11 C11        -1.1490  -17.0460  -50.8594 C.ar      23 UNK        -0.0193 
     12 C12        -0.6366  -17.7239  -49.7509 C.ar      23 UNK        -0.1150 
     13 C13         0.7392  -17.7518  -49.5091 C.ar      23 UNK        -0.0193 
     14 C14         1.6096  -17.1290  -50.4058 C.ar      23 UNK        -0.1150 
     15 C15         1.2711  -18.3871  -48.2379 C.3       23 UNK        -0.0205 
     16 S16         1.8688  -20.0824  -48.4977 S.3       23 UNK        -0.2404 
     17 C17         1.8855  -20.6739  -46.7610 C.3       23 UNK        -0.0398 
     18 CA          0.8466  -21.7599  -46.3372 C.3       11 UNK         0.1400 
     19 N           0.4388  -21.6167  -44.9351 N.am      11 UNK        -0.5000 
     20 C          -0.2322  -22.5416  -44.2325 C.2       10 UNK         0.5000 
     21 O          -0.5474  -23.6448  -44.6785 O.2       10 UNK        -0.5000 
     22 CA         -0.6676  -22.1539  -42.8075 C.3       10 UNK         0.1400 
     23 CB          0.5052  -22.2620  -41.8217 C.3       10 UNK        -0.1800 
     24 N          -1.2512  -20.8134  -42.7417 N.am      10 UNK        -0.5000 
     25 C          -2.3826  -20.4519  -43.3646 C.2       9 UNK         0.5000 
     26 O          -3.0725  -21.2225  -44.0318 O.2       9 UNK        -0.5000 
     27 CA         -2.7907  -18.9713  -43.2653 C.3       9 UNK         0.1400 
     28 CB         -3.4812  -18.6833  -41.9241 C.3       9 UNK        -0.1800 
     29 N          -1.6608  -18.0597  -43.4499 N.am      9 UNK        -0.5000 
     30 C          -0.9339  -17.9781  -44.5738 C.2       8 UNK         0.5000 
     31 O          -1.1667  -18.6353  -45.5865 O.2       8 UNK        -0.5000 
     32 CA          0.2925  -17.0517  -44.5473 C.3       8 UNK         0.1400 
     33 CB         -0.1245  -15.5817  -44.6946 C.3       8 UNK        -0.1800 
     34 N           1.0841  -17.2148  -43.3329 N.am      8 UNK        -0.5000 
     35 C           1.6938  -18.3433  -42.9482 C.2       7 UNK         0.5000 
     36 O           1.6964  -19.3838  -43.6045 O.2       7 UNK        -0.5000 
     37 CA          2.3651  -18.3165  -41.5656 C.3       7 UNK         0.1400 
     38 CB          3.7443  -17.6429  -41.6352 C.3       7 UNK        -0.1800 
     39 N           1.5326  -17.6386  -40.5709 N.am      7 UNK        -0.5000 
     40 C           0.3645  -18.1120  -40.1137 C.2       6 UNK         0.5000 
     41 O          -0.1224  -19.1878  -40.4630 O.2       6 UNK        -0.5000 
     42 CA         -0.4013  -17.2132  -39.1258 C.3       6 UNK         0.1400 
     43 CB          0.1607  -17.3659  -37.7045 C.3       6 UNK        -0.1800 
     44 N          -0.3730  -15.8007  -39.5115 N.am      6 UNK        -0.5000 
     45 C          -1.0019  -15.3017  -40.5849 C.2       5 UNK         0.5000 
     46 O          -1.6806  -15.9800  -41.3554 O.2       5 UNK        -0.5000 
     47 CA         -0.7998  -13.8005  -40.8726 C.3       5 UNK         0.1400 
     48 CB         -1.7615  -12.9541  -40.0252 C.3       5 UNK        -0.1800 
     49 N           0.5754  -13.3292  -40.6675 N.am      5 UNK        -0.5000 
     50 C           1.6515  -13.8351  -41.2825 C.2       4 UNK         0.5000 
     51 O           1.6065  -14.8016  -42.0475 O.2       4 UNK        -0.5000 
     52 CA          3.0076  -13.1816  -40.9849 C.3       4 UNK         0.1400 
     53 CB          3.4444  -13.4416  -39.5311 C.3       4 UNK        -0.1800 
     54 N           3.9731  -13.7687  -41.9050 N.am      4 UNK        -0.5000 
     55 C           5.1681  -13.2869  -42.2480 C.2       3 UNK         0.5000 
     56 O           5.6269  -12.2239  -41.8312 O.2       3 UNK        -0.5000 
     57 CA          5.9926  -14.1474  -43.2252 C.3       3 UNK         0.1400 
     58 CB          6.9551  -15.0390  -42.4248 C.3       3 UNK        -0.1800 
     59 N           5.1842  -15.0185  -44.0897 N.am      3 UNK        -0.5000 
     60 C           4.2925  -14.7472  -45.0604 C.2       2 UNK         0.5000 
     61 O           3.6692  -15.6824  -45.5644 O.2       2 UNK        -0.5000 
     62 CA          3.9763  -13.2982  -45.5438 C.3       2 UNK         0.1400 
     63 CB          5.1943  -12.3560  -45.6912 C.3       2 UNK        -0.1800 
     64 N           3.2326  -13.2996  -46.8150 N.am      2 UNK        -0.5000 
     65 C           3.6785  -13.7130  -48.0128 C.2       1 UNK         0.5000 
     66 O           4.8117  -14.1649  -48.1936 O.2       1 UNK        -0.5000 
     67 C          -0.3827  -21.9072  -47.2617 C.2       11 UNK         0.5000 
     68 O          -0.4097  -22.8313  -48.0743 O.2       11 UNK        -0.5000 
     69 N          -1.3940  -21.0417  -47.0897 N.am      12 UNK        -0.5000 
     70 CA         -2.6499  -21.0830  -47.8407 C.3       12 UNK         0.1400 
     71 CB         -3.5285  -19.8798  -47.4672 C.3       12 UNK        -0.1800 
     72 C          -3.4215  -22.3991  -47.6415 C.2       12 UNK         0.5000 
     73 O          -3.9228  -22.9540  -48.6185 O.2       12 UNK        -0.5000 
     74 N          -3.4718  -22.8952  -46.3975 N.am      13 UNK        -0.5000 
     75 CA         -4.0688  -24.1833  -46.0478 C.3       13 UNK         0.1400 
     76 CB         -4.1459  -24.3243  -44.5201 C.3       13 UNK        -0.1800 
     77 C          -3.3166  -25.3708  -46.6751 C.2       13 UNK         0.5000 
     78 O          -3.9518  -26.2354  -47.2795 O.2       13 UNK        -0.5000 
     79 N          -1.9811  -25.3751  -46.5540 N.am      14 UNK        -0.5000 
     80 CA         -1.0968  -26.4075  -47.1015 C.3       14 UNK         0.1400 
     81 CB          0.3340  -26.1791  -46.5914 C.3       14 UNK        -0.1800 
     82 C          -1.1183  -26.4755  -48.6399 C.2       14 UNK         0.5000 
     83 O          -1.1069  -27.5714  -49.2014 O.2       14 UNK        -0.5000 
     84 N          -1.1751  -25.3068  -49.2903 N.am      15 UNK        -0.5000 
     85 CA         -1.2512  -25.1575  -50.7440 C.3       15 UNK         0.1400 
     86 CB         -0.6936  -23.7753  -51.1206 C.3       15 UNK        -0.1800 
     87 C          -2.6753  -25.3418  -51.3090 C.2       15 UNK         0.5000 
     88 O          -2.8419  -25.2825  -52.5285 O.2       15 UNK        -0.5000 
     89 N          -3.6763  -25.5191  -50.4320 N.am      16 UNK        -0.5000 
     90 CA         -5.1072  -25.6540  -50.7283 C.3       16 UNK         0.1400 
     91 CB         -5.3881  -26.9938  -51.4398 C.3       16 UNK        -0.1800 
     92 C          -5.6548  -24.4331  -51.4962 C.2       16 UNK         0.5000 
     93 O          -6.2538  -24.5836  -52.5614 O.2       16 UNK        -0.5000 
     94 N          -5.3744  -23.2399  -50.9520 N.am      17 UNK        -0.5000 
     95 CA         -5.6339  -21.9119  -51.5184 C.3       17 UNK         0.1400 
     96 CB         -7.1487  -21.6560  -51.6702 C.3       17 UNK        -0.1800 
     97 C          -4.8487  -21.6587  -52.8219 C.2       17 UNK         0.5000 
     98 O          -5.3342  -20.9416  -53.6980 O.2       17 UNK        -0.5000 
     99 N          -3.6539  -22.2650  -52.9244 N.am      18 UNK        -0.5000 
    100 CA        -2.7815  -22.3109  -54.1043 C.3       18 UNK         0.1400 
    101 CB        -2.1413  -20.9342  -54.3630 C.3       18 UNK        -0.1800 
    102 C         -3.5327  -22.8864  -55.3191 C.2       18 UNK         0.5000 
    103 O         -3.6133  -22.2459  -56.3706 O.2       18 UNK        -0.5000 
    104 N         -4.1723  -24.0434  -55.0903 N.am      19 UNK        -0.5000 
    105 CA        -5.1805  -24.7296  -55.9108 C.3       19 UNK         0.1400 
    106 CB        -4.6085  -25.1484  -57.2783 C.3       19 UNK        -0.1800 
    107 C         -6.4990  -23.9404  -56.0697 C.2       19 UNK         0.5000 
    108 O         -7.5757  -24.5150  -55.9036 O.2       19 UNK        -0.5000 
    109 N         -6.3841  -22.6448  -56.3734 N.am      20 UNK        -0.5000 
    110 CA        -7.4542  -21.6561  -56.4748 C.3       20 UNK         0.1400 
    111 CB        -8.3262  -21.9338  -57.7160 C.3       20 UNK        -0.1800 
    112 C         -6.9160  -20.2108  -56.5166 C.2       20 UNK         0.5000 
    113 O         -7.7136  -19.2823  -56.3726 O.2       20 UNK        -0.5000 
    114 N         -5.6030  -20.0157  -56.7323 N.am      21 UNK        -0.5000 
    115 CA        -4.9849  -18.7093  -56.9793 C.3       21 UNK         0.1400 
    116 CB        -3.5357  -18.9107  -57.4477 C.3       21 UNK        -0.1800 
    117 C         -5.0581  -17.7073  -55.8087 C.2       21 UNK         0.5000 
    118 O         -4.9948  -16.5028  -56.0613 O.2       21 UNK        -0.5000 
    119 N         -5.2204  -18.1916  -54.5698 N.am      22 UNK        -0.5000 
    120 CA        -5.5065  -17.3472  -53.3954 C.3       22 UNK         0.1400 
    121 C         -6.9904  -16.8764  -53.3044 C.2       22 UNK         0.5000 
    122 N         -7.9060  -17.3453  -54.1453 N.am      22 UNK        -0.7600 
    123 O         -7.3191  -16.0541  -52.4536 O.2       22 UNK        -0.5000 
    124 C124       -5.0589  -17.9994  -52.0615 C.3       23 UNK        -0.0398 
    125 S125       -3.2770  -18.3898  -52.0029 S.3       23 UNK        -0.2404 
    126 C126       -2.6516  -16.9612  -51.0718 C.3       23 UNK        -0.0205 
    127 H127       -1.3355  -14.5408  -49.1858 H         1 UNK         0.0600 
    128 H128       -1.5945  -14.1102  -47.4938 H         1 UNK         0.0600 
    129 H129       -0.6970  -15.5758  -47.9006 H         1 UNK         0.0600 
    130 H130        1.2589  -15.0958  -49.4669 H         1 UNK         0.3000 
    131 H131        2.5150  -12.5203  -49.3368 H         1 UNK         0.0600 
    132 H132        4.2441  -13.4914  -50.7518 H         1 UNK         0.0800 
    133 H133        3.7081  -15.1105  -50.4282 H         1 UNK         0.0800 
    134 H134        3.0237  -16.2112  -52.4950 H         1 UNK         0.0800 
    135 H135        1.6568  -15.7608  -53.4772 H         1 UNK         0.0800 
    136 H136       -0.6630  -15.8698  -52.5921 H         1 UNK         0.1150 
    137 H137       -1.3119  -18.2027  -49.0570 H         1 UNK         0.1150 
    138 H138        2.6738  -17.1588  -50.2194 H         1 UNK         0.1150 
    139 H139        2.0742  -17.7771  -47.8204 H         1 UNK         0.0800 
    140 H140        0.4769  -18.3996  -47.4942 H         1 UNK         0.0800 
    141 H141        1.7795  -19.7981  -46.1221 H         1 UNK         0.0800 
    142 H142        2.8895  -21.0435  -46.5493 H         1 UNK         0.0800 
    143 H143        1.3680  -22.7174  -46.4033 H         1 UNK         0.0600 
    144 H144        0.6919  -20.7464  -44.4740 H         1 UNK         0.3000 
    145 H145       -1.4357  -22.8638  -42.4939 H         1 UNK         0.0600 
    146 H146        0.1797  -22.0638  -40.8004 H         1 UNK         0.0600 
    147 H147        0.9367  -23.2635  -41.8375 H         1 UNK         0.0600 
    148 H148        1.3018  -21.5574  -42.0598 H         1 UNK         0.0600 
    149 H149       -0.7589  -20.1272  -42.1793 H         1 UNK         0.3000 
    150 H150       -3.5086  -18.7733  -44.0638 H         1 UNK         0.0600 
    151 H151       -4.3281  -19.3527  -41.7685 H         1 UNK         0.0600 
    152 H152       -3.8634  -17.6630  -41.8900 H         1 UNK         0.0600 
    153 H153       -2.7998  -18.8130  -41.0830 H         1 UNK         0.0600 
    154 H154       -1.4359  -17.4500  -42.6697 H         1 UNK         0.3000 
    155 H155        0.9293  -17.3110  -45.3945 H         1 UNK         0.0600 
    156 H156       -0.6446  -15.2200  -43.8083 H         1 UNK         0.0600 
    157 H157       -0.7985  -15.4479  -45.5387 H         1 UNK         0.0600 
    158 H158        0.7429  -14.9417  -44.8592 H         1 UNK         0.0600 
    159 H159        1.1720  -16.3892  -42.7439 H         1 UNK         0.3000 
    160 H160        2.5074  -19.3500  -41.2425 H         1 UNK         0.0600 
    161 H161        3.6703  -16.6035  -41.9507 H         1 UNK         0.0600 
    162 H162        4.3917  -18.1559  -42.3475 H         1 UNK         0.0600 
    163 H163        4.2444  -17.6649  -40.6669 H         1 UNK         0.0600 
    164 H164        1.8328  -16.7235  -40.2717 H         1 UNK         0.3000 
    165 H165       -1.4425  -17.5430  -39.1164 H         1 UNK         0.0600 
    166 H166       -0.4273  -16.7955  -36.9852 H         1 UNK         0.0600 
    167 H167        0.1382  -18.4091  -37.3865 H         1 UNK         0.0600 
    168 H168        1.1947  -17.0247  -37.6389 H         1 UNK         0.0600 
    169 H169        0.1691  -15.1753  -38.9340 H         1 UNK         0.3000 
    170 H170       -1.0453  -13.6367  -41.9238 H         1 UNK         0.0600 
    171 H171       -2.7946  -13.2728  -40.1713 H         1 UNK         0.0600 
    172 H172       -1.5400  -13.0360  -38.9604 H         1 UNK         0.0600 
    173 H173       -1.7068  -11.9006  -40.3000 H         1 UNK         0.0600 
    174 H174        0.6915  -12.5424  -40.0453 H         1 UNK         0.3000 
    175 H175        2.9285  -12.1090  -41.1718 H         1 UNK         0.0600 
    176 H176        3.5199  -14.5091  -39.3198 H         1 UNK         0.0600 
    177 H177        4.4155  -12.9923  -39.3230 H         1 UNK         0.0600 
    178 H178        2.7359  -13.0137  -38.8212 H         1 UNK         0.0600 
    179 H179        3.6355  -14.6163  -42.3444 H         1 UNK         0.3000 
    180 H180        6.6168  -13.4976  -43.8353 H         1 UNK         0.0600 
    181 H181        6.4189  -15.7419  -41.7854 H         1 UNK         0.0600 
    182 H182        7.6016  -14.4398  -41.7819 H         1 UNK         0.0600 
    183 H183        7.6037  -15.6143  -43.0859 H         1 UNK         0.0600 
    184 H184        5.3109  -15.9989  -43.8911 H         1 UNK         0.3000 
    185 H185        3.2989  -12.8641  -44.8074 H         1 UNK         0.0600 
    186 H186        5.4426  -11.8684  -44.7504 H         1 UNK         0.0600 
    187 H187        6.0766  -12.8838  -46.0556 H         1 UNK         0.0600 
    188 H188        4.9912  -11.5456  -46.3918 H         1 UNK         0.0600 
    189 H189        2.2677  -12.9840  -46.7728 H         1 UNK         0.3000 
    190 H190       -1.2953  -20.2873  -46.4138 H         1 UNK         0.3000 
    191 H191       -2.3997  -21.0033  -48.9008 H         1 UNK         0.0600 
    192 H192       -3.7963  -19.8908  -46.4104 H         1 UNK         0.0600 
    193 H193       -4.4551  -19.8797  -48.0426 H         1 UNK         0.0600 
    194 H194       -3.0214  -18.9374  -47.6703 H         1 UNK         0.0600 
    195 H195       -3.0784  -22.3520  -45.6342 H         1 UNK         0.3000 
    196 H196       -5.0887  -24.1941  -46.4380 H         1 UNK         0.0600 
    197 H197       -4.5940  -25.2776  -44.2372 H         1 UNK         0.0600 
    198 H198       -4.7579  -23.5349  -44.0834 H         1 UNK         0.0600 
    199 H199       -3.1594  -24.2740  -44.0586 H         1 UNK         0.0600 
    200 H200       -1.5334  -24.6332  -46.0219 H         1 UNK         0.3000 
    201 H201       -1.4410  -27.3726  -46.7241 H         1 UNK         0.0600 
    202 H202        0.3754  -26.2214  -45.5029 H         1 UNK         0.0600 
    203 H203        0.7209  -25.2081  -46.9028 H         1 UNK         0.0600 
    204 H204        1.0131  -26.9426  -46.9729 H         1 UNK         0.0600 
    205 H205       -1.1153  -24.4442  -48.7529 H         1 UNK         0.3000 
    206 H206       -0.6166  -25.9152  -51.2080 H         1 UNK         0.0600 
    207 H207        0.2983  -23.6211  -50.6951 H         1 UNK         0.0600 
    208 H208       -0.5928  -23.6737  -52.2003 H         1 UNK         0.0600 
    209 H209       -1.3368  -22.9690  -50.7649 H         1 UNK         0.0600 
    210 H210       -3.4388  -25.5238  -49.4483 H         1 UNK         0.3000 
    211 H211       -5.6225  -25.6736  -49.7669 H         1 UNK         0.0600 
    212 H212       -4.9252  -27.0365  -52.4262 H         1 UNK         0.0600 
    213 H213       -6.4595  -27.1458  -51.5749 H         1 UNK         0.0600 
    214 H214       -5.0119  -27.8343  -50.8566 H         1 UNK         0.0600 
    215 H215       -4.8539  -23.2323  -50.0733 H         1 UNK         0.3000 
    216 H216       -5.2491  -21.1954  -50.7913 H         1 UNK         0.0600 
    217 H217       -7.6768  -21.8495  -50.7367 H         1 UNK         0.0600 
    218 H218       -7.5905  -22.2848  -52.4438 H         1 UNK         0.0600 
    219 H219       -7.3479  -20.6201  -51.9458 H         1 UNK         0.0600 
    220 H220       -3.3775  -22.8628  -52.1601 H         1 UNK         0.3000 
    221 H221       -1.9770  -23.0129  -53.8894 H         1 UNK         0.0600 
    222 H222       -2.8932  -20.1650  -54.5340 H         1 UNK         0.0600 
    223 H223       -1.5362  -20.6199  -53.5127 H         1 UNK         0.0600 
    224 H224       -1.4873  -20.9609  -55.2351 H         1 UNK         0.0600 
    225 H225       -4.0414  -24.4519  -54.1709 H         1 UNK         0.3000 
    226 H226       -5.4268  -25.6414  -55.3641 H         1 UNK         0.0600 
    227 H227       -3.7086  -25.7519  -57.1602 H         1 UNK         0.0600 
    228 H228       -5.3319  -25.7474  -57.8325 H         1 UNK         0.0600 
    229 H229       -4.3570  -24.2885  -57.8994 H         1 UNK         0.0600 
    230 H230       -5.4340  -22.2982  -56.4521 H         1 UNK         0.3000 
    231 H231       -8.0734  -21.7373  -55.5793 H         1 UNK         0.0600 
    232 H232       -8.8244  -22.9008  -57.6516 H         1 UNK         0.0600 
    233 H233       -7.7317  -21.9233  -58.6302 H         1 UNK         0.0600 
    234 H234       -9.1082  -21.1811  -57.8240 H         1 UNK         0.0600 
    235 H235       -4.9700  -20.8030  -56.7828 H         1 UNK         0.3000 
    236 H236       -5.5325  -18.2538  -57.8070 H         1 UNK         0.0600 
    237 H237       -3.0634  -17.9558  -57.6822 H         1 UNK         0.0600 
    238 H238       -2.9274  -19.3975  -56.6879 H         1 UNK         0.0600 
    239 H239       -3.4944  -19.5222  -58.3492 H         1 UNK         0.0600 
    240 H240       -5.2625  -19.1977  -54.4229 H         1 UNK         0.3000 
    241 H241       -4.9227  -16.4307  -53.4993 H         1 UNK         0.0600 
    242 H242       -7.6694  -18.0150  -54.8708 H         1 UNK         0.3800 
    243 H243       -8.8560  -17.0192  -54.0677 H         1 UNK         0.3800 
    244 H244       -5.2974  -17.3502  -51.2172 H         1 UNK         0.0800 
    245 H245       -5.6185  -18.9170  -51.8886 H         1 UNK         0.0800 
    246 H246       -3.1557  -16.9071  -50.1055 H         1 UNK         0.0800 
    247 H247       -2.9047  -16.0433  -51.6046 H         1 UNK         0.0800 
@<TRIPOS>BOND
     1    1    2 1    
     2    1  127 1    
     3    1  128 1    
     4    1  129 1    
     5    2    3 2    
     6    2    4 am   BACKBONE|DICT|INTERRES
     7    4    5 1    
     8    4  130 1    
     9    5    6 1    
    10    5   65 1    
    11    5  131 1    
    12    6    7 1    
    13    6  132 1    
    14    6  133 1    
    15    7    8 1    
    16    8    9 1    
    17    8  134 1    
    18    8  135 1    
    19    9   10 ar   
    20    9   14 ar   
    21   10   11 ar   
    22   10  136 1    
    23   11   12 ar   
    24   11  126 1    
    25   12   13 ar   
    26   12  137 1    
    27   13   14 ar   
    28   13   15 1    
    29   14  138 1    
    30   15   16 1    
    31   15  139 1    
    32   15  140 1    
    33   16   17 1    
    34   17   18 1    
    35   17  141 1    
    36   17  142 1    
    37   18   19 1    
    38   18   67 1    
    39   18  143 1    
    40   19   20 am   BACKBONE|DICT|INTERRES
    41   19  144 1    
    42   20   21 2    
    43   20   22 1    
    44   22   23 1    
    45   22   24 1    
    46   22  145 1    
    47   23  146 1    
    48   23  147 1    
    49   23  148 1    
    50   24   25 am   BACKBONE|DICT|INTERRES
    51   24  149 1    
    52   25   26 2    
    53   25   27 1    
    54   27   28 1    
    55   27   29 1    
    56   27  150 1    
    57   28  151 1    
    58   28  152 1    
    59   28  153 1    
    60   29   30 am   BACKBONE|DICT|INTERRES
    61   29  154 1    
    62   30   31 2    
    63   30   32 1    
    64   32   33 1    
    65   32   34 1    
    66   32  155 1    
    67   33  156 1    
    68   33  157 1    
    69   33  158 1    
    70   34   35 am   BACKBONE|DICT|INTERRES
    71   34  159 1    
    72   35   36 2    
    73   35   37 1    
    74   37   38 1    
    75   37   39 1    
    76   37  160 1    
    77   38  161 1    
    78   38  162 1    
    79   38  163 1    
    80   39   40 am   BACKBONE|DICT|INTERRES
    81   39  164 1    
    82   40   41 2    
    83   40   42 1    
    84   42   43 1    
    85   42   44 1    
    86   42  165 1    
    87   43  166 1    
    88   43  167 1    
    89   43  168 1    
    90   44   45 am   BACKBONE|DICT|INTERRES
    91   44  169 1    
    92   45   46 2    
    93   45   47 1    
    94   47   48 1    
    95   47   49 1    
    96   47  170 1    
    97   48  171 1    
    98   48  172 1    
    99   48  173 1    
   100   49   50 am   BACKBONE|DICT|INTERRES
   101   49  174 1    
   102   50   51 2    
   103   50   52 1    
   104   52   53 1    
   105   52   54 1    
   106   52  175 1    
   107   53  176 1    
   108   53  177 1    
   109   53  178 1    
   110   54   55 am   BACKBONE|DICT|INTERRES
   111   54  179 1    
   112   55   56 2    
   113   55   57 1    
   114   57   58 1    
   115   57   59 1    
   116   57  180 1    
   117   58  181 1    
   118   58  182 1    
   119   58  183 1    
   120   59   60 am   BACKBONE|DICT|INTERRES
   121   59  184 1    
   122   60   61 2    
   123   60   62 1    
   124   62   63 1    
   125   62   64 1    
   126   62  185 1    
   127   63  186 1    
   128   63  187 1    
   129   63  188 1    
   130   64   65 am   BACKBONE|DICT|INTERRES
   131   64  189 1    
   132   65   66 2    
   133   67   68 2    
   134   67   69 am   BACKBONE|DICT|INTERRES
   135   69   70 1    
   136   69  190 1    
   137   70   71 1    
   138   70   72 1    
   139   70  191 1    
   140   71  192 1    
   141   71  193 1    
   142   71  194 1    
   143   72   73 2    
   144   72   74 am   BACKBONE|DICT|INTERRES
   145   74   75 1    
   146   74  195 1    
   147   75   76 1    
   148   75   77 1    
   149   75  196 1    
   150   76  197 1    
   151   76  198 1    
   152   76  199 1    
   153   77   78 2    
   154   77   79 am   BACKBONE|DICT|INTERRES
   155   79   80 1    
   156   79  200 1    
   157   80   81 1    
   158   80   82 1    
   159   80  201 1    
   160   81  202 1    
   161   81  203 1    
   162   81  204 1    
   163   82   83 2    
   164   82   84 am   BACKBONE|DICT|INTERRES
   165   84   85 1    
   166   84  205 1    
   167   85   86 1    
   168   85   87 1    
   169   85  206 1    
   170   86  207 1    
   171   86  208 1    
   172   86  209 1    
   173   87   88 2    
   174   87   89 am   BACKBONE|DICT|INTERRES
   175   89   90 1    
   176   89  210 1    
   177   90   91 1    
   178   90   92 1    
   179   90  211 1    
   180   91  212 1    
   181   91  213 1    
   182   91  214 1    
   183   92   93 2    
   184   92   94 am   BACKBONE|DICT|INTERRES
   185   94   95 1    
   186   94  215 1    
   187   95   96 1    
   188   95   97 1    
   189   95  216 1    
   190   96  217 1    
   191   96  218 1    
   192   96  219 1    
   193   97   98 2    
   194   97   99 am   BACKBONE|DICT|INTERRES
   195   99  100 1    
   196   99  220 1    
   197  100  101 1    
   198  100  102 1    
   199  100  221 1    
   200  101  222 1    
   201  101  223 1    
   202  101  224 1    
   203  102  103 2    
   204  102  104 am   BACKBONE|DICT|INTERRES
   205  104  105 1    
   206  104  225 1    
   207  105  106 1    
   208  105  107 1    
   209  105  226 1    
   210  106  227 1    
   211  106  228 1    
   212  106  229 1    
   213  107  108 2    
   214  107  109 am   BACKBONE|DICT|INTERRES
   215  109  110 1    
   216  109  230 1    
   217  110  111 1    
   218  110  112 1    
   219  110  231 1    
   220  111  232 1    
   221  111  233 1    
   222  111  234 1    
   223  112  113 2    
   224  112  114 am   BACKBONE|DICT|INTERRES
   225  114  115 1    
   226  114  235 1    
   227  115  116 1    
   228  115  117 1    
   229  115  236 1    
   230  116  237 1    
   231  116  238 1    
   232  116  239 1    
   233  117  118 2    
   234  117  119 am   BACKBONE|DICT|INTERRES
   235  119  120 1    
   236  119  240 1    
   237  120  121 1    
   238  120  124 1    
   239  120  241 1    
   240  121  122 am   BACKBONE|DICT|INTERRES
   241  121  123 2    
   242  122  242 1    
   243  122  243 1    
   244  124  125 1    
   245  124  244 1    
   246  124  245 1    
   247  125  126 1    
   248  126  246 1    
   249  126  247 1    
@<TRIPOS>SUBSTRUCTURE
     1 UNK         1 GROUP             0       ****    0 ROOT    
