@<TRIPOS>MOLECULE
3R540
247   249    1
SMALL
USER_CHARGES


@<TRIPOS>ATOM
      1 CA         -2.1949  -15.0234  -47.0666 C.3       0 UNK        -0.1800 
      2 C          -0.9138  -14.4739  -47.6762 C.2       0 UNK         0.5000 
      3 O           0.1752  -14.9085  -47.3013 O.2       0 UNK        -0.5000 
      4 N          -1.0471  -13.5090  -48.5985 N.am      1 UNK        -0.5000 
      5 CA          0.0068  -12.7947  -49.3412 C.3       1 UNK         0.1400 
      6 C6          0.8877  -13.7092  -50.2337 C.3       23 UNK        -0.0398 
      7 S7         -0.0390  -14.4064  -51.6427 S.3       23 UNK        -0.2404 
      8 C8          0.2862  -16.1908  -51.4763 C.3       23 UNK        -0.0205 
      9 C9         -0.6728  -16.8785  -50.5161 C.ar      23 UNK        -0.0193 
     10 C10        -2.0474  -16.8845  -50.7754 C.ar      23 UNK        -0.1150 
     11 C11        -2.9334  -17.5337  -49.9118 C.ar      23 UNK        -0.0193 
     12 C12        -2.4323  -18.1903  -48.7839 C.ar      23 UNK        -0.1150 
     13 C13        -1.0618  -18.1846  -48.5080 C.ar      23 UNK        -0.0193 
     14 C14        -0.1868  -17.5290  -49.3787 C.ar      23 UNK        -0.1150 
     15 C15        -0.5371  -18.8347  -47.2388 C.3       23 UNK        -0.0205 
     16 S16         0.5335  -20.2650  -47.5818 S.3       23 UNK        -0.2404 
     17 C17         0.7004  -20.9532  -45.8902 C.3       23 UNK        -0.0398 
     18 CA         -0.1328  -22.2211  -45.5324 C.3       11 UNK         0.1400 
     19 N          -0.2911  -22.3695  -44.0820 N.am      11 UNK        -0.5000 
     20 C          -0.7476  -23.4646  -43.4555 C.2       10 UNK         0.5000 
     21 O          -1.1749  -24.4608  -44.0394 O.2       10 UNK        -0.5000 
     22 CA         -0.7219  -23.4424  -41.9184 C.3       10 UNK         0.1400 
     23 CB          0.7034  -23.6884  -41.3980 C.3       10 UNK        -0.1800 
     24 N          -1.2048  -22.1611  -41.4099 N.am      10 UNK        -0.5000 
     25 C          -2.4518  -21.9345  -40.9763 C.2       9 UNK         0.5000 
     26 O          -3.3086  -22.8120  -40.8631 O.2       9 UNK        -0.5000 
     27 CA         -2.8169  -20.4775  -40.6203 C.3       9 UNK         0.1400 
     28 CB         -2.6141  -20.2248  -39.1186 C.3       9 UNK        -0.1800 
     29 N          -2.0682  -19.4705  -41.3776 N.am      9 UNK        -0.5000 
     30 C          -2.0930  -19.3401  -42.7108 C.2       8 UNK         0.5000 
     31 O          -2.7596  -20.0534  -43.4574 O.2       8 UNK        -0.5000 
     32 CA         -1.1709  -18.2762  -43.3291 C.3       8 UNK         0.1400 
     33 CB         -1.9015  -16.9316  -43.4293 C.3       8 UNK        -0.1800 
     34 N           0.1252  -18.0955  -42.6629 N.am      8 UNK        -0.5000 
     35 C           0.9941  -19.0662  -42.3408 C.2       7 UNK         0.5000 
     36 O           0.7607  -20.2705  -42.4653 O.2       7 UNK        -0.5000 
     37 CA          2.3698  -18.5851  -41.8481 C.3       7 UNK         0.1400 
     38 CB          3.2752  -19.7305  -41.3490 C.3       7 UNK        -0.1800 
     39 N           3.0316  -17.7903  -42.8858 N.am      7 UNK        -0.5000 
     40 C           3.4072  -18.1918  -44.1112 C.2       6 UNK         0.5000 
     41 O           3.3396  -19.3531  -44.5120 O.2       6 UNK        -0.5000 
     42 CA          3.9365  -17.1058  -45.0662 C.3       6 UNK         0.1400 
     43 CB          2.8295  -16.6757  -46.0423 C.3       6 UNK        -0.1800 
     44 N           4.4394  -15.9207  -44.3721 N.am      6 UNK        -0.5000 
     45 C           5.5743  -15.8620  -43.6623 C.2       5 UNK         0.5000 
     46 O           6.3511  -16.8079  -43.5285 O.2       5 UNK        -0.5000 
     47 CA          5.8772  -14.5227  -42.9718 C.3       5 UNK         0.1400 
     48 CB          6.5212  -13.5369  -43.9598 C.3       5 UNK        -0.1800 
     49 N           4.6606  -13.9266  -42.4192 N.am      5 UNK        -0.5000 
     50 C           4.1877  -14.1625  -41.1886 C.2       4 UNK         0.5000 
     51 O           4.7486  -14.8907  -40.3693 O.2       4 UNK        -0.5000 
     52 CA          2.8657  -13.4713  -40.8014 C.3       4 UNK         0.1400 
     53 CB          3.1452  -12.1187  -40.1288 C.3       4 UNK        -0.1800 
     54 N           1.9665  -13.2618  -41.9373 N.am      4 UNK        -0.5000 
     55 C           1.2720  -14.2347  -42.5401 C.2       3 UNK         0.5000 
     56 O           1.3034  -15.4179  -42.1977 O.2       3 UNK        -0.5000 
     57 CA          0.4036  -13.8279  -43.7439 C.3       3 UNK         0.1400 
     58 CB         -0.9900  -13.3879  -43.2702 C.3       3 UNK        -0.1800 
     59 N           0.9478  -12.7956  -44.6313 N.am      3 UNK        -0.5000 
     60 C           2.1704  -12.7747  -45.1784 C.2       2 UNK         0.5000 
     61 O           3.1000  -13.4997  -44.8266 O.2       2 UNK        -0.5000 
     62 CA          2.3249  -11.8669  -46.4022 C.3       2 UNK         0.1400 
     63 CB          3.7831  -11.7221  -46.8766 C.3       2 UNK        -0.1800 
     64 N           1.5204  -12.4906  -47.4420 N.am      2 UNK        -0.5000 
     65 C           0.8756  -11.8881  -48.4403 C.2       1 UNK         0.5000 
     66 O           0.9294  -10.6765  -48.6564 O.2       1 UNK        -0.5000 
     67 C          -1.4674  -22.3562  -46.2983 C.2       11 UNK         0.5000 
     68 O          -1.4811  -23.0059  -47.3412 O.2       11 UNK        -0.5000 
     69 N          -2.5684  -21.7955  -45.7725 N.am      12 UNK        -0.5000 
     70 CA         -3.8804  -21.7617  -46.4346 C.3       12 UNK         0.1400 
     71 CB         -4.8550  -20.9098  -45.6090 C.3       12 UNK        -0.1800 
     72 C          -4.5024  -23.1379  -46.7547 C.2       12 UNK         0.5000 
     73 O          -5.4169  -23.2002  -47.5761 O.2       12 UNK        -0.5000 
     74 N          -3.9933  -24.2145  -46.1398 N.am      13 UNK        -0.5000 
     75 CA         -4.3577  -25.5980  -46.4486 C.3       13 UNK         0.1400 
     76 CB         -3.8003  -26.5133  -45.3479 C.3       13 UNK        -0.1800 
     77 C          -3.8750  -26.0714  -47.8380 C.2       13 UNK         0.5000 
     78 O          -4.4593  -27.0067  -48.3865 O.2       13 UNK        -0.5000 
     79 N          -2.8302  -25.4336  -48.3817 N.am      14 UNK        -0.5000 
     80 CA         -2.2349  -25.7269  -49.6833 C.3       14 UNK         0.1400 
     81 CB         -1.3447  -26.9833  -49.5950 C.3       14 UNK        -0.1800 
     82 C          -1.4718  -24.4742  -50.1391 C.2       14 UNK         0.5000 
     83 O          -0.2394  -24.4772  -50.1759 O.2       14 UNK        -0.5000 
     84 N          -2.2335  -23.3988  -50.3798 N.am      15 UNK        -0.5000 
     85 CA         -1.7390  -22.0357  -50.5742 C.3       15 UNK         0.1400 
     86 CB         -2.9381  -21.0896  -50.6897 C.3       15 UNK        -0.1800 
     87 C          -0.7805  -21.8432  -51.7647 C.2       15 UNK         0.5000 
     88 O          -0.8236  -22.5935  -52.7414 O.2       15 UNK        -0.5000 
     89 N           0.0519  -20.8008  -51.6596 N.am      16 UNK        -0.5000 
     90 CA          1.0879  -20.4460  -52.6307 C.3       16 UNK         0.1400 
     91 CB          2.1695  -19.6316  -51.9021 C.3       16 UNK        -0.1800 
     92 C           0.5677  -19.6893  -53.8723 C.2       16 UNK         0.5000 
     93 O           1.3591  -19.4175  -54.7766 O.2       16 UNK        -0.5000 
     94 N          -0.7270  -19.3543  -53.9085 N.am      17 UNK        -0.5000 
     95 CA         -1.3948  -18.6816  -55.0200 C.3       17 UNK         0.1400 
     96 CB         -1.3990  -17.1615  -54.7780 C.3       17 UNK        -0.1800 
     97 C          -2.8165  -19.2382  -55.1896 C.2       17 UNK         0.5000 
     98 O          -3.2342  -20.1121  -54.4247 O.2       17 UNK        -0.5000 
     99 N          -3.5206  -18.7366  -56.2161 N.am      18 UNK        -0.5000 
    100 CA        -4.9095  -19.0512  -56.5815 C.3       18 UNK         0.1400 
    101 CB        -5.8790  -18.5294  -55.4990 C.3       18 UNK        -0.1800 
    102 C         -5.1388  -20.5433  -56.9018 C.2       18 UNK         0.5000 
    103 O         -6.2152  -21.0712  -56.6253 O.2       18 UNK        -0.5000 
    104 N         -4.1030  -21.2153  -57.4298 N.am      19 UNK        -0.5000 
    105 CA        -4.0309  -22.6646  -57.6694 C.3       19 UNK         0.1400 
    106 CB        -4.9725  -23.0730  -58.8217 C.3       19 UNK        -0.1800 
    107 C         -4.2553  -23.4991  -56.3855 C.2       19 UNK         0.5000 
    108 O         -4.8083  -24.5977  -56.4510 O.2       19 UNK        -0.5000 
    109 N         -3.8436  -22.9319  -55.2411 N.am      20 UNK        -0.5000 
    110 CA        -4.0032  -23.4106  -53.8660 C.3       20 UNK         0.1400 
    111 CB        -3.4034  -24.8186  -53.6740 C.3       20 UNK        -0.1800 
    112 C         -5.4391  -23.3056  -53.3105 C.2       20 UNK         0.5000 
    113 O         -5.6570  -23.6850  -52.1582 O.2       20 UNK        -0.5000 
    114 N         -6.3913  -22.7735  -54.0937 N.am      21 UNK        -0.5000 
    115 CA        -7.8138  -22.7057  -53.7432 C.3       21 UNK         0.1400 
    116 CB        -8.6366  -22.3308  -54.9847 C.3       21 UNK        -0.1800 
    117 C         -8.1325  -21.7487  -52.5799 C.2       21 UNK         0.5000 
    118 O         -9.1600  -21.9303  -51.9251 O.2       21 UNK        -0.5000 
    119 N         -7.2541  -20.7683  -52.3276 N.am      22 UNK        -0.5000 
    120 CA        -7.3237  -19.8849  -51.1527 C.3       22 UNK         0.1400 
    121 C         -6.8047  -20.5306  -49.8298 C.2       22 UNK         0.5000 
    122 N         -6.3111  -21.7648  -49.8389 N.am      22 UNK        -0.7600 
    123 O         -6.8803  -19.9096  -48.7734 O.2       22 UNK        -0.5000 
    124 C124       -6.7271  -18.4813  -51.4418 C.3       23 UNK        -0.0398 
    125 S125       -4.9133  -18.4401  -51.6543 S.3       23 UNK        -0.2404 
    126 C126       -4.4326  -17.4947  -50.1724 C.3       23 UNK        -0.0205 
    127 H127       -2.0383  -16.0382  -46.7015 H         1 UNK         0.0600 
    128 H128       -3.0001  -15.0506  -47.8011 H         1 UNK         0.0600 
    129 H129       -2.5091  -14.4052  -46.2263 H         1 UNK         0.0600 
    130 H130       -1.9832  -13.2080  -48.8293 H         1 UNK         0.3000 
    131 H131       -0.5272  -12.1148  -50.0074 H         1 UNK         0.0600 
    132 H132        1.3395  -14.5091  -49.6458 H         1 UNK         0.0800 
    133 H133        1.7199  -13.1440  -50.6575 H         1 UNK         0.0800 
    134 H134        0.1880  -16.6602  -52.4536 H         1 UNK         0.0800 
    135 H135        1.3239  -16.3427  -51.1763 H         1 UNK         0.0800 
    136 H136       -2.4320  -16.3736  -51.6461 H         1 UNK         0.1150 
    137 H137       -3.1142  -18.6869  -48.1079 H         1 UNK         0.1150 
    138 H138        0.8715  -17.5166  -49.1586 H         1 UNK         0.1150 
    139 H139        0.0178  -18.0931  -46.6621 H         1 UNK         0.0800 
    140 H140       -1.3713  -19.1576  -46.6147 H         1 UNK         0.0800 
    141 H141        0.4824  -20.1535  -45.1851 H         1 UNK         0.0800 
    142 H142        1.7564  -21.1751  -45.7329 H         1 UNK         0.0800 
    143 H143        0.4647  -23.0764  -45.8559 H         1 UNK         0.0600 
    144 H144        0.0621  -21.6045  -43.5123 H         1 UNK         0.3000 
    145 H145       -1.3543  -24.2573  -41.5596 H         1 UNK         0.0600 
    146 H146        0.7216  -23.7264  -40.3088 H         1 UNK         0.0600 
    147 H147        1.0935  -24.6392  -41.7634 H         1 UNK         0.0600 
    148 H148        1.3936  -22.9057  -41.7157 H         1 UNK         0.0600 
    149 H149       -0.5753  -21.3726  -41.5164 H         1 UNK         0.3000 
    150 H150       -3.8757  -20.3424  -40.8505 H         1 UNK         0.0600 
    151 H151       -3.1799  -20.9414  -38.5217 H         1 UNK         0.0600 
    152 H152       -2.9543  -19.2285  -38.8359 H         1 UNK         0.0600 
    153 H153       -1.5650  -20.3164  -38.8341 H         1 UNK         0.0600 
    154 H154       -1.4733  -18.8514  -40.8472 H         1 UNK         0.3000 
    155 H155       -0.9579  -18.6039  -44.3449 H         1 UNK         0.0600 
    156 H156       -1.3624  -16.2438  -44.0770 H         1 UNK         0.0600 
    157 H157       -2.0199  -16.4653  -42.4510 H         1 UNK         0.0600 
    158 H158       -2.8969  -17.0537  -43.8593 H         1 UNK         0.0600 
    159 H159        0.4284  -17.1362  -42.5188 H         1 UNK         0.3000 
    160 H160        2.1898  -17.9151  -41.0061 H         1 UNK         0.0600 
    161 H161        3.4683  -20.4719  -42.1246 H         1 UNK         0.0600 
    162 H162        2.8110  -20.2529  -40.5118 H         1 UNK         0.0600 
    163 H163        4.2361  -19.3493  -41.0035 H         1 UNK         0.0600 
    164 H164        3.0837  -16.7989  -42.6932 H         1 UNK         0.3000 
    165 H165        4.7559  -17.5393  -45.6432 H         1 UNK         0.0600 
    166 H166        1.9716  -16.2543  -45.5169 H         1 UNK         0.0600 
    167 H167        3.1889  -15.9250  -46.7464 H         1 UNK         0.0600 
    168 H168        2.4715  -17.5239  -46.6273 H         1 UNK         0.0600 
    169 H169        3.8893  -15.0697  -44.4733 H         1 UNK         0.3000 
    170 H170        6.5929  -14.7094  -42.1681 H         1 UNK         0.0600 
    171 H171        7.4431  -13.9470  -44.3739 H         1 UNK         0.0600 
    172 H172        5.8591  -13.3088  -44.7959 H         1 UNK         0.0600 
    173 H173        6.7749  -12.5975  -43.4685 H         1 UNK         0.0600 
    174 H174        4.0952  -13.3867  -43.0642 H         1 UNK         0.3000 
    175 H175        2.3589  -14.1120  -40.0763 H         1 UNK         0.0600 
    176 H176        3.6373  -11.4238  -40.8105 H         1 UNK         0.0600 
    177 H177        2.2228  -11.6528  -39.7813 H         1 UNK         0.0600 
    178 H178        3.7935  -12.2409  -39.2600 H         1 UNK         0.0600 
    179 H179        1.8865  -12.3207  -42.2937 H         1 UNK         0.3000 
    180 H180        0.2910  -14.7213  -44.3592 H         1 UNK         0.0600 
    181 H181       -0.9518  -12.4280  -42.7537 H         1 UNK         0.0600 
    182 H182       -1.4220  -14.1106  -42.5775 H         1 UNK         0.0600 
    183 H183       -1.6800  -13.2908  -44.1082 H         1 UNK         0.0600 
    184 H184        0.2670  -12.1506  -45.0051 H         1 UNK         0.3000 
    185 H185        1.9262  -10.8815  -46.1528 H         1 UNK         0.0600 
    186 H186        3.8520  -11.0603  -47.7400 H         1 UNK         0.0600 
    187 H187        4.4083  -11.2988  -46.0897 H         1 UNK         0.0600 
    188 H188        4.2131  -12.6842  -47.1584 H         1 UNK         0.0600 
    189 H189        1.3261  -13.4825  -47.3053 H         1 UNK         0.3000 
    190 H190       -2.5046  -21.2973  -44.8883 H         1 UNK         0.3000 
    191 H191       -3.7375  -21.2594  -47.3928 H         1 UNK         0.0600 
    192 H192       -4.4975  -19.8845  -45.5141 H         1 UNK         0.0600 
    193 H193       -5.8363  -20.8622  -46.0836 H         1 UNK         0.0600 
    194 H194       -4.9919  -21.3158  -44.6062 H         1 UNK         0.0600 
    195 H195       -3.2276  -24.0810  -45.4929 H         1 UNK         0.3000 
    196 H196       -5.4470  -25.6729  -46.4361 H         1 UNK         0.0600 
    197 H197       -4.0899  -27.5511  -45.5181 H         1 UNK         0.0600 
    198 H198       -4.1782  -26.2271  -44.3662 H         1 UNK         0.0600 
    199 H199       -2.7107  -26.4781  -45.3113 H         1 UNK         0.0600 
    200 H200       -2.4176  -24.6439  -47.8893 H         1 UNK         0.3000 
    201 H201       -3.0297  -25.9135  -50.4079 H         1 UNK         0.0600 
    202 H202       -1.9278  -27.8670  -49.3361 H         1 UNK         0.0600 
    203 H203       -0.5618  -26.8681  -48.8445 H         1 UNK         0.0600 
    204 H204       -0.8600  -27.1850  -50.5509 H         1 UNK         0.0600 
    205 H205       -3.2354  -23.4997  -50.3134 H         1 UNK         0.3000 
    206 H206       -1.1864  -21.7663  -49.6726 H         1 UNK         0.0600 
    207 H207       -3.4864  -21.0282  -49.7507 H         1 UNK         0.0600 
    208 H208       -2.6088  -20.0819  -50.9372 H         1 UNK         0.0600 
    209 H209       -3.6387  -21.3964  -51.4643 H         1 UNK         0.0600 
    210 H210        0.0016  -20.2193  -50.8347 H         1 UNK         0.3000 
    211 H211        1.5502  -21.3665  -52.9932 H         1 UNK         0.0600 
    212 H212        1.7671  -18.7062  -51.4924 H         1 UNK         0.0600 
    213 H213        2.9861  -19.3663  -52.5748 H         1 UNK         0.0600 
    214 H214        2.6023  -20.2000  -51.0785 H         1 UNK         0.0600 
    215 H215       -1.3433  -19.6814  -53.1767 H         1 UNK         0.3000 
    216 H216       -0.8630  -18.8918  -55.9503 H         1 UNK         0.0600 
    217 H217       -0.3831  -16.7738  -54.7062 H         1 UNK         0.0600 
    218 H218       -1.9272  -16.9049  -53.8602 H         1 UNK         0.0600 
    219 H219       -1.8823  -16.6243  -55.5943 H         1 UNK         0.0600 
    220 H220       -3.0751  -18.0427  -56.8005 H         1 UNK         0.3000 
    221 H221       -5.1184  -18.5075  -57.5038 H         1 UNK         0.0600 
    222 H222       -5.7819  -19.0891  -54.5686 H         1 UNK         0.0600 
    223 H223       -5.6964  -17.4782  -55.2768 H         1 UNK         0.0600 
    224 H224       -6.9162  -18.6165  -55.8244 H         1 UNK         0.0600 
    225 H225       -3.2569  -20.6967  -57.6181 H         1 UNK         0.3000 
    226 H226       -3.0090  -22.8729  -57.9891 H         1 UNK         0.0600 
    227 H227       -6.0219  -22.9578  -58.5486 H         1 UNK         0.0600 
    228 H228       -4.7898  -22.4715  -59.7121 H         1 UNK         0.0600 
    229 H229       -4.8207  -24.1164  -59.1003 H         1 UNK         0.0600 
    230 H230       -3.4555  -21.9963  -55.2961 H         1 UNK         0.3000 
    231 H231       -3.4088  -22.7262  -53.2651 H         1 UNK         0.0600 
    232 H232       -3.9770  -25.5851  -54.1945 H         1 UNK         0.0600 
    233 H233       -3.3873  -25.0923  -52.6201 H         1 UNK         0.0600 
    234 H234       -2.3748  -24.8602  -54.0324 H         1 UNK         0.0600 
    235 H235       -6.1408  -22.4281  -55.0134 H         1 UNK         0.3000 
    236 H236       -8.1186  -23.7067  -53.4310 H         1 UNK         0.0600 
    237 H237       -8.4513  -21.3016  -55.2935 H         1 UNK         0.0600 
    238 H238       -8.4070  -22.9834  -55.8273 H         1 UNK         0.0600 
    239 H239       -9.7048  -22.4210  -54.7840 H         1 UNK         0.0600 
    240 H240       -6.4245  -20.6938  -52.8979 H         1 UNK         0.3000 
    241 H241       -8.3831  -19.7059  -50.9596 H         1 UNK         0.0600 
    242 H242       -6.2519  -22.3005  -50.6950 H         1 UNK         0.3800 
    243 H243       -6.0208  -22.1984  -48.9660 H         1 UNK         0.3800 
    244 H244       -7.0170  -17.7892  -50.6497 H         1 UNK         0.0800 
    245 H245       -7.1759  -18.0770  -52.3500 H         1 UNK         0.0800 
    246 H246       -4.9713  -17.8869  -49.3083 H         1 UNK         0.0800 
    247 H247       -4.7501  -16.4578  -50.2896 H         1 UNK         0.0800 
@<TRIPOS>BOND
     1    1    2 1    
     2    1  127 1    
     3    1  128 1    
     4    1  129 1    
     5    2    3 2    
     6    2    4 am   BACKBONE|DICT|INTERRES
     7    4    5 1    
     8    4  130 1    
     9    5    6 1    
    10    5   65 1    
    11    5  131 1    
    12    6    7 1    
    13    6  132 1    
    14    6  133 1    
    15    7    8 1    
    16    8    9 1    
    17    8  134 1    
    18    8  135 1    
    19    9   10 ar   
    20    9   14 ar   
    21   10   11 ar   
    22   10  136 1    
    23   11   12 ar   
    24   11  126 1    
    25   12   13 ar   
    26   12  137 1    
    27   13   14 ar   
    28   13   15 1    
    29   14  138 1    
    30   15   16 1    
    31   15  139 1    
    32   15  140 1    
    33   16   17 1    
    34   17   18 1    
    35   17  141 1    
    36   17  142 1    
    37   18   19 1    
    38   18   67 1    
    39   18  143 1    
    40   19   20 am   BACKBONE|DICT|INTERRES
    41   19  144 1    
    42   20   21 2    
    43   20   22 1    
    44   22   23 1    
    45   22   24 1    
    46   22  145 1    
    47   23  146 1    
    48   23  147 1    
    49   23  148 1    
    50   24   25 am   BACKBONE|DICT|INTERRES
    51   24  149 1    
    52   25   26 2    
    53   25   27 1    
    54   27   28 1    
    55   27   29 1    
    56   27  150 1    
    57   28  151 1    
    58   28  152 1    
    59   28  153 1    
    60   29   30 am   BACKBONE|DICT|INTERRES
    61   29  154 1    
    62   30   31 2    
    63   30   32 1    
    64   32   33 1    
    65   32   34 1    
    66   32  155 1    
    67   33  156 1    
    68   33  157 1    
    69   33  158 1    
    70   34   35 am   BACKBONE|DICT|INTERRES
    71   34  159 1    
    72   35   36 2    
    73   35   37 1    
    74   37   38 1    
    75   37   39 1    
    76   37  160 1    
    77   38  161 1    
    78   38  162 1    
    79   38  163 1    
    80   39   40 am   BACKBONE|DICT|INTERRES
    81   39  164 1    
    82   40   41 2    
    83   40   42 1    
    84   42   43 1    
    85   42   44 1    
    86   42  165 1    
    87   43  166 1    
    88   43  167 1    
    89   43  168 1    
    90   44   45 am   BACKBONE|DICT|INTERRES
    91   44  169 1    
    92   45   46 2    
    93   45   47 1    
    94   47   48 1    
    95   47   49 1    
    96   47  170 1    
    97   48  171 1    
    98   48  172 1    
    99   48  173 1    
   100   49   50 am   BACKBONE|DICT|INTERRES
   101   49  174 1    
   102   50   51 2    
   103   50   52 1    
   104   52   53 1    
   105   52   54 1    
   106   52  175 1    
   107   53  176 1    
   108   53  177 1    
   109   53  178 1    
   110   54   55 am   BACKBONE|DICT|INTERRES
   111   54  179 1    
   112   55   56 2    
   113   55   57 1    
   114   57   58 1    
   115   57   59 1    
   116   57  180 1    
   117   58  181 1    
   118   58  182 1    
   119   58  183 1    
   120   59   60 am   BACKBONE|DICT|INTERRES
   121   59  184 1    
   122   60   61 2    
   123   60   62 1    
   124   62   63 1    
   125   62   64 1    
   126   62  185 1    
   127   63  186 1    
   128   63  187 1    
   129   63  188 1    
   130   64   65 am   BACKBONE|DICT|INTERRES
   131   64  189 1    
   132   65   66 2    
   133   67   68 2    
   134   67   69 am   BACKBONE|DICT|INTERRES
   135   69   70 1    
   136   69  190 1    
   137   70   71 1    
   138   70   72 1    
   139   70  191 1    
   140   71  192 1    
   141   71  193 1    
   142   71  194 1    
   143   72   73 2    
   144   72   74 am   BACKBONE|DICT|INTERRES
   145   74   75 1    
   146   74  195 1    
   147   75   76 1    
   148   75   77 1    
   149   75  196 1    
   150   76  197 1    
   151   76  198 1    
   152   76  199 1    
   153   77   78 2    
   154   77   79 am   BACKBONE|DICT|INTERRES
   155   79   80 1    
   156   79  200 1    
   157   80   81 1    
   158   80   82 1    
   159   80  201 1    
   160   81  202 1    
   161   81  203 1    
   162   81  204 1    
   163   82   83 2    
   164   82   84 am   BACKBONE|DICT|INTERRES
   165   84   85 1    
   166   84  205 1    
   167   85   86 1    
   168   85   87 1    
   169   85  206 1    
   170   86  207 1    
   171   86  208 1    
   172   86  209 1    
   173   87   88 2    
   174   87   89 am   BACKBONE|DICT|INTERRES
   175   89   90 1    
   176   89  210 1    
   177   90   91 1    
   178   90   92 1    
   179   90  211 1    
   180   91  212 1    
   181   91  213 1    
   182   91  214 1    
   183   92   93 2    
   184   92   94 am   BACKBONE|DICT|INTERRES
   185   94   95 1    
   186   94  215 1    
   187   95   96 1    
   188   95   97 1    
   189   95  216 1    
   190   96  217 1    
   191   96  218 1    
   192   96  219 1    
   193   97   98 2    
   194   97   99 am   BACKBONE|DICT|INTERRES
   195   99  100 1    
   196   99  220 1    
   197  100  101 1    
   198  100  102 1    
   199  100  221 1    
   200  101  222 1    
   201  101  223 1    
   202  101  224 1    
   203  102  103 2    
   204  102  104 am   BACKBONE|DICT|INTERRES
   205  104  105 1    
   206  104  225 1    
   207  105  106 1    
   208  105  107 1    
   209  105  226 1    
   210  106  227 1    
   211  106  228 1    
   212  106  229 1    
   213  107  108 2    
   214  107  109 am   BACKBONE|DICT|INTERRES
   215  109  110 1    
   216  109  230 1    
   217  110  111 1    
   218  110  112 1    
   219  110  231 1    
   220  111  232 1    
   221  111  233 1    
   222  111  234 1    
   223  112  113 2    
   224  112  114 am   BACKBONE|DICT|INTERRES
   225  114  115 1    
   226  114  235 1    
   227  115  116 1    
   228  115  117 1    
   229  115  236 1    
   230  116  237 1    
   231  116  238 1    
   232  116  239 1    
   233  117  118 2    
   234  117  119 am   BACKBONE|DICT|INTERRES
   235  119  120 1    
   236  119  240 1    
   237  120  121 1    
   238  120  124 1    
   239  120  241 1    
   240  121  122 am   BACKBONE|DICT|INTERRES
   241  121  123 2    
   242  122  242 1    
   243  122  243 1    
   244  124  125 1    
   245  124  244 1    
   246  124  245 1    
   247  125  126 1    
   248  126  246 1    
   249  126  247 1    
@<TRIPOS>SUBSTRUCTURE
     1 UNK         1 GROUP             0       ****    0 ROOT    
