@<TRIPOS>MOLECULE
3R540
247   249    1
SMALL
USER_CHARGES


@<TRIPOS>ATOM
      1 CA         -2.0758   -8.8265  -44.4315 C.3       0 UNK        -0.1800 
      2 C          -2.1954   -9.2063  -45.9006 C.2       0 UNK         0.5000 
      3 O          -1.3951   -8.7512  -46.7180 O.2       0 UNK        -0.5000 
      4 N          -3.1927  -10.0350  -46.2387 N.am      1 UNK        -0.5000 
      5 CA         -3.4372  -10.5435  -47.5958 C.3       1 UNK         0.1400 
      6 C6         -4.8733  -11.1090  -47.7262 C.3       23 UNK        -0.0398 
      7 S7         -5.4648  -11.1213  -49.4525 S.3       23 UNK        -0.2404 
      8 C8         -6.3739  -12.6979  -49.5314 C.3       23 UNK        -0.0205 
      9 C9         -5.4858  -13.9178  -49.3203 C.ar      23 UNK        -0.0193 
     10 C10        -4.4265  -14.1851  -50.1918 C.ar      23 UNK        -0.1150 
     11 C11        -3.6370  -15.3260  -50.0225 C.ar      23 UNK        -0.0193 
     12 C12        -3.9233  -16.2155  -48.9834 C.ar      23 UNK        -0.1150 
     13 C13        -4.9745  -15.9549  -48.0999 C.ar      23 UNK        -0.0193 
     14 C14        -5.7473  -14.8024  -48.2703 C.ar      23 UNK        -0.1150 
     15 C15        -5.3043  -16.9294  -46.9813 C.3       23 UNK        -0.0205 
     16 S16        -4.2305  -16.7006  -45.5269 S.3       23 UNK        -0.2404 
     17 C17        -2.7637  -17.7282  -45.9139 C.3       23 UNK        -0.0398 
     18 CA         -3.0060  -19.2353  -46.2005 C.3       11 UNK         0.1400 
     19 N          -1.7441  -19.9765  -46.3088 N.am      11 UNK        -0.5000 
     20 C          -1.6293  -21.2560  -46.6951 C.2       10 UNK         0.5000 
     21 O          -2.5839  -21.9550  -47.0296 O.2       10 UNK        -0.5000 
     22 CA         -0.2264  -21.8818  -46.6682 C.3       10 UNK         0.1400 
     23 CB          0.5939  -21.4345  -47.8866 C.3       10 UNK        -0.1800 
     24 N           0.4887  -21.5768  -45.4300 N.am      10 UNK        -0.5000 
     25 C           0.1022  -21.9940  -44.2146 C.2       9 UNK         0.5000 
     26 O          -0.8573  -22.7405  -44.0218 O.2       9 UNK        -0.5000 
     27 CA          0.8847  -21.4445  -43.0078 C.3       9 UNK         0.1400 
     28 CB          2.1981  -22.2141  -42.8054 C.3       9 UNK        -0.1800 
     29 N           1.1672  -20.0142  -43.1274 N.am      9 UNK        -0.5000 
     30 C           0.2348  -19.0529  -43.1943 C.2       8 UNK         0.5000 
     31 O          -0.9754  -19.2600  -43.1118 O.2       8 UNK        -0.5000 
     32 CA          0.7412  -17.6271  -43.4595 C.3       8 UNK         0.1400 
     33 CB          1.2486  -16.9724  -42.1651 C.3       8 UNK        -0.1800 
     34 N           1.7874  -17.6186  -44.4813 N.am      8 UNK        -0.5000 
     35 C           1.5718  -17.8703  -45.7800 C.2       7 UNK         0.5000 
     36 O           0.4594  -18.1010  -46.2542 O.2       7 UNK        -0.5000 
     37 CA          2.8079  -17.9332  -46.6951 C.3       7 UNK         0.1400 
     38 CB          3.1783  -16.5445  -47.2281 C.3       7 UNK        -0.1800 
     39 N           3.9675  -18.5255  -46.0287 N.am      7 UNK        -0.5000 
     40 C           4.0586  -19.8240  -45.7115 C.2       6 UNK         0.5000 
     41 O           3.1886  -20.6521  -45.9776 O.2       6 UNK        -0.5000 
     42 CA          5.3075  -20.2684  -44.9290 C.3       6 UNK         0.1400 
     43 CB          6.4436  -20.6391  -45.8934 C.3       6 UNK        -0.1800 
     44 N           5.7923  -19.2723  -43.9711 N.am      6 UNK        -0.5000 
     45 C           5.0870  -18.7801  -42.9435 C.2       5 UNK         0.5000 
     46 O           3.9166  -19.0890  -42.7152 O.2       5 UNK        -0.5000 
     47 CA          5.7941  -17.7835  -42.0033 C.3       5 UNK         0.1400 
     48 CB          7.3114  -17.6338  -42.2602 C.3       5 UNK        -0.1800 
     49 N           5.1460  -16.4682  -41.9917 N.am      5 UNK        -0.5000 
     50 C           4.9845  -15.6321  -43.0275 C.2       4 UNK         0.5000 
     51 O           5.3027  -15.9043  -44.1885 O.2       4 UNK        -0.5000 
     52 CA          4.4124  -14.2415  -42.6710 C.3       4 UNK         0.1400 
     53 CB          5.4090  -13.4496  -41.8062 C.3       4 UNK        -0.1800 
     54 N           4.0880  -13.4290  -43.8445 N.am      4 UNK        -0.5000 
     55 C           3.0620  -13.6530  -44.6722 C.2       3 UNK         0.5000 
     56 O           2.2444  -14.5591  -44.5059 O.2       3 UNK        -0.5000 
     57 CA          2.9432  -12.7036  -45.8845 C.3       3 UNK         0.1400 
     58 CB          4.1719  -12.8026  -46.8067 C.3       3 UNK        -0.1800 
     59 N           1.7437  -12.9720  -46.6795 N.am      3 UNK        -0.5000 
     60 C           0.4990  -12.6472  -46.3129 C.2       2 UNK         0.5000 
     61 O           0.2257  -11.9945  -45.3006 O.2       2 UNK        -0.5000 
     62 CA         -0.6267  -13.1534  -47.2274 C.3       2 UNK         0.1400 
     63 CB         -1.0286  -14.5876  -46.8485 C.3       2 UNK        -0.1800 
     64 N          -1.7830  -12.2796  -47.0678 N.am      2 UNK        -0.5000 
     65 C          -2.3623  -11.5652  -48.0394 C.2       1 UNK         0.5000 
     66 O          -2.0536  -11.6521  -49.2289 O.2       1 UNK        -0.5000 
     67 C          -3.9826  -19.9044  -45.2073 C.2       11 UNK         0.5000 
     68 O          -5.1461  -20.1113  -45.5553 O.2       11 UNK        -0.5000 
     69 N          -3.4807  -20.3043  -44.0300 N.am      12 UNK        -0.5000 
     70 CA         -4.2275  -21.0492  -43.0107 C.3       12 UNK         0.1400 
     71 CB         -3.3546  -21.1992  -41.7558 C.3       12 UNK        -0.1800 
     72 C          -4.7284  -22.4279  -43.4909 C.2       12 UNK         0.5000 
     73 O          -5.7444  -22.9124  -42.9923 O.2       12 UNK        -0.5000 
     74 N          -4.0300  -23.0115  -44.4721 N.am      13 UNK        -0.5000 
     75 CA         -4.3824  -24.2522  -45.1574 C.3       13 UNK         0.1400 
     76 CB         -3.0877  -25.0374  -45.4319 C.3       13 UNK        -0.1800 
     77 C          -5.1885  -24.0089  -46.4530 C.2       13 UNK         0.5000 
     78 O          -5.2831  -24.9227  -47.2713 O.2       13 UNK        -0.5000 
     79 N          -5.7439  -22.8001  -46.6379 N.am      14 UNK        -0.5000 
     80 CA         -6.5465  -22.3561  -47.7855 C.3       14 UNK         0.1400 
     81 CB         -7.8624  -23.1565  -47.8857 C.3       14 UNK        -0.1800 
     82 C          -5.7375  -22.3534  -49.0980 C.2       14 UNK         0.5000 
     83 O          -6.1366  -22.9752  -50.0841 O.2       14 UNK        -0.5000 
     84 N          -4.5794  -21.6803  -49.0563 N.am      15 UNK        -0.5000 
     85 CA         -3.5516  -21.6107  -50.1021 C.3       15 UNK         0.1400 
     86 CB         -4.0657  -20.8500  -51.3401 C.3       15 UNK        -0.1800 
     87 C          -2.9736  -23.0039  -50.4247 C.2       15 UNK         0.5000 
     88 O          -2.7838  -23.3463  -51.5952 O.2       15 UNK        -0.5000 
     89 N          -2.7401  -23.7800  -49.3545 N.am      16 UNK        -0.5000 
     90 CA         -2.3268  -25.1861  -49.3316 C.3       16 UNK         0.1400 
     91 CB         -0.8686  -25.3250  -49.8113 C.3       16 UNK        -0.1800 
     92 C          -3.3084  -26.0812  -50.1137 C.2       16 UNK         0.5000 
     93 O          -2.9064  -26.7611  -51.0563 O.2       16 UNK        -0.5000 
     94 N          -4.5968  -26.0072  -49.7498 N.am      17 UNK        -0.5000 
     95 CA         -5.7439  -26.6321  -50.4220 C.3       17 UNK         0.1400 
     96 CB         -5.7296  -28.1591  -50.2054 C.3       17 UNK        -0.1800 
     97 C          -5.8434  -26.2326  -51.9116 C.2       17 UNK         0.5000 
     98 O          -6.1310  -27.0714  -52.7672 O.2       17 UNK        -0.5000 
     99 N          -5.5501  -24.9532  -52.1818 N.am      18 UNK        -0.5000 
    100 CA        -5.4155  -24.3035  -53.4874 C.3       18 UNK         0.1400 
    101 CB        -6.7668  -24.2848  -54.2305 C.3       18 UNK        -0.1800 
    102 C         -4.2648  -24.8390  -54.3714 C.2       18 UNK         0.5000 
    103 O         -4.2151  -24.4878  -55.5510 O.2       18 UNK        -0.5000 
    104 N         -3.3498  -25.6517  -53.8196 N.am      19 UNK        -0.5000 
    105 CA        -2.2057  -26.1989  -54.5523 C.3       19 UNK         0.1400 
    106 CB        -1.7161  -27.4926  -53.8848 C.3       19 UNK        -0.1800 
    107 C         -1.0519  -25.1900  -54.6777 C.2       19 UNK         0.5000 
    108 O         -0.3504  -25.2109  -55.6902 O.2       19 UNK        -0.5000 
    109 N         -0.8726  -24.3242  -53.6680 N.am      20 UNK        -0.5000 
    110 CA         0.1098  -23.2382  -53.7071 C.3       20 UNK         0.1400 
    111 CB         0.5355  -22.8450  -52.2834 C.3       20 UNK        -0.1800 
    112 C         -0.4429  -22.0221  -54.4656 C.2       20 UNK         0.5000 
    113 O          0.3167  -21.3493  -55.1634 O.2       20 UNK        -0.5000 
    114 N         -1.7536  -21.7685  -54.3134 N.am      21 UNK        -0.5000 
    115 CA        -2.5476  -20.7457  -55.0109 C.3       21 UNK         0.1400 
    116 CB        -2.7536  -21.1588  -56.4826 C.3       21 UNK        -0.1800 
    117 C         -1.9866  -19.3109  -54.8736 C.2       21 UNK         0.5000 
    118 O         -2.1008  -18.5131  -55.8058 O.2       21 UNK        -0.5000 
    119 N         -1.3675  -19.0269  -53.7189 N.am      22 UNK        -0.5000 
    120 CA        -0.6369  -17.7871  -53.3958 C.3       22 UNK         0.1400 
    121 C          0.7039  -17.6015  -54.1746 C.2       22 UNK         0.5000 
    122 N          1.2305  -18.6084  -54.8619 N.am      22 UNK        -0.7600 
    123 O          1.3041  -16.5310  -54.1300 O.2       22 UNK        -0.5000 
    124 C124       -1.5220  -16.5079  -53.4410 C.3       23 UNK        -0.0398 
    125 S125       -3.0006  -16.6127  -52.3752 S.3       23 UNK        -0.2404 
    126 C126       -2.4764  -15.5930  -50.9644 C.3       23 UNK        -0.0205 
    127 H127       -2.8719   -9.2682  -43.8317 H         1 UNK         0.0600 
    128 H128       -2.1251   -7.7436  -44.3176 H         1 UNK         0.0600 
    129 H129       -1.1204   -9.1700  -44.0343 H         1 UNK         0.0600 
    130 H130       -3.8236  -10.3647  -45.5217 H         1 UNK         0.3000 
    131 H131       -3.3546   -9.6863  -48.2681 H         1 UNK         0.0600 
    132 H132       -4.9430  -12.1030  -47.2816 H         1 UNK         0.0800 
    133 H133       -5.5720  -10.4848  -47.1673 H         1 UNK         0.0800 
    134 H134       -7.1839  -12.6736  -48.8006 H         1 UNK         0.0800 
    135 H135       -6.8492  -12.7781  -50.5099 H         1 UNK         0.0800 
    136 H136       -4.2167  -13.5018  -51.0029 H         1 UNK         0.1150 
    137 H137       -3.3272  -17.1088  -48.8650 H         1 UNK         0.1150 
    138 H138       -6.5669  -14.6043  -47.5938 H         1 UNK         0.1150 
    139 H139       -6.3369  -16.7840  -46.6607 H         1 UNK         0.0800 
    140 H140       -5.2613  -17.9525  -47.3517 H         1 UNK         0.0800 
    141 H141       -2.0896  -17.6285  -45.0632 H         1 UNK         0.0800 
    142 H142       -2.2352  -17.2778  -46.7536 H         1 UNK         0.0800 
    143 H143       -3.4695  -19.3054  -47.1855 H         1 UNK         0.0600 
    144 H144       -0.8994  -19.4534  -46.0941 H         1 UNK         0.3000 
    145 H145       -0.3466  -22.9657  -46.7254 H         1 UNK         0.0600 
    146 H146        1.5623  -21.9344  -47.9129 H         1 UNK         0.0600 
    147 H147        0.0779  -21.6790  -48.8162 H         1 UNK         0.0600 
    148 H148        0.7732  -20.3593  -47.8814 H         1 UNK         0.0600 
    149 H149        1.3345  -21.0209  -45.5161 H         1 UNK         0.3000 
    150 H150        0.2668  -21.5858  -42.1187 H         1 UNK         0.0600 
    151 H151        2.0071  -23.2776  -42.6574 H         1 UNK         0.0600 
    152 H152        2.7357  -21.8535  -41.9281 H         1 UNK         0.0600 
    153 H153        2.8595  -22.1167  -43.6660 H         1 UNK         0.0600 
    154 H154        2.1450  -19.7394  -43.1614 H         1 UNK         0.3000 
    155 H155       -0.0971  -17.0320  -43.8270 H         1 UNK         0.0600 
    156 H156        0.4682  -16.9665  -41.4034 H         1 UNK         0.0600 
    157 H157        1.5384  -15.9365  -42.3351 H         1 UNK         0.0600 
    158 H158        2.1070  -17.4969  -41.7471 H         1 UNK         0.0600 
    159 H159        2.7337  -17.4657  -44.1652 H         1 UNK         0.3000 
    160 H160        2.5468  -18.5592  -47.5511 H         1 UNK         0.0600 
    161 H161        3.5741  -15.9141  -46.4341 H         1 UNK         0.0600 
    162 H162        2.3112  -16.0399  -47.6558 H         1 UNK         0.0600 
    163 H163        3.9365  -16.6120  -48.0083 H         1 UNK         0.0600 
    164 H164        4.7044  -17.8968  -45.7379 H         1 UNK         0.3000 
    165 H165        5.0376  -21.1621  -44.3632 H         1 UNK         0.0600 
    166 H166        7.2999  -21.0479  -45.3566 H         1 UNK         0.0600 
    167 H167        6.1178  -21.3968  -46.6076 H         1 UNK         0.0600 
    168 H168        6.7853  -19.7749  -46.4644 H         1 UNK         0.0600 
    169 H169        6.7410  -18.9505  -44.0963 H         1 UNK         0.3000 
    170 H170        5.6749  -18.1911  -40.9984 H         1 UNK         0.0600 
    171 H171        7.8217  -18.5952  -42.1866 H         1 UNK         0.0600 
    172 H172        7.5269  -17.2142  -43.2435 H         1 UNK         0.0600 
    173 H173        7.7659  -16.9767  -41.5186 H         1 UNK         0.0600 
    174 H174        4.8225  -16.1650  -41.0840 H         1 UNK         0.3000 
    175 H175        3.4967  -14.3921  -42.0957 H         1 UNK         0.0600 
    176 H176        6.3534  -13.2891  -42.3280 H         1 UNK         0.0600 
    177 H177        5.0064  -12.4735  -41.5343 H         1 UNK         0.0600 
    178 H178        5.6343  -13.9712  -40.8754 H         1 UNK         0.0600 
    179 H179        4.7376  -12.6888  -44.0643 H         1 UNK         0.3000 
    180 H180        2.8834  -11.6831  -45.5002 H         1 UNK         0.0600 
    181 H181        4.2949  -13.8050  -47.2159 H         1 UNK         0.0600 
    182 H182        5.0912  -12.5518  -46.2767 H         1 UNK         0.0600 
    183 H183        4.0895  -12.1098  -47.6444 H         1 UNK         0.0600 
    184 H184        1.8774  -13.5326  -47.5074 H         1 UNK         0.3000 
    185 H185       -0.2697  -13.1437  -48.2593 H         1 UNK         0.0600 
    186 H186       -0.1919  -15.2773  -46.9665 H         1 UNK         0.0600 
    187 H187       -1.3640  -14.6542  -45.8126 H         1 UNK         0.0600 
    188 H188       -1.8380  -14.9441  -47.4842 H         1 UNK         0.0600 
    189 H189       -2.0251  -12.0681  -46.1098 H         1 UNK         0.3000 
    190 H190       -2.5178  -20.0671  -43.8001 H         1 UNK         0.3000 
    191 H191       -5.1060  -20.4569  -42.7472 H         1 UNK         0.0600 
    192 H192       -2.4433  -21.7597  -41.9660 H         1 UNK         0.0600 
    193 H193       -3.0643  -20.2262  -41.3589 H         1 UNK         0.0600 
    194 H194       -3.8907  -21.7262  -40.9656 H         1 UNK         0.0600 
    195 H195       -3.2043  -22.5389  -44.8177 H         1 UNK         0.3000 
    196 H196       -5.0102  -24.8641  -44.5071 H         1 UNK         0.0600 
    197 H197       -2.5496  -25.2392  -44.5056 H         1 UNK         0.0600 
    198 H198       -2.4150  -24.4872  -46.0894 H         1 UNK         0.0600 
    199 H199       -3.2967  -26.0007  -45.8986 H         1 UNK         0.0600 
    200 H200       -5.5627  -22.0831  -45.9439 H         1 UNK         0.3000 
    201 H201       -6.8125  -21.3166  -47.5885 H         1 UNK         0.0600 
    202 H202       -8.5066  -22.7470  -48.6645 H         1 UNK         0.0600 
    203 H203       -8.4194  -23.1169  -46.9497 H         1 UNK         0.0600 
    204 H204       -7.6879  -24.2051  -48.1282 H         1 UNK         0.0600 
    205 H205       -4.2919  -21.3187  -48.1559 H         1 UNK         0.3000 
    206 H206       -2.7263  -21.0309  -49.6867 H         1 UNK         0.0600 
    207 H207       -4.4397  -19.8632  -51.0667 H         1 UNK         0.0600 
    208 H208       -4.8701  -21.3836  -51.8451 H         1 UNK         0.0600 
    209 H209       -3.2641  -20.6996  -52.0612 H         1 UNK         0.0600 
    210 H210       -2.9208  -23.3624  -48.4477 H         1 UNK         0.3000 
    211 H211       -2.3675  -25.5124  -48.2926 H         1 UNK         0.0600 
    212 H212       -0.2033  -24.6659  -49.2534 H         1 UNK         0.0600 
    213 H213       -0.5102  -26.3455  -49.6728 H         1 UNK         0.0600 
    214 H214       -0.7681  -25.0878  -50.8694 H         1 UNK         0.0600 
    215 H215       -4.8335  -25.4475  -48.9312 H         1 UNK         0.3000 
    216 H216       -6.6365  -26.2340  -49.9371 H         1 UNK         0.0600 
    217 H217       -6.6377  -28.6182  -50.5974 H         1 UNK         0.0600 
    218 H218       -4.8823  -28.6307  -50.7041 H         1 UNK         0.0600 
    219 H219       -5.6741  -28.4049  -49.1450 H         1 UNK         0.0600 
    220 H220       -5.3853  -24.3420  -51.3878 H         1 UNK         0.3000 
    221 H221       -5.1529  -23.2684  -53.2696 H         1 UNK         0.0600 
    222 H222       -7.0679  -25.2828  -54.5495 H         1 UNK         0.0600 
    223 H223       -7.5577  -23.8803  -53.5986 H         1 UNK         0.0600 
    224 H224       -6.7163  -23.6593  -55.1224 H         1 UNK         0.0600 
    225 H225       -3.4245  -25.9028  -52.8391 H         1 UNK         0.3000 
    226 H226       -2.5341  -26.4580  -55.5613 H         1 UNK         0.0600 
    227 H227       -2.5384  -28.1864  -53.7088 H         1 UNK         0.0600 
    228 H228       -0.9888  -28.0015  -54.5184 H         1 UNK         0.0600 
    229 H229       -1.2281  -27.2965  -52.9299 H         1 UNK         0.0600 
    230 H230       -1.5192  -24.3324  -52.8860 H         1 UNK         0.3000 
    231 H231        1.0037  -23.5803  -54.2332 H         1 UNK         0.0600 
    232 H232        1.2865  -22.0544  -52.3092 H         1 UNK         0.0600 
    233 H233        0.9786  -23.6903  -51.7575 H         1 UNK         0.0600 
    234 H234       -0.2999  -22.4771  -51.6895 H         1 UNK         0.0600 
    235 H235       -2.2677  -22.3710  -53.6839 H         1 UNK         0.3000 
    236 H236       -3.5279  -20.7356  -54.5329 H         1 UNK         0.0600 
    237 H237       -3.1653  -22.1650  -56.5561 H         1 UNK         0.0600 
    238 H238       -3.4506  -20.4885  -56.9867 H         1 UNK         0.0600 
    239 H239       -1.8168  -21.1400  -57.0406 H         1 UNK         0.0600 
    240 H240       -1.3101  -19.7567  -53.0256 H         1 UNK         0.3000 
    241 H241       -0.3226  -17.9116  -52.3591 H         1 UNK         0.0600 
    242 H242        2.1022  -18.4662  -55.3465 H         1 UNK         0.3800 
    243 H243        0.7725  -19.5137  -54.9224 H         1 UNK         0.3800 
    244 H244       -0.9418  -15.6325  -53.1458 H         1 UNK         0.0800 
    245 H245       -1.8513  -16.3046  -54.4602 H         1 UNK         0.0800 
    246 H246       -1.6660  -16.0942  -50.4326 H         1 UNK         0.0800 
    247 H247       -2.0727  -14.6440  -51.3215 H         1 UNK         0.0800 
@<TRIPOS>BOND
     1    1    2 1    
     2    1  127 1    
     3    1  128 1    
     4    1  129 1    
     5    2    3 2    
     6    2    4 am   BACKBONE|DICT|INTERRES
     7    4    5 1    
     8    4  130 1    
     9    5    6 1    
    10    5   65 1    
    11    5  131 1    
    12    6    7 1    
    13    6  132 1    
    14    6  133 1    
    15    7    8 1    
    16    8    9 1    
    17    8  134 1    
    18    8  135 1    
    19    9   10 ar   
    20    9   14 ar   
    21   10   11 ar   
    22   10  136 1    
    23   11   12 ar   
    24   11  126 1    
    25   12   13 ar   
    26   12  137 1    
    27   13   14 ar   
    28   13   15 1    
    29   14  138 1    
    30   15   16 1    
    31   15  139 1    
    32   15  140 1    
    33   16   17 1    
    34   17   18 1    
    35   17  141 1    
    36   17  142 1    
    37   18   19 1    
    38   18   67 1    
    39   18  143 1    
    40   19   20 am   BACKBONE|DICT|INTERRES
    41   19  144 1    
    42   20   21 2    
    43   20   22 1    
    44   22   23 1    
    45   22   24 1    
    46   22  145 1    
    47   23  146 1    
    48   23  147 1    
    49   23  148 1    
    50   24   25 am   BACKBONE|DICT|INTERRES
    51   24  149 1    
    52   25   26 2    
    53   25   27 1    
    54   27   28 1    
    55   27   29 1    
    56   27  150 1    
    57   28  151 1    
    58   28  152 1    
    59   28  153 1    
    60   29   30 am   BACKBONE|DICT|INTERRES
    61   29  154 1    
    62   30   31 2    
    63   30   32 1    
    64   32   33 1    
    65   32   34 1    
    66   32  155 1    
    67   33  156 1    
    68   33  157 1    
    69   33  158 1    
    70   34   35 am   BACKBONE|DICT|INTERRES
    71   34  159 1    
    72   35   36 2    
    73   35   37 1    
    74   37   38 1    
    75   37   39 1    
    76   37  160 1    
    77   38  161 1    
    78   38  162 1    
    79   38  163 1    
    80   39   40 am   BACKBONE|DICT|INTERRES
    81   39  164 1    
    82   40   41 2    
    83   40   42 1    
    84   42   43 1    
    85   42   44 1    
    86   42  165 1    
    87   43  166 1    
    88   43  167 1    
    89   43  168 1    
    90   44   45 am   BACKBONE|DICT|INTERRES
    91   44  169 1    
    92   45   46 2    
    93   45   47 1    
    94   47   48 1    
    95   47   49 1    
    96   47  170 1    
    97   48  171 1    
    98   48  172 1    
    99   48  173 1    
   100   49   50 am   BACKBONE|DICT|INTERRES
   101   49  174 1    
   102   50   51 2    
   103   50   52 1    
   104   52   53 1    
   105   52   54 1    
   106   52  175 1    
   107   53  176 1    
   108   53  177 1    
   109   53  178 1    
   110   54   55 am   BACKBONE|DICT|INTERRES
   111   54  179 1    
   112   55   56 2    
   113   55   57 1    
   114   57   58 1    
   115   57   59 1    
   116   57  180 1    
   117   58  181 1    
   118   58  182 1    
   119   58  183 1    
   120   59   60 am   BACKBONE|DICT|INTERRES
   121   59  184 1    
   122   60   61 2    
   123   60   62 1    
   124   62   63 1    
   125   62   64 1    
   126   62  185 1    
   127   63  186 1    
   128   63  187 1    
   129   63  188 1    
   130   64   65 am   BACKBONE|DICT|INTERRES
   131   64  189 1    
   132   65   66 2    
   133   67   68 2    
   134   67   69 am   BACKBONE|DICT|INTERRES
   135   69   70 1    
   136   69  190 1    
   137   70   71 1    
   138   70   72 1    
   139   70  191 1    
   140   71  192 1    
   141   71  193 1    
   142   71  194 1    
   143   72   73 2    
   144   72   74 am   BACKBONE|DICT|INTERRES
   145   74   75 1    
   146   74  195 1    
   147   75   76 1    
   148   75   77 1    
   149   75  196 1    
   150   76  197 1    
   151   76  198 1    
   152   76  199 1    
   153   77   78 2    
   154   77   79 am   BACKBONE|DICT|INTERRES
   155   79   80 1    
   156   79  200 1    
   157   80   81 1    
   158   80   82 1    
   159   80  201 1    
   160   81  202 1    
   161   81  203 1    
   162   81  204 1    
   163   82   83 2    
   164   82   84 am   BACKBONE|DICT|INTERRES
   165   84   85 1    
   166   84  205 1    
   167   85   86 1    
   168   85   87 1    
   169   85  206 1    
   170   86  207 1    
   171   86  208 1    
   172   86  209 1    
   173   87   88 2    
   174   87   89 am   BACKBONE|DICT|INTERRES
   175   89   90 1    
   176   89  210 1    
   177   90   91 1    
   178   90   92 1    
   179   90  211 1    
   180   91  212 1    
   181   91  213 1    
   182   91  214 1    
   183   92   93 2    
   184   92   94 am   BACKBONE|DICT|INTERRES
   185   94   95 1    
   186   94  215 1    
   187   95   96 1    
   188   95   97 1    
   189   95  216 1    
   190   96  217 1    
   191   96  218 1    
   192   96  219 1    
   193   97   98 2    
   194   97   99 am   BACKBONE|DICT|INTERRES
   195   99  100 1    
   196   99  220 1    
   197  100  101 1    
   198  100  102 1    
   199  100  221 1    
   200  101  222 1    
   201  101  223 1    
   202  101  224 1    
   203  102  103 2    
   204  102  104 am   BACKBONE|DICT|INTERRES
   205  104  105 1    
   206  104  225 1    
   207  105  106 1    
   208  105  107 1    
   209  105  226 1    
   210  106  227 1    
   211  106  228 1    
   212  106  229 1    
   213  107  108 2    
   214  107  109 am   BACKBONE|DICT|INTERRES
   215  109  110 1    
   216  109  230 1    
   217  110  111 1    
   218  110  112 1    
   219  110  231 1    
   220  111  232 1    
   221  111  233 1    
   222  111  234 1    
   223  112  113 2    
   224  112  114 am   BACKBONE|DICT|INTERRES
   225  114  115 1    
   226  114  235 1    
   227  115  116 1    
   228  115  117 1    
   229  115  236 1    
   230  116  237 1    
   231  116  238 1    
   232  116  239 1    
   233  117  118 2    
   234  117  119 am   BACKBONE|DICT|INTERRES
   235  119  120 1    
   236  119  240 1    
   237  120  121 1    
   238  120  124 1    
   239  120  241 1    
   240  121  122 am   BACKBONE|DICT|INTERRES
   241  121  123 2    
   242  122  242 1    
   243  122  243 1    
   244  124  125 1    
   245  124  244 1    
   246  124  245 1    
   247  125  126 1    
   248  126  246 1    
   249  126  247 1    
@<TRIPOS>SUBSTRUCTURE
     1 UNK         1 GROUP             0       ****    0 ROOT    
