@<TRIPOS>MOLECULE
3R540
247   249    1
SMALL
USER_CHARGES


@<TRIPOS>ATOM
      1 CA          5.6426  -13.4630  -50.7581 C.3       0 UNK        -0.1800 
      2 C           5.5056  -14.0161  -49.3466 C.2       0 UNK         0.5000 
      3 O           6.4764  -14.5360  -48.7965 O.2       0 UNK        -0.5000 
      4 N           4.3044  -13.9079  -48.7638 N.am      1 UNK        -0.5000 
      5 CA          3.9829  -14.3665  -47.4068 C.3       1 UNK         0.1400 
      6 C6          2.4537  -14.3850  -47.1633 C.3       23 UNK        -0.0398 
      7 S7          1.6900  -15.9413  -47.7109 S.3       23 UNK        -0.2404 
      8 C8          0.8122  -15.4410  -49.2228 C.3       23 UNK        -0.0205 
      9 C9         -0.1235  -16.5491  -49.6804 C.ar      23 UNK        -0.0193 
     10 C10        -1.5110  -16.3714  -49.6409 C.ar      23 UNK        -0.1150 
     11 C11        -2.3661  -17.4134  -50.0122 C.ar      23 UNK        -0.0193 
     12 C12        -1.8268  -18.6390  -50.4039 C.ar      23 UNK        -0.1150 
     13 C13        -0.4458  -18.8296  -50.4483 C.ar      23 UNK        -0.0193 
     14 C14         0.4021  -17.7718  -50.1101 C.ar      23 UNK        -0.1150 
     15 C15         0.1123  -20.1973  -50.8134 C.3       23 UNK        -0.0205 
     16 S16         1.2281  -20.8775  -49.5398 S.3       23 UNK        -0.2404 
     17 C17         0.2943  -20.6389  -47.9882 C.3       23 UNK        -0.0398 
     18 CA         -0.0732  -21.9674  -47.2838 C.3       11 UNK         0.1400 
     19 N           0.0982  -21.8560  -45.8287 N.am      11 UNK        -0.5000 
     20 C          -0.0122  -22.8527  -44.9392 C.2       10 UNK         0.5000 
     21 O          -0.3002  -24.0104  -45.2418 O.2       10 UNK        -0.5000 
     22 CA          0.1747  -22.4764  -43.4599 C.3       10 UNK         0.1400 
     23 CB          1.6604  -22.2985  -43.1120 C.3       10 UNK        -0.1800 
     24 N          -0.5660  -21.2578  -43.1339 N.am      10 UNK        -0.5000 
     25 C          -1.8923  -21.2242  -42.9422 C.2       9 UNK         0.5000 
     26 O          -2.5985  -22.2319  -42.9081 O.2       9 UNK        -0.5000 
     27 CA         -2.5516  -19.8403  -42.7837 C.3       9 UNK         0.1400 
     28 CB         -2.6124  -19.4440  -41.3010 C.3       9 UNK        -0.1800 
     29 N          -1.8855  -18.7809  -43.5448 N.am      9 UNK        -0.5000 
     30 C          -1.7971  -18.7376  -44.8823 C.2       8 UNK         0.5000 
     31 O          -2.3057  -19.5747  -45.6254 O.2       8 UNK        -0.5000 
     32 CA         -0.9434  -17.6110  -45.4925 C.3       8 UNK         0.1400 
     33 CB         -1.7662  -16.3268  -45.6660 C.3       8 UNK        -0.1800 
     34 N           0.2592  -17.3233  -44.7098 N.am      8 UNK        -0.5000 
     35 C           1.2466  -18.2011  -44.4824 C.2       7 UNK         0.5000 
     36 O           1.2406  -19.3582  -44.9018 O.2       7 UNK        -0.5000 
     37 CA          2.4037  -17.7294  -43.5889 C.3       7 UNK         0.1400 
     38 CB          3.3832  -16.8379  -44.3625 C.3       7 UNK        -0.1800 
     39 N           1.9110  -17.0112  -42.4168 N.am      7 UNK        -0.5000 
     40 C           1.3579  -17.6029  -41.3504 C.2       6 UNK         0.5000 
     41 O           1.2490  -18.8226  -41.2214 O.2       6 UNK        -0.5000 
     42 CA          0.8137  -16.6676  -40.2547 C.3       6 UNK         0.1400 
     43 CB          1.9270  -16.2899  -39.2659 C.3       6 UNK        -0.1800 
     44 N           0.2072  -15.4460  -40.7908 N.am      6 UNK        -0.5000 
     45 C          -0.9101  -15.4236  -41.5304 C.2       5 UNK         0.5000 
     46 O          -1.5321  -16.4317  -41.8617 O.2       5 UNK        -0.5000 
     47 CA         -1.3957  -14.0457  -42.0120 C.3       5 UNK         0.1400 
     48 CB         -2.1867  -13.3344  -40.9040 C.3       5 UNK        -0.1800 
     49 N          -0.3288  -13.1621  -42.4913 N.am      5 UNK        -0.5000 
     50 C           0.5041  -13.4401  -43.5048 C.2       4 UNK         0.5000 
     51 O           0.5705  -14.5408  -44.0505 O.2       4 UNK        -0.5000 
     52 CA          1.4306  -12.3143  -43.9944 C.3       4 UNK         0.1400 
     53 CB          0.8240  -11.6368  -45.2321 C.3       4 UNK        -0.1800 
     54 N           1.6622  -11.2928  -42.9694 N.am      4 UNK        -0.5000 
     55 C           2.6906  -11.1666  -42.1143 C.2       3 UNK         0.5000 
     56 O           2.6452  -10.3378  -41.2068 O.2       3 UNK        -0.5000 
     57 CA          3.9778  -12.0159  -42.2588 C.3       3 UNK         0.1400 
     58 CB          3.7747  -13.4623  -41.7728 C.3       3 UNK        -0.1800 
     59 N           4.5839  -12.0150  -43.5924 N.am      3 UNK        -0.5000 
     60 C           4.9431  -10.9489  -44.3175 C.2       2 UNK         0.5000 
     61 O           4.8333   -9.7873  -43.9245 O.2       2 UNK        -0.5000 
     62 CA          5.5313  -11.2117  -45.7225 C.3       2 UNK         0.1400 
     63 CB          7.0386  -11.5169  -45.6351 C.3       2 UNK        -0.1800 
     64 N           4.8374  -12.2243  -46.5374 N.am      2 UNK        -0.5000 
     65 C           4.7026  -13.5418  -46.3175 C.2       1 UNK         0.5000 
     66 O           5.1116  -14.1143  -45.3073 O.2       1 UNK        -0.5000 
     67 C          -1.4798  -22.4638  -47.6952 C.2       11 UNK         0.5000 
     68 O          -1.6176  -23.1625  -48.7022 O.2       11 UNK        -0.5000 
     69 N          -2.4916  -22.1468  -46.8741 N.am      12 UNK        -0.5000 
     70 CA         -3.8644  -22.6455  -46.9629 C.3       12 UNK         0.1400 
     71 CB         -4.7193  -21.9964  -45.8657 C.3       12 UNK        -0.1800 
     72 C          -3.9774  -24.1809  -46.9011 C.2       12 UNK         0.5000 
     73 O          -4.8824  -24.7394  -47.5204 O.2       12 UNK        -0.5000 
     74 N          -3.0509  -24.8307  -46.1858 N.am      13 UNK        -0.5000 
     75 CA         -2.9339  -26.2833  -46.1118 C.3       13 UNK         0.1400 
     76 CB         -2.6274  -26.6940  -44.6625 C.3       13 UNK        -0.1800 
     77 C          -1.8413  -26.7895  -47.0664 C.2       13 UNK         0.5000 
     78 O          -2.0959  -27.7058  -47.8477 O.2       13 UNK        -0.5000 
     79 N          -0.6466  -26.1861  -46.9877 N.am      14 UNK        -0.5000 
     80 CA          0.5719  -26.6432  -47.6601 C.3       14 UNK         0.1400 
     81 CB          1.7770  -25.8767  -47.0938 C.3       14 UNK        -0.1800 
     82 C           0.5385  -26.5343  -49.1949 C.2       14 UNK         0.5000 
     83 O           1.1450  -27.3700  -49.8664 O.2       14 UNK        -0.5000 
     84 N          -0.1620  -25.5224  -49.7199 N.am      15 UNK        -0.5000 
     85 CA         -0.3163  -25.2673  -51.1535 C.3       15 UNK         0.1400 
     86 CB          0.4608  -23.9930  -51.5185 C.3       15 UNK        -0.1800 
     87 C          -1.7995  -25.1586  -51.5478 C.2       15 UNK         0.5000 
     88 O          -2.1026  -24.6268  -52.6172 O.2       15 UNK        -0.5000 
     89 N          -2.6995  -25.6387  -50.6753 N.am      16 UNK        -0.5000 
     90 CA         -4.1584  -25.6689  -50.8329 C.3       16 UNK         0.1400 
     91 CB         -4.5529  -26.7144  -51.8965 C.3       16 UNK        -0.1800 
     92 C          -4.7868  -24.2814  -51.0968 C.2       16 UNK         0.5000 
     93 O          -5.7532  -24.1825  -51.8530 O.2       16 UNK        -0.5000 
     94 N          -4.2147  -23.2365  -50.4768 N.am      17 UNK        -0.5000 
     95 CA         -4.5924  -21.8240  -50.6175 C.3       17 UNK         0.1400 
     96 CB         -6.0443  -21.5847  -50.1482 C.3       17 UNK        -0.1800 
     97 C          -4.3024  -21.2979  -52.0371 C.2       17 UNK         0.5000 
     98 O          -5.1524  -20.6529  -52.6568 O.2       17 UNK        -0.5000 
     99 N          -3.0837  -21.6096  -52.5080 N.am      18 UNK        -0.5000 
    100 CA        -2.5447  -21.3363  -53.8425 C.3       18 UNK         0.1400 
    101 CB        -2.3946  -19.8195  -54.0805 C.3       18 UNK        -0.1800 
    102 C         -3.3736  -22.0581  -54.9203 C.2       18 UNK         0.5000 
    103 O         -3.9215  -21.4222  -55.8242 O.2       18 UNK        -0.5000 
    104 N         -3.5141  -23.3797  -54.7396 N.am      19 UNK        -0.5000 
    105 CA        -4.3438  -24.3440  -55.4749 C.3       19 UNK         0.1400 
    106 CB        -3.9399  -24.4205  -56.9595 C.3       19 UNK        -0.1800 
    107 C         -5.8613  -24.1167  -55.3177 C.2       19 UNK         0.5000 
    108 O         -6.5952  -25.0738  -55.0691 O.2       19 UNK        -0.5000 
    109 N         -6.2854  -22.8588  -55.4604 N.am      20 UNK        -0.5000 
    110 CA        -7.6401  -22.3368  -55.2974 C.3       20 UNK         0.1400 
    111 CB        -8.5926  -22.9549  -56.3438 C.3       20 UNK        -0.1800 
    112 C         -7.6832  -20.7974  -55.3990 C.2       20 UNK         0.5000 
    113 O         -8.7453  -20.2240  -55.1502 O.2       20 UNK        -0.5000 
    114 N         -6.5751  -20.1416  -55.7889 N.am      21 UNK        -0.5000 
    115 CA        -6.5246  -18.7237  -56.1604 C.3       21 UNK         0.1400 
    116 CB        -5.1277  -18.3903  -56.7050 C.3       21 UNK        -0.1800 
    117 C         -6.9248  -17.7347  -55.0496 C.2       21 UNK         0.5000 
    118 O         -7.4408  -16.6619  -55.3685 O.2       21 UNK        -0.5000 
    119 N         -6.7124  -18.1066  -53.7813 N.am      22 UNK        -0.5000 
    120 CA        -7.1739  -17.3306  -52.6169 C.3       22 UNK         0.1400 
    121 C         -8.6768  -17.5477  -52.2629 C.2       22 UNK         0.5000 
    122 N         -9.4139  -18.4262  -52.9332 N.am      22 UNK        -0.7600 
    123 O         -9.1941  -16.8915  -51.3629 O.2       22 UNK        -0.5000 
    124 C124       -6.2741  -17.5491  -51.3769 C.3       23 UNK        -0.0398 
    125 S125       -4.5352  -17.0943  -51.6720 S.3       23 UNK        -0.2404 
    126 C126       -3.8744  -17.2426  -49.9845 C.3       23 UNK        -0.0205 
    127 H127        6.4002  -12.6796  -50.7819 H         1 UNK         0.0600 
    128 H128        4.7055  -13.0409  -51.1219 H         1 UNK         0.0600 
    129 H129        5.9472  -14.2542  -51.4431 H         1 UNK         0.0600 
    130 H130        3.5470  -13.4842  -49.2796 H         1 UNK         0.3000 
    131 H131        4.3630  -15.3859  -47.3053 H         1 UNK         0.0600 
    132 H132        2.2189  -14.3079  -46.1036 H         1 UNK         0.0800 
    133 H133        1.9655  -13.5302  -47.6328 H         1 UNK         0.0800 
    134 H134        0.2533  -14.5231  -49.0346 H         1 UNK         0.0800 
    135 H135        1.5340  -15.2193  -50.0100 H         1 UNK         0.0800 
    136 H136       -1.9253  -15.4280  -49.3144 H         1 UNK         0.1150 
    137 H137       -2.4905  -19.4455  -50.6736 H         1 UNK         0.1150 
    138 H138        1.4733  -17.9166  -50.1293 H         1 UNK         0.1150 
    139 H139       -0.6986  -20.9076  -50.9743 H         1 UNK         0.0800 
    140 H140        0.6514  -20.1234  -51.7585 H         1 UNK         0.0800 
    141 H141       -0.5852  -20.0102  -48.1294 H         1 UNK         0.0800 
    142 H142        0.9575  -20.0456  -47.3594 H         1 UNK         0.0800 
    143 H143        0.6317  -22.7361  -47.6037 H         1 UNK         0.0600 
    144 H144        0.3669  -20.9388  -45.4811 H         1 UNK         0.3000 
    145 H145       -0.2118  -23.2982  -42.8531 H         1 UNK         0.0600 
    146 H146        1.7900  -22.0525  -42.0579 H         1 UNK         0.0600 
    147 H147        2.2155  -23.2177  -43.3030 H         1 UNK         0.0600 
    148 H148        2.1285  -21.5077  -43.6977 H         1 UNK         0.0600 
    149 H149       -0.0523  -20.3873  -43.1597 H         1 UNK         0.3000 
    150 H150       -3.5747  -19.9225  -43.1565 H         1 UNK         0.0600 
    151 H151       -3.1842  -18.5265  -41.1621 H         1 UNK         0.0600 
    152 H152       -3.0963  -20.2198  -40.7063 H         1 UNK         0.0600 
    153 H153       -1.6158  -19.2842  -40.8874 H         1 UNK         0.0600 
    154 H154       -1.4930  -18.0152  -43.0043 H         1 UNK         0.3000 
    155 H155       -0.6208  -17.9393  -46.4829 H         1 UNK         0.0600 
    156 H156       -2.1000  -15.9309  -44.7067 H         1 UNK         0.0600 
    157 H157       -2.6513  -16.5103  -46.2764 H         1 UNK         0.0600 
    158 H158       -1.1829  -15.5521  -46.1644 H         1 UNK         0.0600 
    159 H159        0.3510  -16.3745  -44.3559 H         1 UNK         0.3000 
    160 H160        2.9487  -18.6158  -43.2569 H         1 UNK         0.0600 
    161 H161        2.9275  -15.8878  -44.6332 H         1 UNK         0.0600 
    162 H162        3.7147  -17.3201  -45.2830 H         1 UNK         0.0600 
    163 H163        4.2715  -16.6205  -43.7692 H         1 UNK         0.0600 
    164 H164        1.8991  -16.0040  -42.4700 H         1 UNK         0.3000 
    165 H165        0.0424  -17.2141  -39.7076 H         1 UNK         0.0600 
    166 H166        1.5399  -15.6814  -38.4485 H         1 UNK         0.0600 
    167 H167        2.3729  -17.1814  -38.8228 H         1 UNK         0.0600 
    168 H168        2.7273  -15.7312  -39.7523 H         1 UNK         0.0600 
    169 H169        0.6556  -14.5707  -40.5653 H         1 UNK         0.3000 
    170 H170       -2.0736  -14.2180  -42.8504 H         1 UNK         0.0600 
    171 H171       -2.9987  -13.9642  -40.5375 H         1 UNK         0.0600 
    172 H172       -1.5534  -13.0858  -40.0516 H         1 UNK         0.0600 
    173 H173       -2.6352  -12.4107  -41.2701 H         1 UNK         0.0600 
    174 H174       -0.2899  -12.2443  -42.0747 H         1 UNK         0.3000 
    175 H175        2.3526  -12.7933  -44.3077 H         1 UNK         0.0600 
    176 H176       -0.0841  -11.0851  -44.9861 H         1 UNK         0.0600 
    177 H177        1.5302  -10.9372  -45.6799 H         1 UNK         0.0600 
    178 H178        0.5598  -12.3675  -45.9971 H         1 UNK         0.0600 
    179 H179        0.9044  -10.6358  -42.8586 H         1 UNK         0.3000 
    180 H180        4.7156  -11.5616  -41.5942 H         1 UNK         0.0600 
    181 H181        3.2042  -14.0623  -42.4799 H         1 UNK         0.0600 
    182 H182        3.2505  -13.4859  -40.8167 H         1 UNK         0.0600 
    183 H183        4.7336  -13.9596  -41.6261 H         1 UNK         0.0600 
    184 H184        4.7542  -12.9240  -44.0181 H         1 UNK         0.3000 
    185 H185        5.4252  -10.2771  -46.2758 H         1 UNK         0.0600 
    186 H186        7.2372  -12.4395  -45.0890 H         1 UNK         0.0600 
    187 H187        7.4787  -11.6144  -46.6276 H         1 UNK         0.0600 
    188 H188        7.5695  -10.7144  -45.1213 H         1 UNK         0.0600 
    189 H189        4.4454  -11.8676  -47.3976 H         1 UNK         0.3000 
    190 H190       -2.3083  -21.4756  -46.1344 H         1 UNK         0.3000 
    191 H191       -4.2655  -22.3242  -47.9193 H         1 UNK         0.0600 
    192 H192       -4.7053  -20.9092  -45.9432 H         1 UNK         0.0600 
    193 H193       -5.7602  -22.3129  -45.9443 H         1 UNK         0.0600 
    194 H194       -4.3694  -22.2680  -44.8703 H         1 UNK         0.0600 
    195 H195       -2.3167  -24.2963  -45.7365 H         1 UNK         0.3000 
    196 H196       -3.8754  -26.7571  -46.3980 H         1 UNK         0.0600 
    197 H197       -2.5247  -27.7765  -44.5768 H         1 UNK         0.0600 
    198 H198       -3.4311  -26.3897  -43.9918 H         1 UNK         0.0600 
    199 H199       -1.7027  -26.2457  -44.2972 H         1 UNK         0.0600 
    200 H200       -0.5273  -25.4251  -46.3217 H         1 UNK         0.3000 
    201 H201        0.7023  -27.6992  -47.4147 H         1 UNK         0.0600 
    202 H202        1.8570  -26.0082  -46.0145 H         1 UNK         0.0600 
    203 H203        1.7061  -24.8082  -47.2957 H         1 UNK         0.0600 
    204 H204        2.7093  -26.2324  -47.5344 H         1 UNK         0.0600 
    205 H205       -0.6286  -24.8625  -49.1054 H         1 UNK         0.3000 
    206 H206        0.0911  -26.0934  -51.7391 H         1 UNK         0.0600 
    207 H207        1.5088  -24.0707  -51.2290 H         1 UNK         0.0600 
    208 H208        0.4328  -23.8021  -52.5919 H         1 UNK         0.0600 
    209 H209        0.0381  -23.1253  -51.0167 H         1 UNK         0.0600 
    210 H210       -2.3437  -26.0646  -49.8306 H         1 UNK         0.3000 
    211 H211       -4.5625  -26.0070  -49.8782 H         1 UNK         0.0600 
    212 H212       -4.2095  -26.4284  -52.8904 H         1 UNK         0.0600 
    213 H213       -5.6355  -26.8364  -51.9470 H         1 UNK         0.0600 
    214 H214       -4.1290  -27.6913  -51.6641 H         1 UNK         0.0600 
    215 H215       -3.4028  -23.4217  -49.8985 H         1 UNK         0.3000 
    216 H216       -3.9362  -21.2654  -49.9494 H         1 UNK         0.0600 
    217 H217       -6.2253  -20.5266  -49.9705 H         1 UNK         0.0600 
    218 H218       -6.2545  -22.1046  -49.2138 H         1 UNK         0.0600 
    219 H219       -6.7736  -21.9230  -50.8850 H         1 UNK         0.0600 
    220 H220       -2.5133  -22.2160  -51.9367 H         1 UNK         0.3000 
    221 H221       -1.5463  -21.7750  -53.8760 H         1 UNK         0.0600 
    222 H222       -3.3473  -19.2962  -54.0053 H         1 UNK         0.0600 
    223 H223       -1.7170  -19.3742  -53.3526 H         1 UNK         0.0600 
    224 H224       -1.9855  -19.6169  -55.0708 H         1 UNK         0.0600 
    225 H225       -3.0338  -23.7842  -53.9366 H         1 UNK         0.3000 
    226 H226       -4.1246  -25.3148  -55.0289 H         1 UNK         0.0600 
    227 H227       -2.8779  -24.6411  -57.0673 H         1 UNK         0.0600 
    228 H228       -4.4901  -25.2120  -57.4696 H         1 UNK         0.0600 
    229 H229       -4.1450  -23.4903  -57.4897 H         1 UNK         0.0600 
    230 H230       -5.5557  -22.1768  -55.6383 H         1 UNK         0.3000 
    231 H231       -7.9853  -22.6032  -54.2968 H         1 UNK         0.0600 
    232 H232       -8.2356  -22.7795  -57.3592 H         1 UNK         0.0600 
    233 H233       -9.5931  -22.5268  -56.2697 H         1 UNK         0.0600 
    234 H234       -8.7034  -24.0301  -56.2086 H         1 UNK         0.0600 
    235 H235       -5.7038  -20.6401  -55.9211 H         1 UNK         0.3000 
    236 H236       -7.2382  -18.5867  -56.9753 H         1 UNK         0.0600 
    237 H237       -4.8695  -19.0280  -57.5506 H         1 UNK         0.0600 
    238 H238       -5.0782  -17.3568  -57.0500 H         1 UNK         0.0600 
    239 H239       -4.3595  -18.5178  -55.9434 H         1 UNK         0.0600 
    240 H240       -6.2705  -18.9986  -53.5872 H         1 UNK         0.3000 
    241 H241       -7.0950  -16.2714  -52.8693 H         1 UNK         0.0600 
    242 H242       -9.0280  -18.9732  -53.6972 H         1 UNK         0.3800 
    243 H243      -10.3842  -18.5410  -52.6875 H         1 UNK         0.3800 
    244 H244       -6.6346  -16.9609  -50.5310 H         1 UNK         0.0800 
    245 H245       -6.3129  -18.5925  -51.0700 H         1 UNK         0.0800 
    246 H246       -4.3208  -18.1042  -49.4853 H         1 UNK         0.0800 
    247 H247       -4.1583  -16.3635  -49.4040 H         1 UNK         0.0800 
@<TRIPOS>BOND
     1    1    2 1    
     2    1  127 1    
     3    1  128 1    
     4    1  129 1    
     5    2    3 2    
     6    2    4 am   BACKBONE|DICT|INTERRES
     7    4    5 1    
     8    4  130 1    
     9    5    6 1    
    10    5   65 1    
    11    5  131 1    
    12    6    7 1    
    13    6  132 1    
    14    6  133 1    
    15    7    8 1    
    16    8    9 1    
    17    8  134 1    
    18    8  135 1    
    19    9   10 ar   
    20    9   14 ar   
    21   10   11 ar   
    22   10  136 1    
    23   11   12 ar   
    24   11  126 1    
    25   12   13 ar   
    26   12  137 1    
    27   13   14 ar   
    28   13   15 1    
    29   14  138 1    
    30   15   16 1    
    31   15  139 1    
    32   15  140 1    
    33   16   17 1    
    34   17   18 1    
    35   17  141 1    
    36   17  142 1    
    37   18   19 1    
    38   18   67 1    
    39   18  143 1    
    40   19   20 am   BACKBONE|DICT|INTERRES
    41   19  144 1    
    42   20   21 2    
    43   20   22 1    
    44   22   23 1    
    45   22   24 1    
    46   22  145 1    
    47   23  146 1    
    48   23  147 1    
    49   23  148 1    
    50   24   25 am   BACKBONE|DICT|INTERRES
    51   24  149 1    
    52   25   26 2    
    53   25   27 1    
    54   27   28 1    
    55   27   29 1    
    56   27  150 1    
    57   28  151 1    
    58   28  152 1    
    59   28  153 1    
    60   29   30 am   BACKBONE|DICT|INTERRES
    61   29  154 1    
    62   30   31 2    
    63   30   32 1    
    64   32   33 1    
    65   32   34 1    
    66   32  155 1    
    67   33  156 1    
    68   33  157 1    
    69   33  158 1    
    70   34   35 am   BACKBONE|DICT|INTERRES
    71   34  159 1    
    72   35   36 2    
    73   35   37 1    
    74   37   38 1    
    75   37   39 1    
    76   37  160 1    
    77   38  161 1    
    78   38  162 1    
    79   38  163 1    
    80   39   40 am   BACKBONE|DICT|INTERRES
    81   39  164 1    
    82   40   41 2    
    83   40   42 1    
    84   42   43 1    
    85   42   44 1    
    86   42  165 1    
    87   43  166 1    
    88   43  167 1    
    89   43  168 1    
    90   44   45 am   BACKBONE|DICT|INTERRES
    91   44  169 1    
    92   45   46 2    
    93   45   47 1    
    94   47   48 1    
    95   47   49 1    
    96   47  170 1    
    97   48  171 1    
    98   48  172 1    
    99   48  173 1    
   100   49   50 am   BACKBONE|DICT|INTERRES
   101   49  174 1    
   102   50   51 2    
   103   50   52 1    
   104   52   53 1    
   105   52   54 1    
   106   52  175 1    
   107   53  176 1    
   108   53  177 1    
   109   53  178 1    
   110   54   55 am   BACKBONE|DICT|INTERRES
   111   54  179 1    
   112   55   56 2    
   113   55   57 1    
   114   57   58 1    
   115   57   59 1    
   116   57  180 1    
   117   58  181 1    
   118   58  182 1    
   119   58  183 1    
   120   59   60 am   BACKBONE|DICT|INTERRES
   121   59  184 1    
   122   60   61 2    
   123   60   62 1    
   124   62   63 1    
   125   62   64 1    
   126   62  185 1    
   127   63  186 1    
   128   63  187 1    
   129   63  188 1    
   130   64   65 am   BACKBONE|DICT|INTERRES
   131   64  189 1    
   132   65   66 2    
   133   67   68 2    
   134   67   69 am   BACKBONE|DICT|INTERRES
   135   69   70 1    
   136   69  190 1    
   137   70   71 1    
   138   70   72 1    
   139   70  191 1    
   140   71  192 1    
   141   71  193 1    
   142   71  194 1    
   143   72   73 2    
   144   72   74 am   BACKBONE|DICT|INTERRES
   145   74   75 1    
   146   74  195 1    
   147   75   76 1    
   148   75   77 1    
   149   75  196 1    
   150   76  197 1    
   151   76  198 1    
   152   76  199 1    
   153   77   78 2    
   154   77   79 am   BACKBONE|DICT|INTERRES
   155   79   80 1    
   156   79  200 1    
   157   80   81 1    
   158   80   82 1    
   159   80  201 1    
   160   81  202 1    
   161   81  203 1    
   162   81  204 1    
   163   82   83 2    
   164   82   84 am   BACKBONE|DICT|INTERRES
   165   84   85 1    
   166   84  205 1    
   167   85   86 1    
   168   85   87 1    
   169   85  206 1    
   170   86  207 1    
   171   86  208 1    
   172   86  209 1    
   173   87   88 2    
   174   87   89 am   BACKBONE|DICT|INTERRES
   175   89   90 1    
   176   89  210 1    
   177   90   91 1    
   178   90   92 1    
   179   90  211 1    
   180   91  212 1    
   181   91  213 1    
   182   91  214 1    
   183   92   93 2    
   184   92   94 am   BACKBONE|DICT|INTERRES
   185   94   95 1    
   186   94  215 1    
   187   95   96 1    
   188   95   97 1    
   189   95  216 1    
   190   96  217 1    
   191   96  218 1    
   192   96  219 1    
   193   97   98 2    
   194   97   99 am   BACKBONE|DICT|INTERRES
   195   99  100 1    
   196   99  220 1    
   197  100  101 1    
   198  100  102 1    
   199  100  221 1    
   200  101  222 1    
   201  101  223 1    
   202  101  224 1    
   203  102  103 2    
   204  102  104 am   BACKBONE|DICT|INTERRES
   205  104  105 1    
   206  104  225 1    
   207  105  106 1    
   208  105  107 1    
   209  105  226 1    
   210  106  227 1    
   211  106  228 1    
   212  106  229 1    
   213  107  108 2    
   214  107  109 am   BACKBONE|DICT|INTERRES
   215  109  110 1    
   216  109  230 1    
   217  110  111 1    
   218  110  112 1    
   219  110  231 1    
   220  111  232 1    
   221  111  233 1    
   222  111  234 1    
   223  112  113 2    
   224  112  114 am   BACKBONE|DICT|INTERRES
   225  114  115 1    
   226  114  235 1    
   227  115  116 1    
   228  115  117 1    
   229  115  236 1    
   230  116  237 1    
   231  116  238 1    
   232  116  239 1    
   233  117  118 2    
   234  117  119 am   BACKBONE|DICT|INTERRES
   235  119  120 1    
   236  119  240 1    
   237  120  121 1    
   238  120  124 1    
   239  120  241 1    
   240  121  122 am   BACKBONE|DICT|INTERRES
   241  121  123 2    
   242  122  242 1    
   243  122  243 1    
   244  124  125 1    
   245  124  244 1    
   246  124  245 1    
   247  125  126 1    
   248  126  246 1    
   249  126  247 1    
@<TRIPOS>SUBSTRUCTURE
     1 UNK         1 GROUP             0       ****    0 ROOT    
