@<TRIPOS>MOLECULE
3R540
247   249    1
SMALL
USER_CHARGES


@<TRIPOS>ATOM
      1 CA          3.4064   -9.3314  -50.1468 C.3       0 UNK        -0.1800 
      2 C           4.1142  -10.1832  -49.1021 C.2       0 UNK         0.5000 
      3 O           5.2305   -9.8553  -48.6983 O.2       0 UNK        -0.5000 
      4 N           3.4744  -11.2777  -48.6729 N.am      1 UNK        -0.5000 
      5 CA          3.9706  -12.1931  -47.6395 C.3       1 UNK         0.1400 
      6 C6          3.1689  -13.5157  -47.6125 C.3       23 UNK        -0.0398 
      7 S7          3.3324  -14.4628  -49.1622 S.3       23 UNK        -0.2404 
      8 C8          1.6703  -15.1906  -49.2829 C.3       23 UNK        -0.0205 
      9 C9          1.5750  -16.1906  -50.4247 C.ar      23 UNK        -0.0193 
     10 C10         0.8364  -15.8950  -51.5748 C.ar      23 UNK        -0.1150 
     11 C11         0.6872  -16.8492  -52.5857 C.ar      23 UNK        -0.0193 
     12 C12         1.2952  -18.1002  -52.4462 C.ar      23 UNK        -0.1150 
     13 C13         2.0453  -18.4033  -51.3069 C.ar      23 UNK        -0.0193 
     14 C14         2.1923  -17.4381  -50.3082 C.ar      23 UNK        -0.1150 
     15 C15         2.6549  -19.7890  -51.1347 C.3       23 UNK        -0.0205 
     16 S16         1.9203  -20.7108  -49.7398 S.3       23 UNK        -0.2404 
     17 C17         0.1411  -20.4270  -50.0197 C.3       23 UNK        -0.0398 
     18 CA         -0.7810  -21.2830  -49.1183 C.3       11 UNK         0.1400 
     19 N          -0.4927  -21.0890  -47.6884 N.am      11 UNK        -0.5000 
     20 C          -0.8144  -21.9123  -46.6795 C.2       10 UNK         0.5000 
     21 O          -1.4706  -22.9453  -46.8369 O.2       10 UNK        -0.5000 
     22 CA         -0.4028  -21.4917  -45.2539 C.3       10 UNK         0.1400 
     23 CB          0.0171  -22.6924  -44.3822 C.3       10 UNK        -0.1800 
     24 N           0.5913  -20.4134  -45.2121 N.am      10 UNK        -0.5000 
     25 C           1.8846  -20.4595  -45.5662 C.2       9 UNK         0.5000 
     26 O           2.4553  -21.4698  -45.9762 O.2       9 UNK        -0.5000 
     27 CA          2.6732  -19.1410  -45.4478 C.3       9 UNK         0.1400 
     28 CB          2.6284  -18.3678  -46.7717 C.3       9 UNK        -0.1800 
     29 N           2.1759  -18.2742  -44.3803 N.am      9 UNK        -0.5000 
     30 C           2.3812  -18.4912  -43.0742 C.2       8 UNK         0.5000 
     31 O           3.0367  -19.4329  -42.6271 O.2       8 UNK        -0.5000 
     32 CA          1.7232  -17.4942  -42.1082 C.3       8 UNK         0.1400 
     33 CB          2.5148  -16.1771  -42.0575 C.3       8 UNK        -0.1800 
     34 N           0.3321  -17.2363  -42.4852 N.am      8 UNK        -0.5000 
     35 C          -0.6830  -18.0701  -42.2125 C.2       7 UNK         0.5000 
     36 O          -0.5569  -19.1013  -41.5523 O.2       7 UNK        -0.5000 
     37 CA         -2.0721  -17.7103  -42.7728 C.3       7 UNK         0.1400 
     38 CB         -2.9468  -17.0555  -41.6946 C.3       7 UNK        -0.1800 
     39 N          -2.0067  -16.8260  -43.9352 N.am      7 UNK        -0.5000 
     40 C          -1.7451  -17.2441  -45.1809 C.2       6 UNK         0.5000 
     41 O          -1.5302  -18.4176  -45.4804 O.2       6 UNK        -0.5000 
     42 CA         -1.6665  -16.1613  -46.2704 C.3       6 UNK         0.1400 
     43 CB         -3.0723  -15.8449  -46.8015 C.3       6 UNK        -0.1800 
     44 N          -1.0359  -14.9235  -45.8129 N.am      6 UNK        -0.5000 
     45 C           0.1992  -14.8247  -45.3051 C.2       5 UNK         0.5000 
     46 O           0.9633  -15.7820  -45.1757 O.2       5 UNK        -0.5000 
     47 CA          0.6545  -13.4346  -44.8321 C.3       5 UNK         0.1400 
     48 CB         -0.1427  -12.2656  -45.4506 C.3       5 UNK        -0.1800 
     49 N           0.6762  -13.3270  -43.3748 N.am      5 UNK        -0.5000 
     50 C          -0.3429  -13.4824  -42.5157 C.2       4 UNK         0.5000 
     51 O          -1.4629  -13.8702  -42.8531 O.2       4 UNK        -0.5000 
     52 CA         -0.0757  -13.1550  -41.0279 C.3       4 UNK         0.1400 
     53 CB         -0.5107  -14.3050  -40.1048 C.3       4 UNK        -0.1800 
     54 N           1.3224  -12.8208  -40.7408 N.am      4 UNK        -0.5000 
     55 C           1.9031  -11.6385  -40.9841 C.2       3 UNK         0.5000 
     56 O           1.3027  -10.6667  -41.4454 O.2       3 UNK        -0.5000 
     57 CA          3.4129  -11.5177  -40.6892 C.3       3 UNK         0.1400 
     58 CB          4.0333  -12.7647  -40.0164 C.3       3 UNK        -0.1800 
     59 N           4.1737  -11.1576  -41.8905 N.am      3 UNK        -0.5000 
     60 C           4.2401  -11.8388  -43.0440 C.2       2 UNK         0.5000 
     61 O           3.6320  -12.8902  -43.2618 O.2       2 UNK        -0.5000 
     62 CA          5.1937  -11.2546  -44.1051 C.3       2 UNK         0.1400 
     63 CB          6.6574  -11.5036  -43.7039 C.3       2 UNK        -0.1800 
     64 N           4.9852  -11.8148  -45.4412 N.am      2 UNK        -0.5000 
     65 C           3.9625  -11.5158  -46.2505 C.2       1 UNK         0.5000 
     66 O           3.0462  -10.7488  -45.9443 O.2       1 UNK        -0.5000 
     67 C          -2.2751  -21.0392  -49.4437 C.2       11 UNK         0.5000 
     68 O          -2.6101  -20.2516  -50.3325 O.2       11 UNK        -0.5000 
     69 N          -3.1434  -21.7036  -48.6842 N.am      12 UNK        -0.5000 
     70 CA         -4.5938  -21.7119  -48.7843 C.3       12 UNK         0.1400 
     71 CB         -5.1978  -20.3523  -48.3813 C.3       12 UNK        -0.1800 
     72 C          -5.0993  -22.8486  -47.8915 C.2       12 UNK         0.5000 
     73 O          -5.7714  -23.7527  -48.3824 O.2       12 UNK        -0.5000 
     74 N          -4.7069  -22.8117  -46.6096 N.am      13 UNK        -0.5000 
     75 CA         -5.0523  -23.8055  -45.5933 C.3       13 UNK         0.1400 
     76 CB         -4.6575  -23.2697  -44.2073 C.3       13 UNK        -0.1800 
     77 C          -4.4087  -25.1783  -45.8568 C.2       13 UNK         0.5000 
     78 O          -5.1210  -26.1785  -45.9472 O.2       13 UNK        -0.5000 
     79 N          -3.0769  -25.1987  -46.0088 N.am      14 UNK        -0.5000 
     80 CA         -2.3004  -26.4080  -46.3017 C.3       14 UNK         0.1400 
     81 CB         -0.8332  -26.1765  -45.9088 C.3       14 UNK        -0.1800 
     82 C          -2.4073  -26.8194  -47.7813 C.2       14 UNK         0.5000 
     83 O          -2.2504  -27.9962  -48.1059 O.2       14 UNK        -0.5000 
     84 N          -2.6980  -25.8377  -48.6435 N.am      15 UNK        -0.5000 
     85 CA         -2.9252  -25.9977  -50.0784 C.3       15 UNK         0.1400 
     86 CB         -2.6617  -24.6435  -50.7470 C.3       15 UNK        -0.1800 
     87 C          -4.3404  -26.5061  -50.4272 C.2       15 UNK         0.5000 
     88 O          -4.6174  -26.7373  -51.6074 O.2       15 UNK        -0.5000 
     89 N          -5.2146  -26.6281  -49.4137 N.am      16 UNK        -0.5000 
     90 CA         -6.6094  -27.0873  -49.4646 C.3       16 UNK         0.1400 
     91 CB         -6.6560  -28.5931  -49.7960 C.3       16 UNK        -0.1800 
     92 C          -7.5079  -26.2502  -50.4019 C.2       16 UNK         0.5000 
     93 O          -8.4749  -26.7742  -50.9572 O.2       16 UNK        -0.5000 
     94 N          -7.1385  -24.9744  -50.5917 N.am      17 UNK        -0.5000 
     95 CA         -7.6719  -24.0085  -51.5592 C.3       17 UNK         0.1400 
     96 CB         -9.1105  -23.6044  -51.1785 C.3       17 UNK        -0.1800 
     97 C          -7.5579  -24.4627  -53.0362 C.2       17 UNK         0.5000 
     98 O          -8.2464  -23.9054  -53.8931 O.2       17 UNK        -0.5000 
     99 N          -6.7171  -25.4705  -53.3106 N.am      18 UNK        -0.5000 
    100 CA        -6.6088  -26.1491  -54.5989 C.3       18 UNK         0.1400 
    101 CB        -6.8259  -27.6571  -54.3897 C.3       18 UNK        -0.1800 
    102 C         -5.2480  -25.8795  -55.2509 C.2       18 UNK         0.5000 
    103 O         -5.2060  -25.4683  -56.4111 O.2       18 UNK        -0.5000 
    104 N         -4.1588  -26.1028  -54.5010 N.am      19 UNK        -0.5000 
    105 CA        -2.7884  -25.8786  -54.9764 C.3       19 UNK         0.1400 
    106 CB        -1.8144  -26.7073  -54.1240 C.3       19 UNK        -0.1800 
    107 C         -2.3943  -24.3875  -54.9816 C.2       19 UNK         0.5000 
    108 O         -1.4970  -23.9941  -55.7275 O.2       19 UNK        -0.5000 
    109 N         -3.0846  -23.5940  -54.1589 N.am      20 UNK        -0.5000 
    110 CA        -2.9566  -22.1571  -53.9680 C.3       20 UNK         0.1400 
    111 CB        -1.6278  -21.8114  -53.2695 C.3       20 UNK        -0.1800 
    112 C         -4.1527  -21.7174  -53.1131 C.2       20 UNK         0.5000 
    113 O         -4.7557  -22.5522  -52.4324 O.2       20 UNK        -0.5000 
    114 N         -4.4708  -20.4231  -53.1566 N.am      21 UNK        -0.5000 
    115 CA        -5.5410  -19.8003  -52.3822 C.3       21 UNK         0.1400 
    116 CB        -6.9060  -20.0470  -53.0563 C.3       21 UNK        -0.1800 
    117 C         -5.2042  -18.3133  -52.1969 C.2       21 UNK         0.5000 
    118 O         -6.0069  -17.4425  -52.5381 O.2       21 UNK        -0.5000 
    119 N         -3.9879  -18.0532  -51.7093 N.am      22 UNK        -0.5000 
    120 CA        -3.3991  -16.7093  -51.5941 C.3       22 UNK         0.1400 
    121 C         -2.4155  -16.5322  -50.4072 C.2       22 UNK         0.5000 
    122 N         -2.0669  -17.5727  -49.6632 N.am      22 UNK        -0.7600 
    123 O         -1.9897  -15.4155  -50.1276 O.2       22 UNK        -0.5000 
    124 C124       -2.8199  -16.1919  -52.9415 C.3       23 UNK        -0.0398 
    125 S125       -1.7419  -17.3835  -53.8208 S.3       23 UNK        -0.2404 
    126 C126       -0.1263  -16.5407  -53.8330 C.3       23 UNK        -0.0205 
    127 H127        2.4361   -9.7473  -50.4198 H         1 UNK         0.0600 
    128 H128        4.0132   -9.2635  -51.0498 H         1 UNK         0.0600 
    129 H129        3.2484   -8.3231  -49.7640 H         1 UNK         0.0600 
    130 H130        2.5575  -11.4882  -49.0384 H         1 UNK         0.3000 
    131 H131        5.0073  -12.4336  -47.8870 H         1 UNK         0.0600 
    132 H132        2.1137  -13.3063  -47.4359 H         1 UNK         0.0800 
    133 H133        3.5017  -14.1591  -46.7953 H         1 UNK         0.0800 
    134 H134        0.9317  -14.3967  -49.4067 H         1 UNK         0.0800 
    135 H135        1.4267  -15.6957  -48.3466 H         1 UNK         0.0800 
    136 H136        0.3525  -14.9331  -51.6691 H         1 UNK         0.1150 
    137 H137        1.1667  -18.8430  -53.2210 H         1 UNK         0.1150 
    138 H138        2.7683  -17.6669  -49.4253 H         1 UNK         0.1150 
    139 H139        2.5340  -20.3779  -52.0452 H         1 UNK         0.0800 
    140 H140        3.7290  -19.6924  -50.9713 H         1 UNK         0.0800 
    141 H141       -0.0652  -20.6219  -51.0729 H         1 UNK         0.0800 
    142 H142       -0.0572  -19.3678  -49.8579 H         1 UNK         0.0800 
    143 H143       -0.5822  -22.3301  -49.3547 H         1 UNK         0.0600 
    144 H144        0.0190  -20.2522  -47.4541 H         1 UNK         0.3000 
    145 H145       -1.3034  -21.0724  -44.8038 H         1 UNK         0.0600 
    146 H146        0.3182  -22.3696  -43.3855 H         1 UNK         0.0600 
    147 H147       -0.8094  -23.3927  -44.2583 H         1 UNK         0.0600 
    148 H148        0.8467  -23.2455  -44.8230 H         1 UNK         0.0600 
    149 H149        0.2097  -19.5116  -44.9522 H         1 UNK         0.3000 
    150 H150        3.7147  -19.3907  -45.2344 H         1 UNK         0.0600 
    151 H151        3.0715  -18.9622  -47.5705 H         1 UNK         0.0600 
    152 H152        3.1921  -17.4366  -46.7084 H         1 UNK         0.0600 
    153 H153        1.6068  -18.1210  -47.0642 H         1 UNK         0.0600 
    154 H154        1.6675  -17.4406  -44.6663 H         1 UNK         0.3000 
    155 H155        1.7443  -17.9320  -41.1077 H         1 UNK         0.0600 
    156 H156        3.5578  -16.3603  -41.7964 H         1 UNK         0.0600 
    157 H157        2.1117  -15.5044  -41.3039 H         1 UNK         0.0600 
    158 H158        2.5086  -15.6542  -43.0137 H         1 UNK         0.0600 
    159 H159        0.1616  -16.4448  -43.0888 H         1 UNK         0.3000 
    160 H160       -2.5532  -18.6454  -43.0683 H         1 UNK         0.0600 
    161 H161       -2.5596  -16.0809  -41.4031 H         1 UNK         0.0600 
    162 H162       -2.9975  -17.6741  -40.7976 H         1 UNK         0.0600 
    163 H163       -3.9676  -16.9149  -42.0503 H         1 UNK         0.0600 
    164 H164       -2.1260  -15.8342  -43.7640 H         1 UNK         0.3000 
    165 H165       -1.0614  -16.5542  -47.0890 H         1 UNK         0.0600 
    166 H166       -3.0351  -15.1131  -47.6083 H         1 UNK         0.0600 
    167 H167       -3.5513  -16.7412  -47.1986 H         1 UNK         0.0600 
    168 H168       -3.7192  -15.4457  -46.0193 H         1 UNK         0.0600 
    169 H169       -1.6041  -14.0898  -45.8486 H         1 UNK         0.3000 
    170 H170        1.6917  -13.3309  -45.1467 H         1 UNK         0.0600 
    171 H171       -0.1418  -12.3192  -46.5400 H         1 UNK         0.0600 
    172 H172       -1.1806  -12.2458  -45.1168 H         1 UNK         0.0600 
    173 H173        0.3056  -11.3097  -45.1787 H         1 UNK         0.0600 
    174 H174        1.5824  -13.0753  -42.9951 H         1 UNK         0.3000 
    175 H175       -0.6903  -12.2864  -40.7826 H         1 UNK         0.0600 
    176 H176       -1.5915  -14.4389  -40.1413 H         1 UNK         0.0600 
    177 H177       -0.0500  -15.2527  -40.3821 H         1 UNK         0.0600 
    178 H178       -0.2544  -14.0981  -39.0656 H         1 UNK         0.0600 
    179 H179        1.8952  -13.5642  -40.3696 H         1 UNK         0.3000 
    180 H180        3.5180  -10.6838  -39.9937 H         1 UNK         0.0600 
    181 H181        3.9814  -13.6492  -40.6524 H         1 UNK         0.0600 
    182 H182        3.5336  -12.9971  -39.0751 H         1 UNK         0.0600 
    183 H183        5.0842  -12.5940  -39.7824 H         1 UNK         0.0600 
    184 H184        4.6906  -10.2922  -41.8218 H         1 UNK         0.3000 
    185 H185        5.0251  -10.1767  -44.1558 H         1 UNK         0.0600 
    186 H186        6.8854  -11.0579  -42.7349 H         1 UNK         0.0600 
    187 H187        6.8784  -12.5695  -43.6333 H         1 UNK         0.0600 
    188 H188        7.3451  -11.0653  -44.4275 H         1 UNK         0.0600 
    189 H189        5.6764  -12.4822  -45.7505 H         1 UNK         0.3000 
    190 H190       -2.7443  -22.3106  -47.9721 H         1 UNK         0.3000 
    191 H191       -4.8740  -21.9386  -49.8139 H         1 UNK         0.0600 
    192 H192       -4.8941  -20.0540  -47.3774 H         1 UNK         0.0600 
    193 H193       -6.2875  -20.3908  -48.3997 H         1 UNK         0.0600 
    194 H194       -4.8930  -19.5600  -49.0643 H         1 UNK         0.0600 
    195 H195       -4.1584  -22.0254  -46.2951 H         1 UNK         0.3000 
    196 H196       -6.1362  -23.9394  -45.6079 H         1 UNK         0.0600 
    197 H197       -4.8988  -23.9917  -43.4261 H         1 UNK         0.0600 
    198 H198       -5.1945  -22.3501  -43.9741 H         1 UNK         0.0600 
    199 H199       -3.5893  -23.0588  -44.1412 H         1 UNK         0.0600 
    200 H200       -2.5583  -24.3260  -45.9968 H         1 UNK         0.3000 
    201 H201       -2.6882  -27.2310  -45.6975 H         1 UNK         0.0600 
    202 H202       -0.7437  -25.9142  -44.8547 H         1 UNK         0.0600 
    203 H203       -0.3777  -25.3771  -46.4941 H         1 UNK         0.0600 
    204 H204       -0.2404  -27.0777  -46.0702 H         1 UNK         0.0600 
    205 H205       -2.7920  -24.9056  -48.2700 H         1 UNK         0.3000 
    206 H206       -2.2100  -26.7229  -50.4714 H         1 UNK         0.0600 
    207 H207       -1.6595  -24.2769  -50.5262 H         1 UNK         0.0600 
    208 H208       -2.7436  -24.7251  -51.8266 H         1 UNK         0.0600 
    209 H209       -3.3810  -23.8909  -50.4272 H         1 UNK         0.0600 
    210 H210       -4.8936  -26.3573  -48.4945 H         1 UNK         0.3000 
    211 H211       -7.0109  -26.9527  -48.4593 H         1 UNK         0.0600 
    212 H212       -6.3242  -28.7914  -50.8158 H         1 UNK         0.0600 
    213 H213       -7.6684  -28.9867  -49.6982 H         1 UNK         0.0600 
    214 H214       -6.0210  -29.1651  -49.1194 H         1 UNK         0.0600 
    215 H215       -6.3838  -24.6268  -50.0069 H         1 UNK         0.3000 
    216 H216       -7.0535  -23.1169  -51.4627 H         1 UNK         0.0600 
    217 H217       -9.4602  -22.7740  -51.7931 H         1 UNK         0.0600 
    218 H218       -9.1662  -23.2814  -50.1390 H         1 UNK         0.0600 
    219 H219       -9.8113  -24.4287  -51.3129 H         1 UNK         0.0600 
    220 H220       -6.1570  -25.8515  -52.5556 H         1 UNK         0.3000 
    221 H221       -7.3801  -25.7955  -55.2862 H         1 UNK         0.0600 
    222 H222       -6.0998  -28.0811  -53.6947 H         1 UNK         0.0600 
    223 H223       -7.8204  -27.8561  -53.9899 H         1 UNK         0.0600 
    224 H224       -6.7382  -28.2001  -55.3315 H         1 UNK         0.0600 
    225 H225       -4.2702  -26.4376  -53.5487 H         1 UNK         0.3000 
    226 H226       -2.7130  -26.2363  -56.0056 H         1 UNK         0.0600 
    227 H227       -2.0387  -27.7716  -54.1967 H         1 UNK         0.0600 
    228 H228       -0.7862  -26.5694  -54.4610 H         1 UNK         0.0600 
    229 H229       -1.8535  -26.4313  -53.0715 H         1 UNK         0.0600 
    230 H230       -3.8307  -23.9960  -53.6040 H         1 UNK         0.3000 
    231 H231       -3.0105  -21.6625  -54.9396 H         1 UNK         0.0600 
    232 H232       -0.7686  -22.0957  -53.8764 H         1 UNK         0.0600 
    233 H233       -1.5397  -22.3161  -52.3074 H         1 UNK         0.0600 
    234 H234       -1.5503  -20.7387  -53.0867 H         1 UNK         0.0600 
    235 H235       -3.9121  -19.7896  -53.7128 H         1 UNK         0.3000 
    236 H236       -5.5663  -20.2414  -51.3848 H         1 UNK         0.0600 
    237 H237       -7.7136  -19.5905  -52.4829 H         1 UNK         0.0600 
    238 H238       -6.9363  -19.6286  -54.0628 H         1 UNK         0.0600 
    239 H239       -7.1267  -21.1117  -53.1311 H         1 UNK         0.0600 
    240 H240       -3.3938  -18.8298  -51.4363 H         1 UNK         0.3000 
    241 H241       -4.2143  -16.0336  -51.3278 H         1 UNK         0.0600 
    242 H242       -1.4240  -17.4220  -48.9080 H         1 UNK         0.3800 
    243 H243       -2.3896  -18.5098  -49.8802 H         1 UNK         0.3800 
    244 H244       -3.6490  -15.9659  -53.6130 H         1 UNK         0.0800 
    245 H245       -2.3008  -15.2421  -52.8050 H         1 UNK         0.0800 
    246 H246        0.4317  -16.8775  -54.7078 H         1 UNK         0.0800 
    247 H247       -0.2601  -15.4656  -53.9601 H         1 UNK         0.0800 
@<TRIPOS>BOND
     1    1    2 1    
     2    1  127 1    
     3    1  128 1    
     4    1  129 1    
     5    2    3 2    
     6    2    4 am   BACKBONE|DICT|INTERRES
     7    4    5 1    
     8    4  130 1    
     9    5    6 1    
    10    5   65 1    
    11    5  131 1    
    12    6    7 1    
    13    6  132 1    
    14    6  133 1    
    15    7    8 1    
    16    8    9 1    
    17    8  134 1    
    18    8  135 1    
    19    9   10 ar   
    20    9   14 ar   
    21   10   11 ar   
    22   10  136 1    
    23   11   12 ar   
    24   11  126 1    
    25   12   13 ar   
    26   12  137 1    
    27   13   14 ar   
    28   13   15 1    
    29   14  138 1    
    30   15   16 1    
    31   15  139 1    
    32   15  140 1    
    33   16   17 1    
    34   17   18 1    
    35   17  141 1    
    36   17  142 1    
    37   18   19 1    
    38   18   67 1    
    39   18  143 1    
    40   19   20 am   BACKBONE|DICT|INTERRES
    41   19  144 1    
    42   20   21 2    
    43   20   22 1    
    44   22   23 1    
    45   22   24 1    
    46   22  145 1    
    47   23  146 1    
    48   23  147 1    
    49   23  148 1    
    50   24   25 am   BACKBONE|DICT|INTERRES
    51   24  149 1    
    52   25   26 2    
    53   25   27 1    
    54   27   28 1    
    55   27   29 1    
    56   27  150 1    
    57   28  151 1    
    58   28  152 1    
    59   28  153 1    
    60   29   30 am   BACKBONE|DICT|INTERRES
    61   29  154 1    
    62   30   31 2    
    63   30   32 1    
    64   32   33 1    
    65   32   34 1    
    66   32  155 1    
    67   33  156 1    
    68   33  157 1    
    69   33  158 1    
    70   34   35 am   BACKBONE|DICT|INTERRES
    71   34  159 1    
    72   35   36 2    
    73   35   37 1    
    74   37   38 1    
    75   37   39 1    
    76   37  160 1    
    77   38  161 1    
    78   38  162 1    
    79   38  163 1    
    80   39   40 am   BACKBONE|DICT|INTERRES
    81   39  164 1    
    82   40   41 2    
    83   40   42 1    
    84   42   43 1    
    85   42   44 1    
    86   42  165 1    
    87   43  166 1    
    88   43  167 1    
    89   43  168 1    
    90   44   45 am   BACKBONE|DICT|INTERRES
    91   44  169 1    
    92   45   46 2    
    93   45   47 1    
    94   47   48 1    
    95   47   49 1    
    96   47  170 1    
    97   48  171 1    
    98   48  172 1    
    99   48  173 1    
   100   49   50 am   BACKBONE|DICT|INTERRES
   101   49  174 1    
   102   50   51 2    
   103   50   52 1    
   104   52   53 1    
   105   52   54 1    
   106   52  175 1    
   107   53  176 1    
   108   53  177 1    
   109   53  178 1    
   110   54   55 am   BACKBONE|DICT|INTERRES
   111   54  179 1    
   112   55   56 2    
   113   55   57 1    
   114   57   58 1    
   115   57   59 1    
   116   57  180 1    
   117   58  181 1    
   118   58  182 1    
   119   58  183 1    
   120   59   60 am   BACKBONE|DICT|INTERRES
   121   59  184 1    
   122   60   61 2    
   123   60   62 1    
   124   62   63 1    
   125   62   64 1    
   126   62  185 1    
   127   63  186 1    
   128   63  187 1    
   129   63  188 1    
   130   64   65 am   BACKBONE|DICT|INTERRES
   131   64  189 1    
   132   65   66 2    
   133   67   68 2    
   134   67   69 am   BACKBONE|DICT|INTERRES
   135   69   70 1    
   136   69  190 1    
   137   70   71 1    
   138   70   72 1    
   139   70  191 1    
   140   71  192 1    
   141   71  193 1    
   142   71  194 1    
   143   72   73 2    
   144   72   74 am   BACKBONE|DICT|INTERRES
   145   74   75 1    
   146   74  195 1    
   147   75   76 1    
   148   75   77 1    
   149   75  196 1    
   150   76  197 1    
   151   76  198 1    
   152   76  199 1    
   153   77   78 2    
   154   77   79 am   BACKBONE|DICT|INTERRES
   155   79   80 1    
   156   79  200 1    
   157   80   81 1    
   158   80   82 1    
   159   80  201 1    
   160   81  202 1    
   161   81  203 1    
   162   81  204 1    
   163   82   83 2    
   164   82   84 am   BACKBONE|DICT|INTERRES
   165   84   85 1    
   166   84  205 1    
   167   85   86 1    
   168   85   87 1    
   169   85  206 1    
   170   86  207 1    
   171   86  208 1    
   172   86  209 1    
   173   87   88 2    
   174   87   89 am   BACKBONE|DICT|INTERRES
   175   89   90 1    
   176   89  210 1    
   177   90   91 1    
   178   90   92 1    
   179   90  211 1    
   180   91  212 1    
   181   91  213 1    
   182   91  214 1    
   183   92   93 2    
   184   92   94 am   BACKBONE|DICT|INTERRES
   185   94   95 1    
   186   94  215 1    
   187   95   96 1    
   188   95   97 1    
   189   95  216 1    
   190   96  217 1    
   191   96  218 1    
   192   96  219 1    
   193   97   98 2    
   194   97   99 am   BACKBONE|DICT|INTERRES
   195   99  100 1    
   196   99  220 1    
   197  100  101 1    
   198  100  102 1    
   199  100  221 1    
   200  101  222 1    
   201  101  223 1    
   202  101  224 1    
   203  102  103 2    
   204  102  104 am   BACKBONE|DICT|INTERRES
   205  104  105 1    
   206  104  225 1    
   207  105  106 1    
   208  105  107 1    
   209  105  226 1    
   210  106  227 1    
   211  106  228 1    
   212  106  229 1    
   213  107  108 2    
   214  107  109 am   BACKBONE|DICT|INTERRES
   215  109  110 1    
   216  109  230 1    
   217  110  111 1    
   218  110  112 1    
   219  110  231 1    
   220  111  232 1    
   221  111  233 1    
   222  111  234 1    
   223  112  113 2    
   224  112  114 am   BACKBONE|DICT|INTERRES
   225  114  115 1    
   226  114  235 1    
   227  115  116 1    
   228  115  117 1    
   229  115  236 1    
   230  116  237 1    
   231  116  238 1    
   232  116  239 1    
   233  117  118 2    
   234  117  119 am   BACKBONE|DICT|INTERRES
   235  119  120 1    
   236  119  240 1    
   237  120  121 1    
   238  120  124 1    
   239  120  241 1    
   240  121  122 am   BACKBONE|DICT|INTERRES
   241  121  123 2    
   242  122  242 1    
   243  122  243 1    
   244  124  125 1    
   245  124  244 1    
   246  124  245 1    
   247  125  126 1    
   248  126  246 1    
   249  126  247 1    
@<TRIPOS>SUBSTRUCTURE
     1 UNK         1 GROUP             0       ****    0 ROOT    
