@<TRIPOS>MOLECULE
3R540
247   249    1
SMALL
USER_CHARGES


@<TRIPOS>ATOM
      1 CA         -3.6160   -9.3276  -47.6910 C.3       0 UNK        -0.1800 
      2 C          -2.2050   -9.7331  -47.2926 C.2       0 UNK         0.5000 
      3 O          -1.6844   -9.2452  -46.2901 O.2       0 UNK        -0.5000 
      4 N          -1.5844  -10.6415  -48.0562 N.am      1 UNK        -0.5000 
      5 CA         -0.2169  -11.1322  -47.8351 C.3       1 UNK         0.1400 
      6 C6          0.3284  -11.8893  -49.0695 C.3       23 UNK        -0.0398 
      7 S7         -0.6118  -13.3916  -49.5162 S.3       23 UNK        -0.2404 
      8 C8          0.5327  -14.6854  -48.9492 C.3       23 UNK        -0.0205 
      9 C9          0.0010  -16.0708  -49.2688 C.ar      23 UNK        -0.0193 
     10 C10         0.3077  -16.6798  -50.4893 C.ar      23 UNK        -0.1150 
     11 C11        -0.1637  -17.9639  -50.7806 C.ar      23 UNK        -0.0193 
     12 C12        -0.9443  -18.6375  -49.8376 C.ar      23 UNK        -0.1150 
     13 C13        -1.2665  -18.0328  -48.6195 C.ar      23 UNK        -0.0193 
     14 C14        -0.7916  -16.7491  -48.3400 C.ar      23 UNK        -0.1150 
     15 C15        -2.1328  -18.7631  -47.6101 C.3       23 UNK        -0.0205 
     16 S16        -1.1176  -19.7463  -46.4705 S.3       23 UNK        -0.2404 
     17 C17        -2.4236  -20.5978  -45.5223 C.3       23 UNK        -0.0398 
     18 CA         -2.5897  -22.0762  -45.9500 C.3       11 UNK         0.1400 
     19 N          -1.3491  -22.8423  -45.7824 N.am      11 UNK        -0.5000 
     20 C          -1.0958  -24.0400  -46.3296 C.2       10 UNK         0.5000 
     21 O          -1.8783  -24.6195  -47.0794 O.2       10 UNK        -0.5000 
     22 CA          0.2193  -24.7437  -45.9342 C.3       10 UNK         0.1400 
     23 CB          1.2875  -24.5204  -47.0153 C.3       10 UNK        -0.1800 
     24 N           0.7649  -24.3185  -44.6433 N.am      10 UNK        -0.5000 
     25 C           0.1338  -24.3622  -43.4608 C.2       9 UNK         0.5000 
     26 O          -0.9898  -24.8423  -43.3058 O.2       9 UNK        -0.5000 
     27 CA          0.8462  -23.6833  -42.2729 C.3       9 UNK         0.1400 
     28 CB          1.6450  -24.7189  -41.4684 C.3       9 UNK        -0.1800 
     29 N           1.7348  -22.5769  -42.6601 N.am      9 UNK        -0.5000 
     30 C           1.3548  -21.4912  -43.3497 C.2       8 UNK         0.5000 
     31 O           0.1990  -21.3083  -43.7374 O.2       8 UNK        -0.5000 
     32 CA          2.4481  -20.4715  -43.7036 C.3       8 UNK         0.1400 
     33 CB          3.5346  -21.0970  -44.5980 C.3       8 UNK        -0.1800 
     34 N           1.8408  -19.3473  -44.4111 N.am      8 UNK        -0.5000 
     35 C           2.2258  -18.0722  -44.3224 C.2       7 UNK         0.5000 
     36 O           3.1548  -17.6872  -43.6075 O.2       7 UNK        -0.5000 
     37 CA          1.4068  -17.0604  -45.1507 C.3       7 UNK         0.1400 
     38 CB          0.0644  -16.7617  -44.4624 C.3       7 UNK        -0.1800 
     39 N           2.1231  -15.7993  -45.3502 N.am      7 UNK        -0.5000 
     40 C           3.2169  -15.6417  -46.1100 C.2       6 UNK         0.5000 
     41 O           3.6681  -16.5223  -46.8435 O.2       6 UNK        -0.5000 
     42 CA          3.9330  -14.2756  -46.0430 C.3       6 UNK         0.1400 
     43 CB          3.7860  -13.5094  -47.3645 C.3       6 UNK        -0.1800 
     44 N           3.4436  -13.4346  -44.9461 N.am      6 UNK        -0.5000 
     45 C           3.9029  -13.5024  -43.6878 C.2       5 UNK         0.5000 
     46 O           4.8350  -14.2329  -43.3479 O.2       5 UNK        -0.5000 
     47 CA          3.1827  -12.6410  -42.6297 C.3       5 UNK         0.1400 
     48 CB          4.0591  -12.3333  -41.3970 C.3       5 UNK        -0.1800 
     49 N           2.5824  -11.4184  -43.1700 N.am      5 UNK        -0.5000 
     50 C           3.2061  -10.3451  -43.6819 C.2       4 UNK         0.5000 
     51 O           4.4295  -10.2509  -43.7867 O.2       4 UNK        -0.5000 
     52 CA          2.3189   -9.1733  -44.1615 C.3       4 UNK         0.1400 
     53 CB          2.5543   -8.8771  -45.6522 C.3       4 UNK        -0.1800 
     54 N           0.8900   -9.4155  -43.9460 N.am      4 UNK        -0.5000 
     55 C           0.2417   -9.2475  -42.7845 C.2       3 UNK         0.5000 
     56 O           0.7538   -8.7512  -41.7812 O.2       3 UNK        -0.5000 
     57 CA         -1.2055   -9.7740  -42.7192 C.3       3 UNK         0.1400 
     58 CB         -2.2133   -8.6406  -42.9633 C.3       3 UNK        -0.1800 
     59 N          -1.4441  -10.8633  -43.6725 N.am      3 UNK        -0.5000 
     60 C          -0.9854  -12.1151  -43.5149 C.2       2 UNK         0.5000 
     61 O          -0.3467  -12.4838  -42.5299 O.2       2 UNK        -0.5000 
     62 CA         -1.2159  -13.1060  -44.6719 C.3       2 UNK         0.1400 
     63 CB         -2.5592  -13.8323  -44.5158 C.3       2 UNK        -0.1800 
     64 N          -1.1588  -12.4655  -45.9845 N.am      2 UNK        -0.5000 
     65 C          -0.0517  -11.9344  -46.5219 C.2       1 UNK         0.5000 
     66 O           1.0582  -12.0217  -45.9942 O.2       1 UNK        -0.5000 
     67 C          -3.8040  -22.7184  -45.2367 C.2       11 UNK         0.5000 
     68 O          -4.9241  -22.2457  -45.4299 O.2       11 UNK        -0.5000 
     69 N          -3.5804  -23.7689  -44.4366 N.am      12 UNK        -0.5000 
     70 CA         -4.6201  -24.6043  -43.8407 C.3       12 UNK         0.1400 
     71 CB         -4.6637  -24.3559  -42.3246 C.3       12 UNK        -0.1800 
     72 C          -4.3741  -26.0924  -44.1418 C.2       12 UNK         0.5000 
     73 O          -5.3295  -26.8198  -44.4136 O.2       12 UNK        -0.5000 
     74 N          -3.1085  -26.5273  -44.0726 N.am      13 UNK        -0.5000 
     75 CA         -2.7084  -27.9318  -44.1600 C.3       13 UNK         0.1400 
     76 CB         -1.3794  -28.1029  -43.4050 C.3       13 UNK        -0.1800 
     77 C          -2.5728  -28.4789  -45.5939 C.2       13 UNK         0.5000 
     78 O          -2.4540  -29.6962  -45.7453 O.2       13 UNK        -0.5000 
     79 N          -2.5534  -27.6088  -46.6114 N.am      14 UNK        -0.5000 
     80 CA         -2.2995  -27.9777  -48.0036 C.3       14 UNK         0.1400 
     81 CB         -0.8094  -27.7381  -48.3170 C.3       14 UNK        -0.1800 
     82 C          -3.2192  -27.2046  -48.9629 C.2       14 UNK         0.5000 
     83 O          -4.0788  -26.4335  -48.5293 O.2       14 UNK        -0.5000 
     84 N          -3.0127  -27.4307  -50.2685 N.am      15 UNK        -0.5000 
     85 CA         -3.7627  -26.8239  -51.3725 C.3       15 UNK         0.1400 
     86 CB         -3.3088  -27.4578  -52.6963 C.3       15 UNK        -0.1800 
     87 C          -3.6453  -25.2904  -51.4501 C.2       15 UNK         0.5000 
     88 O          -4.5555  -24.6497  -51.9736 O.2       15 UNK        -0.5000 
     89 N          -2.5640  -24.7267  -50.8874 N.am      16 UNK        -0.5000 
     90 CA         -2.2966  -23.2872  -50.7737 C.3       16 UNK         0.1400 
     91 CB         -0.8781  -23.0785  -50.2215 C.3       16 UNK        -0.1800 
     92 C          -3.3397  -22.4994  -49.9514 C.2       16 UNK         0.5000 
     93 O          -3.3196  -21.2701  -49.9763 O.2       16 UNK        -0.5000 
     94 N          -4.2623  -23.2033  -49.2786 N.am      17 UNK        -0.5000 
     95 CA         -5.5052  -22.6577  -48.7339 C.3       17 UNK         0.1400 
     96 CB         -6.2662  -23.7855  -48.0200 C.3       17 UNK        -0.1800 
     97 C          -6.4032  -21.9967  -49.8029 C.2       17 UNK         0.5000 
     98 O          -7.1199  -21.0480  -49.4812 O.2       17 UNK        -0.5000 
     99 N          -6.3321  -22.4827  -51.0505 N.am      18 UNK        -0.5000 
    100 CA        -6.9148  -21.8416  -52.2230 C.3       18 UNK         0.1400 
    101 CB        -7.4119  -22.9221  -53.1964 C.3       18 UNK        -0.1800 
    102 C         -5.8412  -20.9694  -52.8912 C.2       18 UNK         0.5000 
    103 O         -4.7455  -21.4590  -53.1730 O.2       18 UNK        -0.5000 
    104 N         -6.1819  -19.7066  -53.1797 N.am      19 UNK        -0.5000 
    105 CA        -5.2885  -18.7270  -53.8113 C.3       19 UNK         0.1400 
    106 CB        -5.9630  -17.3472  -53.7916 C.3       19 UNK        -0.1800 
    107 C         -4.8639  -19.0999  -55.2468 C.2       19 UNK         0.5000 
    108 O         -3.8153  -18.6521  -55.7092 O.2       19 UNK        -0.5000 
    109 N         -5.6665  -19.9370  -55.9177 N.am      20 UNK        -0.5000 
    110 CA        -5.3880  -20.4875  -57.2445 C.3       20 UNK         0.1400 
    111 CB        -6.6577  -21.1771  -57.7674 C.3       20 UNK        -0.1800 
    112 C         -4.1941  -21.4649  -57.2747 C.2       20 UNK         0.5000 
    113 O         -3.6227  -21.6759  -58.3450 O.2       20 UNK        -0.5000 
    114 N         -3.8385  -22.0464  -56.1194 N.am      21 UNK        -0.5000 
    115 CA        -2.7256  -22.9866  -55.9788 C.3       21 UNK         0.1400 
    116 CB        -3.0377  -23.9547  -54.8296 C.3       21 UNK        -0.1800 
    117 C         -1.3667  -22.2937  -55.7534 C.2       21 UNK         0.5000 
    118 O         -0.3407  -22.9741  -55.8042 O.2       21 UNK        -0.5000 
    119 N         -1.3650  -20.9770  -55.5002 N.am      22 UNK        -0.5000 
    120 CA        -0.1518  -20.1585  -55.3472 C.3       22 UNK         0.1400 
    121 C          0.6899  -20.0861  -56.6532 C.2       22 UNK         0.5000 
    122 N          2.0117  -20.1226  -56.5503 N.am      22 UNK        -0.7600 
    123 O          0.1582  -19.9510  -57.7531 O.2       22 UNK        -0.5000 
    124 C124       -0.4760  -18.7272  -54.8523 C.3       23 UNK        -0.0398 
    125 S125       -1.2731  -18.6841  -53.2110 S.3       23 UNK        -0.2404 
    126 C126        0.1754  -18.6241  -52.1083 C.3       23 UNK        -0.0205 
    127 H127       -4.3123   -9.5513  -46.8829 H         1 UNK         0.0600 
    128 H128       -3.9512   -9.8528  -48.5857 H         1 UNK         0.0600 
    129 H129       -3.6551   -8.2566  -47.8896 H         1 UNK         0.0600 
    130 H130       -2.0608  -11.0287  -48.8591 H         1 UNK         0.3000 
    131 H131        0.4092  -10.2457  -47.7153 H         1 UNK         0.0600 
    132 H132        0.3024  -11.2235  -49.9332 H         1 UNK         0.0800 
    133 H133        1.3829  -12.1293  -48.9374 H         1 UNK         0.0800 
    134 H134        1.5070  -14.5472  -49.4206 H         1 UNK         0.0800 
    135 H135        0.6889  -14.5888  -47.8738 H         1 UNK         0.0800 
    136 H136        0.9139  -16.1516  -51.2119 H         1 UNK         0.1150 
    137 H137       -1.3107  -19.6295  -50.0587 H         1 UNK         0.1150 
    138 H138       -1.0389  -16.2771  -47.4003 H         1 UNK         0.1150 
    139 H139       -2.7299  -18.0482  -47.0418 H         1 UNK         0.0800 
    140 H140       -2.8383  -19.4151  -48.1267 H         1 UNK         0.0800 
    141 H141       -3.3609  -20.0522  -45.6457 H         1 UNK         0.0800 
    142 H142       -2.1809  -20.5305  -44.4610 H         1 UNK         0.0800 
    143 H143       -2.8286  -22.0815  -47.0146 H         1 UNK         0.0600 
    144 H144       -0.6664  -22.4267  -45.1566 H         1 UNK         0.3000 
    145 H145        0.0094  -25.8131  -45.8679 H         1 UNK         0.0600 
    146 H146        2.1941  -25.0849  -46.7970 H         1 UNK         0.0600 
    147 H147        0.9345  -24.8452  -47.9943 H         1 UNK         0.0600 
    148 H148        1.5584  -23.4671  -47.0994 H         1 UNK         0.0600 
    149 H149        1.6819  -23.8983  -44.6652 H         1 UNK         0.3000 
    150 H150        0.0697  -23.2706  -41.6256 H         1 UNK         0.0600 
    151 H151        2.4604  -25.1431  -42.0557 H         1 UNK         0.0600 
    152 H152        1.0060  -25.5439  -41.1500 H         1 UNK         0.0600 
    153 H153        2.0727  -24.2759  -40.5688 H         1 UNK         0.0600 
    154 H154        2.7004  -22.6610  -42.3765 H         1 UNK         0.3000 
    155 H155        2.8941  -20.1293  -42.7675 H         1 UNK         0.0600 
    156 H156        3.1135  -21.4912  -45.5239 H         1 UNK         0.0600 
    157 H157        4.0474  -21.9158  -44.0925 H         1 UNK         0.0600 
    158 H158        4.2938  -20.3617  -44.8653 H         1 UNK         0.0600 
    159 H159        1.0044  -19.5859  -44.9316 H         1 UNK         0.3000 
    160 H160        1.2091  -17.5025  -46.1297 H         1 UNK         0.0600 
    161 H161        0.2033  -16.2411  -43.5141 H         1 UNK         0.0600 
    162 H162       -0.4871  -17.6789  -44.2524 H         1 UNK         0.0600 
    163 H163       -0.5737  -16.1482  -45.0961 H         1 UNK         0.0600 
    164 H164        1.8564  -15.0306  -44.7561 H         1 UNK         0.3000 
    165 H165        4.9963  -14.4767  -45.8969 H         1 UNK         0.0600 
    166 H166        4.1823  -14.0864  -48.2008 H         1 UNK         0.0600 
    167 H167        2.7431  -13.2937  -47.5791 H         1 UNK         0.0600 
    168 H168        4.3256  -12.5627  -47.3349 H         1 UNK         0.0600 
    169 H169        2.6742  -12.8076  -45.1655 H         1 UNK         0.3000 
    170 H170        2.3463  -13.2487  -42.2820 H         1 UNK         0.0600 
    171 H171        4.3619  -13.2519  -40.8933 H         1 UNK         0.0600 
    172 H172        4.9684  -11.7964  -41.6680 H         1 UNK         0.0600 
    173 H173        3.5168  -11.7304  -40.6685 H         1 UNK         0.0600 
    174 H174        1.5719  -11.3973  -43.1430 H         1 UNK         0.3000 
    175 H175        2.6142   -8.2894  -43.5926 H         1 UNK         0.0600 
    176 H176        1.9080   -8.0726  -46.0040 H         1 UNK         0.0600 
    177 H177        3.5843   -8.5650  -45.8283 H         1 UNK         0.0600 
    178 H178        2.3719   -9.7528  -46.2739 H         1 UNK         0.0600 
    179 H179        0.3812   -9.8186  -44.7199 H         1 UNK         0.3000 
    180 H180       -1.3718  -10.1582  -41.7104 H         1 UNK         0.0600 
    181 H181       -2.0685   -8.1694  -43.9353 H         1 UNK         0.0600 
    182 H182       -2.1101   -7.8616  -42.2069 H         1 UNK         0.0600 
    183 H183       -3.2392   -9.0059  -42.9153 H         1 UNK         0.0600 
    184 H184       -1.9016  -10.6083  -44.5386 H         1 UNK         0.3000 
    185 H185       -0.4168  -13.8472  -44.6267 H         1 UNK         0.0600 
    186 H186       -2.6137  -14.3487  -43.5565 H         1 UNK         0.0600 
    187 H187       -3.4003  -13.1398  -44.5656 H         1 UNK         0.0600 
    188 H188       -2.6945  -14.5824  -45.2953 H         1 UNK         0.0600 
    189 H189       -2.0302  -12.3595  -46.4831 H         1 UNK         0.3000 
    190 H190       -2.6239  -24.0692  -44.2933 H         1 UNK         0.3000 
    191 H191       -5.5978  -24.3539  -44.2580 H         1 UNK         0.0600 
    192 H192       -4.9099  -23.3169  -42.1050 H         1 UNK         0.0600 
    193 H193       -5.4216  -24.9784  -41.8475 H         1 UNK         0.0600 
    194 H194       -3.7063  -24.5798  -41.8521 H         1 UNK         0.0600 
    195 H195       -2.3721  -25.8809  -43.7995 H         1 UNK         0.3000 
    196 H196       -3.4603  -28.5401  -43.6526 H         1 UNK         0.0600 
    197 H197       -1.0800  -29.1511  -43.3684 H         1 UNK         0.0600 
    198 H198       -1.4609  -27.7538  -42.3754 H         1 UNK         0.0600 
    199 H199       -0.5713  -27.5485  -43.8838 H         1 UNK         0.0600 
    200 H200       -2.7221  -26.6231  -46.4484 H         1 UNK         0.3000 
    201 H201       -2.5223  -29.0355  -48.1564 H         1 UNK         0.0600 
    202 H202       -0.5356  -28.1370  -49.2939 H         1 UNK         0.0600 
    203 H203       -0.5677  -26.6760  -48.3171 H         1 UNK         0.0600 
    204 H204       -0.1669  -28.2264  -47.5840 H         1 UNK         0.0600 
    205 H205       -2.2908  -28.0843  -50.5352 H         1 UNK         0.3000 
    206 H206       -4.8184  -27.0597  -51.2235 H         1 UNK         0.0600 
    207 H207       -3.4734  -28.5354  -52.6961 H         1 UNK         0.0600 
    208 H208       -3.8670  -27.0457  -53.5384 H         1 UNK         0.0600 
    209 H209       -2.2499  -27.2778  -52.8864 H         1 UNK         0.0600 
    210 H210       -1.8892  -25.3390  -50.4545 H         1 UNK         0.3000 
    211 H211       -2.3244  -22.8680  -51.7806 H         1 UNK         0.0600 
    212 H212       -0.7706  -23.5006  -49.2243 H         1 UNK         0.0600 
    213 H213       -0.6337  -22.0177  -50.1550 H         1 UNK         0.0600 
    214 H214       -0.1310  -23.5420  -50.8658 H         1 UNK         0.0600 
    215 H215       -4.1695  -24.2111  -49.2566 H         1 UNK         0.3000 
    216 H216       -5.2415  -21.8884  -48.0071 H         1 UNK         0.0600 
    217 H217       -7.1668  -23.4040  -47.5374 H         1 UNK         0.0600 
    218 H218       -5.6543  -24.2499  -47.2463 H         1 UNK         0.0600 
    219 H219       -6.5688  -24.5687  -48.7163 H         1 UNK         0.0600 
    220 H220       -5.6716  -23.2294  -51.2515 H         1 UNK         0.3000 
    221 H221       -7.7664  -21.2217  -51.9352 H         1 UNK         0.0600 
    222 H222       -6.5990  -23.5656  -53.5364 H         1 UNK         0.0600 
    223 H223       -8.1652  -23.5560  -52.7286 H         1 UNK         0.0600 
    224 H224       -7.8663  -22.4728  -54.0802 H         1 UNK         0.0600 
    225 H225       -7.1021  -19.3757  -52.9268 H         1 UNK         0.3000 
    226 H226       -4.3793  -18.6712  -53.2091 H         1 UNK         0.0600 
    227 H227       -5.3117  -16.5884  -54.2276 H         1 UNK         0.0600 
    228 H228       -6.8944  -17.3462  -54.3590 H         1 UNK         0.0600 
    229 H229       -6.1881  -17.0322  -52.7725 H         1 UNK         0.0600 
    230 H230       -6.5111  -20.2516  -55.4643 H         1 UNK         0.3000 
    231 H231       -5.1482  -19.6572  -57.9121 H         1 UNK         0.0600 
    232 H232       -6.9569  -22.0077  -57.1266 H         1 UNK         0.0600 
    233 H233       -6.5014  -21.5763  -58.7705 H         1 UNK         0.0600 
    234 H234       -7.4922  -20.4780  -57.8245 H         1 UNK         0.0600 
    235 H235       -4.3315  -21.8065  -55.2666 H         1 UNK         0.3000 
    236 H236       -2.6385  -23.5775  -56.8930 H         1 UNK         0.0600 
    237 H237       -2.2607  -24.7131  -54.7269 H         1 UNK         0.0600 
    238 H238       -3.1063  -23.4258  -53.8810 H         1 UNK         0.0600 
    239 H239       -3.9820  -24.4749  -54.9908 H         1 UNK         0.0600 
    240 H240       -2.2435  -20.4776  -55.4923 H         1 UNK         0.3000 
    241 H241        0.4617  -20.6425  -54.5847 H         1 UNK         0.0600 
    242 H242        2.4728  -20.2282  -55.6597 H         1 UNK         0.3800 
    243 H243        2.5691  -20.0606  -57.3886 H         1 UNK         0.3800 
    244 H244       -1.1397  -18.2284  -55.5605 H         1 UNK         0.0800 
    245 H245        0.4266  -18.1147  -54.8184 H         1 UNK         0.0800 
    246 H246        0.5354  -19.6391  -51.9337 H         1 UNK         0.0800 
    247 H247        0.9931  -18.0862  -52.5897 H         1 UNK         0.0800 
@<TRIPOS>BOND
     1    1    2 1    
     2    1  127 1    
     3    1  128 1    
     4    1  129 1    
     5    2    3 2    
     6    2    4 am   BACKBONE|DICT|INTERRES
     7    4    5 1    
     8    4  130 1    
     9    5    6 1    
    10    5   65 1    
    11    5  131 1    
    12    6    7 1    
    13    6  132 1    
    14    6  133 1    
    15    7    8 1    
    16    8    9 1    
    17    8  134 1    
    18    8  135 1    
    19    9   10 ar   
    20    9   14 ar   
    21   10   11 ar   
    22   10  136 1    
    23   11   12 ar   
    24   11  126 1    
    25   12   13 ar   
    26   12  137 1    
    27   13   14 ar   
    28   13   15 1    
    29   14  138 1    
    30   15   16 1    
    31   15  139 1    
    32   15  140 1    
    33   16   17 1    
    34   17   18 1    
    35   17  141 1    
    36   17  142 1    
    37   18   19 1    
    38   18   67 1    
    39   18  143 1    
    40   19   20 am   BACKBONE|DICT|INTERRES
    41   19  144 1    
    42   20   21 2    
    43   20   22 1    
    44   22   23 1    
    45   22   24 1    
    46   22  145 1    
    47   23  146 1    
    48   23  147 1    
    49   23  148 1    
    50   24   25 am   BACKBONE|DICT|INTERRES
    51   24  149 1    
    52   25   26 2    
    53   25   27 1    
    54   27   28 1    
    55   27   29 1    
    56   27  150 1    
    57   28  151 1    
    58   28  152 1    
    59   28  153 1    
    60   29   30 am   BACKBONE|DICT|INTERRES
    61   29  154 1    
    62   30   31 2    
    63   30   32 1    
    64   32   33 1    
    65   32   34 1    
    66   32  155 1    
    67   33  156 1    
    68   33  157 1    
    69   33  158 1    
    70   34   35 am   BACKBONE|DICT|INTERRES
    71   34  159 1    
    72   35   36 2    
    73   35   37 1    
    74   37   38 1    
    75   37   39 1    
    76   37  160 1    
    77   38  161 1    
    78   38  162 1    
    79   38  163 1    
    80   39   40 am   BACKBONE|DICT|INTERRES
    81   39  164 1    
    82   40   41 2    
    83   40   42 1    
    84   42   43 1    
    85   42   44 1    
    86   42  165 1    
    87   43  166 1    
    88   43  167 1    
    89   43  168 1    
    90   44   45 am   BACKBONE|DICT|INTERRES
    91   44  169 1    
    92   45   46 2    
    93   45   47 1    
    94   47   48 1    
    95   47   49 1    
    96   47  170 1    
    97   48  171 1    
    98   48  172 1    
    99   48  173 1    
   100   49   50 am   BACKBONE|DICT|INTERRES
   101   49  174 1    
   102   50   51 2    
   103   50   52 1    
   104   52   53 1    
   105   52   54 1    
   106   52  175 1    
   107   53  176 1    
   108   53  177 1    
   109   53  178 1    
   110   54   55 am   BACKBONE|DICT|INTERRES
   111   54  179 1    
   112   55   56 2    
   113   55   57 1    
   114   57   58 1    
   115   57   59 1    
   116   57  180 1    
   117   58  181 1    
   118   58  182 1    
   119   58  183 1    
   120   59   60 am   BACKBONE|DICT|INTERRES
   121   59  184 1    
   122   60   61 2    
   123   60   62 1    
   124   62   63 1    
   125   62   64 1    
   126   62  185 1    
   127   63  186 1    
   128   63  187 1    
   129   63  188 1    
   130   64   65 am   BACKBONE|DICT|INTERRES
   131   64  189 1    
   132   65   66 2    
   133   67   68 2    
   134   67   69 am   BACKBONE|DICT|INTERRES
   135   69   70 1    
   136   69  190 1    
   137   70   71 1    
   138   70   72 1    
   139   70  191 1    
   140   71  192 1    
   141   71  193 1    
   142   71  194 1    
   143   72   73 2    
   144   72   74 am   BACKBONE|DICT|INTERRES
   145   74   75 1    
   146   74  195 1    
   147   75   76 1    
   148   75   77 1    
   149   75  196 1    
   150   76  197 1    
   151   76  198 1    
   152   76  199 1    
   153   77   78 2    
   154   77   79 am   BACKBONE|DICT|INTERRES
   155   79   80 1    
   156   79  200 1    
   157   80   81 1    
   158   80   82 1    
   159   80  201 1    
   160   81  202 1    
   161   81  203 1    
   162   81  204 1    
   163   82   83 2    
   164   82   84 am   BACKBONE|DICT|INTERRES
   165   84   85 1    
   166   84  205 1    
   167   85   86 1    
   168   85   87 1    
   169   85  206 1    
   170   86  207 1    
   171   86  208 1    
   172   86  209 1    
   173   87   88 2    
   174   87   89 am   BACKBONE|DICT|INTERRES
   175   89   90 1    
   176   89  210 1    
   177   90   91 1    
   178   90   92 1    
   179   90  211 1    
   180   91  212 1    
   181   91  213 1    
   182   91  214 1    
   183   92   93 2    
   184   92   94 am   BACKBONE|DICT|INTERRES
   185   94   95 1    
   186   94  215 1    
   187   95   96 1    
   188   95   97 1    
   189   95  216 1    
   190   96  217 1    
   191   96  218 1    
   192   96  219 1    
   193   97   98 2    
   194   97   99 am   BACKBONE|DICT|INTERRES
   195   99  100 1    
   196   99  220 1    
   197  100  101 1    
   198  100  102 1    
   199  100  221 1    
   200  101  222 1    
   201  101  223 1    
   202  101  224 1    
   203  102  103 2    
   204  102  104 am   BACKBONE|DICT|INTERRES
   205  104  105 1    
   206  104  225 1    
   207  105  106 1    
   208  105  107 1    
   209  105  226 1    
   210  106  227 1    
   211  106  228 1    
   212  106  229 1    
   213  107  108 2    
   214  107  109 am   BACKBONE|DICT|INTERRES
   215  109  110 1    
   216  109  230 1    
   217  110  111 1    
   218  110  112 1    
   219  110  231 1    
   220  111  232 1    
   221  111  233 1    
   222  111  234 1    
   223  112  113 2    
   224  112  114 am   BACKBONE|DICT|INTERRES
   225  114  115 1    
   226  114  235 1    
   227  115  116 1    
   228  115  117 1    
   229  115  236 1    
   230  116  237 1    
   231  116  238 1    
   232  116  239 1    
   233  117  118 2    
   234  117  119 am   BACKBONE|DICT|INTERRES
   235  119  120 1    
   236  119  240 1    
   237  120  121 1    
   238  120  124 1    
   239  120  241 1    
   240  121  122 am   BACKBONE|DICT|INTERRES
   241  121  123 2    
   242  122  242 1    
   243  122  243 1    
   244  124  125 1    
   245  124  244 1    
   246  124  245 1    
   247  125  126 1    
   248  126  246 1    
   249  126  247 1    
@<TRIPOS>SUBSTRUCTURE
     1 UNK         1 GROUP             0       ****    0 ROOT    
