@<TRIPOS>MOLECULE
3R540
247   249    1
SMALL
USER_CHARGES


@<TRIPOS>ATOM
      1 CA          2.6579   -5.7011  -50.4889 C.3       0 UNK        -0.1800 
      2 C           2.6723   -7.1351  -49.9790 C.2       0 UNK         0.5000 
      3 O           3.6837   -7.5844  -49.4378 O.2       0 UNK        -0.5000 
      4 N           1.5568   -7.8568  -50.1462 N.am      1 UNK        -0.5000 
      5 CA          1.3657   -9.2363  -49.6911 C.3       1 UNK         0.1400 
      6 C6          0.2879   -9.9647  -50.5353 C.3       23 UNK        -0.0398 
      7 S7          0.3958  -11.7841  -50.4061 S.3       23 UNK        -0.2404 
      8 C8         -1.1520  -12.1673  -49.5296 C.3       23 UNK        -0.0205 
      9 C9         -1.3606  -13.6674  -49.4007 C.ar      23 UNK        -0.0193 
     10 C10        -1.9892  -14.3774  -50.4273 C.ar      23 UNK        -0.1150 
     11 C11        -2.1996  -15.7548  -50.3155 C.ar      23 UNK        -0.0193 
     12 C12        -1.7695  -16.4238  -49.1649 C.ar      23 UNK        -0.1150 
     13 C13        -1.1291  -15.7250  -48.1349 C.ar      23 UNK        -0.0193 
     14 C14        -0.9353  -14.3455  -48.2549 C.ar      23 UNK        -0.1150 
     15 C15        -0.6265  -16.4685  -46.9081 C.3       23 UNK        -0.0205 
     16 S16        -1.9541  -16.7001  -45.6903 S.3       23 UNK        -0.2404 
     17 C17        -1.3019  -18.0953  -44.7074 C.3       23 UNK        -0.0398 
     18 CA         -1.4541  -19.4677  -45.4118 C.3       11 UNK         0.1400 
     19 N          -0.7395  -20.5393  -44.7154 N.am      11 UNK        -0.5000 
     20 C          -0.5471  -21.7745  -45.2026 C.2       10 UNK         0.5000 
     21 O          -0.8982  -22.1267  -46.3261 O.2       10 UNK        -0.5000 
     22 CA          0.0888  -22.8084  -44.2575 C.3       10 UNK         0.1400 
     23 CB          1.6218  -22.7101  -44.2586 C.3       10 UNK        -0.1800 
     24 N          -0.4167  -22.6712  -42.8934 N.am      10 UNK        -0.5000 
     25 C          -1.6725  -22.9617  -42.5253 C.2       9 UNK         0.5000 
     26 O          -2.5153  -23.4415  -43.2848 O.2       9 UNK        -0.5000 
     27 CA         -2.0572  -22.6072  -41.0772 C.3       9 UNK         0.1400 
     28 CB         -1.6401  -23.7291  -40.1149 C.3       9 UNK        -0.1800 
     29 N          -1.4624  -21.3421  -40.6371 N.am      9 UNK        -0.5000 
     30 C          -1.7960  -20.1405  -41.1297 C.2       8 UNK         0.5000 
     31 O          -2.6666  -19.9719  -41.9823 O.2       8 UNK        -0.5000 
     32 CA         -0.9858  -18.9318  -40.6241 C.3       8 UNK         0.1400 
     33 CB         -1.5733  -18.3995  -39.3088 C.3       8 UNK        -0.1800 
     34 N           0.4382  -19.2274  -40.4392 N.am      8 UNK        -0.5000 
     35 C           1.2765  -19.5739  -41.4243 C.2       7 UNK         0.5000 
     36 O           0.9360  -19.6868  -42.6044 O.2       7 UNK        -0.5000 
     37 CA          2.7185  -19.8956  -41.0148 C.3       7 UNK         0.1400 
     38 CB          2.7875  -21.2602  -40.3026 C.3       7 UNK        -0.1800 
     39 N           3.5657  -19.9210  -42.2040 N.am      7 UNK        -0.5000 
     40 C           4.8930  -19.7565  -42.2112 C.2       6 UNK         0.5000 
     41 O           5.5509  -19.5193  -41.1968 O.2       6 UNK        -0.5000 
     42 CA          5.6280  -19.9042  -43.5593 C.3       6 UNK         0.1400 
     43 CB          6.3805  -21.2439  -43.6065 C.3       6 UNK        -0.1800 
     44 N           4.7642  -19.8175  -44.7403 N.am      6 UNK        -0.5000 
     45 C           4.2735  -18.6787  -45.2421 C.2       5 UNK         0.5000 
     46 O           4.4216  -17.5723  -44.7150 O.2       5 UNK        -0.5000 
     47 CA          3.4912  -18.7998  -46.5585 C.3       5 UNK         0.1400 
     48 CB          2.0986  -19.4077  -46.3250 C.3       5 UNK        -0.1800 
     49 N           3.3646  -17.4711  -47.1452 N.am      5 UNK        -0.5000 
     50 C           3.1251  -17.1990  -48.4342 C.2       4 UNK         0.5000 
     51 O           2.9621  -18.0692  -49.2902 O.2       4 UNK        -0.5000 
     52 CA          3.0448  -15.7098  -48.8226 C.3       4 UNK         0.1400 
     53 CB          2.1320  -15.4560  -50.0384 C.3       4 UNK        -0.1800 
     54 N           2.6099  -14.9048  -47.6793 N.am      4 UNK        -0.5000 
     55 C           2.9575  -13.6356  -47.4530 C.2       3 UNK         0.5000 
     56 O           3.6555  -12.9617  -48.2167 O.2       3 UNK        -0.5000 
     57 CA          2.4646  -13.0263  -46.1321 C.3       3 UNK         0.1400 
     58 CB          3.3304  -13.5030  -44.9500 C.3       3 UNK        -0.1800 
     59 N           2.5258  -11.5774  -46.2594 N.am      3 UNK        -0.5000 
     60 C           1.9373  -10.6707  -45.4720 C.2       2 UNK         0.5000 
     61 O           1.2880  -10.9499  -44.4637 O.2       2 UNK        -0.5000 
     62 CA          2.0808   -9.1993  -45.9091 C.3       2 UNK         0.1400 
     63 CB          3.3476   -8.5743  -45.3055 C.3       2 UNK        -0.1800 
     64 N           2.1234   -9.0627  -47.3670 N.am      2 UNK        -0.5000 
     65 C           1.0735   -9.2579  -48.1749 C.2       1 UNK         0.5000 
     66 O          -0.0760   -9.4212  -47.7626 O.2       1 UNK        -0.5000 
     67 C          -2.9277  -19.8364  -45.6715 C.2       11 UNK         0.5000 
     68 O          -3.4042  -19.6298  -46.7854 O.2       11 UNK        -0.5000 
     69 N          -3.6053  -20.4213  -44.6738 N.am      12 UNK        -0.5000 
     70 CA         -4.9734  -20.9249  -44.7986 C.3       12 UNK         0.1400 
     71 CB         -5.4788  -21.4139  -43.4332 C.3       12 UNK        -0.1800 
     72 C          -5.1005  -22.0243  -45.8691 C.2       12 UNK         0.5000 
     73 O          -5.9969  -21.9455  -46.7085 O.2       12 UNK        -0.5000 
     74 N          -4.1704  -22.9910  -45.8597 N.am      13 UNK        -0.5000 
     75 CA         -4.0735  -24.0496  -46.8679 C.3       13 UNK         0.1400 
     76 CB         -3.0335  -25.0898  -46.4281 C.3       13 UNK        -0.1800 
     77 C          -3.7444  -23.5159  -48.2748 C.2       13 UNK         0.5000 
     78 O          -4.2913  -24.0196  -49.2580 O.2       13 UNK        -0.5000 
     79 N          -2.8726  -22.5016  -48.3494 N.am      14 UNK        -0.5000 
     80 CA         -2.5193  -21.7995  -49.5794 C.3       14 UNK         0.1400 
     81 CB         -1.3130  -20.8759  -49.3432 C.3       14 UNK        -0.1800 
     82 C          -3.7060  -21.0239  -50.1670 C.2       14 UNK         0.5000 
     83 O          -4.0140  -21.2110  -51.3435 O.2       14 UNK        -0.5000 
     84 N          -4.3644  -20.2064  -49.3340 N.am      15 UNK        -0.5000 
     85 CA         -5.5168  -19.3738  -49.6834 C.3       15 UNK         0.1400 
     86 CB         -5.8448  -18.4342  -48.5142 C.3       15 UNK        -0.1800 
     87 C          -6.7557  -20.1854  -50.0960 C.2       15 UNK         0.5000 
     88 O          -7.4387  -19.8025  -51.0468 O.2       15 UNK        -0.5000 
     89 N          -6.9955  -21.3139  -49.4138 N.am      16 UNK        -0.5000 
     90 CA         -8.0438  -22.2812  -49.7513 C.3       16 UNK         0.1400 
     91 CB         -8.2527  -23.2260  -48.5569 C.3       16 UNK        -0.1800 
     92 C          -7.7396  -23.0995  -51.0231 C.2       16 UNK         0.5000 
     93 O          -8.6299  -23.7937  -51.5149 O.2       16 UNK        -0.5000 
     94 N          -6.4899  -23.0305  -51.5071 N.am      17 UNK        -0.5000 
     95 CA         -5.9172  -23.7820  -52.6254 C.3       17 UNK         0.1400 
     96 CB         -6.6097  -23.4340  -53.9578 C.3       17 UNK        -0.1800 
     97 C          -5.8339  -25.2989  -52.3579 C.2       17 UNK         0.5000 
     98 O          -5.7320  -26.0836  -53.3008 O.2       17 UNK        -0.5000 
     99 N          -5.8020  -25.6865  -51.0751 N.am      18 UNK        -0.5000 
    100 CA        -5.5413  -27.0514  -50.6147 C.3       18 UNK         0.1400 
    101 CB        -5.9209  -27.1677  -49.1308 C.3       18 UNK        -0.1800 
    102 C         -4.0690  -27.4433  -50.8371 C.2       18 UNK         0.5000 
    103 O         -3.7825  -28.5968  -51.1562 O.2       18 UNK        -0.5000 
    104 N         -3.1738  -26.4515  -50.7252 N.am      19 UNK        -0.5000 
    105 CA        -1.7582  -26.5445  -51.0887 C.3       19 UNK         0.1400 
    106 CB        -0.9583  -25.5884  -50.1882 C.3       19 UNK        -0.1800 
    107 C         -1.5053  -26.2456  -52.5856 C.2       19 UNK         0.5000 
    108 O         -0.3456  -26.1756  -52.9929 O.2       19 UNK        -0.5000 
    109 N         -2.5806  -26.0590  -53.3707 N.am      20 UNK        -0.5000 
    110 CA        -2.6081  -25.7453  -54.8060 C.3       20 UNK         0.1400 
    111 CB        -2.0465  -26.9209  -55.6330 C.3       20 UNK        -0.1800 
    112 C         -1.9537  -24.3904  -55.1563 C.2       20 UNK         0.5000 
    113 O         -1.3605  -24.2514  -56.2280 O.2       20 UNK        -0.5000 
    114 N         -2.0717  -23.4198  -54.2411 N.am      21 UNK        -0.5000 
    115 CA        -1.5138  -22.0747  -54.3625 C.3       21 UNK         0.1400 
    116 CB        -0.7479  -21.7423  -53.0678 C.3       21 UNK        -0.1800 
    117 C         -2.6121  -21.0478  -54.7159 C.2       21 UNK         0.5000 
    118 O         -3.5417  -21.3709  -55.4579 O.2       21 UNK        -0.5000 
    119 N         -2.4503  -19.8163  -54.2200 N.am      22 UNK        -0.5000 
    120 CA        -3.2491  -18.6200  -54.5306 C.3       22 UNK         0.1400 
    121 C         -4.7277  -18.5975  -54.0418 C.2       22 UNK         0.5000 
    122 N         -5.1833  -19.5204  -53.2099 N.am      22 UNK        -0.7600 
    123 O         -5.4883  -17.7221  -54.4460 O.2       22 UNK        -0.5000 
    124 C124       -2.4858  -17.3214  -54.1446 C.3       23 UNK        -0.0398 
    125 S125       -1.6748  -17.3542  -52.5013 S.3       23 UNK        -0.2404 
    126 C126       -2.8889  -16.5118  -51.4412 C.3       23 UNK        -0.0205 
    127 H127        2.8391   -5.0092  -49.6664 H         1 UNK         0.0600 
    128 H128        1.7029   -5.4428  -50.9469 H         1 UNK         0.0600 
    129 H129        3.4414   -5.5601  -51.2335 H         1 UNK         0.0600 
    130 H130        0.7501   -7.4211  -50.5708 H         1 UNK         0.3000 
    131 H131        2.3067   -9.7697  -49.8471 H         1 UNK         0.0600 
    132 H132       -0.7175   -9.6161  -50.2928 H         1 UNK         0.0800 
    133 H133        0.4315   -9.7259  -51.5900 H         1 UNK         0.0800 
    134 H134       -1.9936  -11.7244  -50.0643 H         1 UNK         0.0800 
    135 H135       -1.1377  -11.7074  -48.5410 H         1 UNK         0.0800 
    136 H136       -2.3132  -13.8549  -51.3165 H         1 UNK         0.1150 
    137 H137       -1.9256  -17.4901  -49.0753 H         1 UNK         0.1150 
    138 H138       -0.4479  -13.7985  -47.4612 H         1 UNK         0.1150 
    139 H139       -0.2168  -17.4289  -47.2209 H         1 UNK         0.0800 
    140 H140        0.1909  -15.9258  -46.4339 H         1 UNK         0.0800 
    141 H141       -1.8196  -18.1026  -43.7479 H         1 UNK         0.0800 
    142 H142       -0.2555  -17.8954  -44.4765 H         1 UNK         0.0800 
    143 H143       -0.9797  -19.3892  -46.3901 H         1 UNK         0.0600 
    144 H144       -0.3490  -20.3097  -43.8058 H         1 UNK         0.3000 
    145 H145       -0.1834  -23.8012  -44.6224 H         1 UNK         0.0600 
    146 H146        2.0656  -23.4810  -43.6285 H         1 UNK         0.0600 
    147 H147        2.0184  -22.8474  -45.2652 H         1 UNK         0.0600 
    148 H148        1.9692  -21.7439  -43.8965 H         1 UNK         0.0600 
    149 H149        0.1997  -22.2467  -42.2181 H         1 UNK         0.3000 
    150 H150       -3.1440  -22.5072  -41.0361 H         1 UNK         0.0600 
    151 H151       -2.0821  -24.6813  -40.4115 H         1 UNK         0.0600 
    152 H152       -1.9736  -23.5202  -39.0982 H         1 UNK         0.0600 
    153 H153       -0.5577  -23.8621  -40.0929 H         1 UNK         0.0600 
    154 H154       -0.7400  -21.3939  -39.9343 H         1 UNK         0.3000 
    155 H155       -1.0672  -18.1432  -41.3747 H         1 UNK         0.0600 
    156 H156       -1.4928  -19.1317  -38.5044 H         1 UNK         0.0600 
    157 H157       -1.0634  -17.4908  -38.9885 H         1 UNK         0.0600 
    158 H158       -2.6298  -18.1537  -39.4247 H         1 UNK         0.0600 
    159 H159        0.7915  -19.1609  -39.4954 H         1 UNK         0.3000 
    160 H160        3.0616  -19.1078  -40.3409 H         1 UNK         0.0600 
    161 H161        2.4599  -22.0703  -40.9554 H         1 UNK         0.0600 
    162 H162        2.1573  -21.2776  -39.4129 H         1 UNK         0.0600 
    163 H163        3.8033  -21.4863  -39.9779 H         1 UNK         0.0600 
    164 H164        3.0677  -20.0370  -43.0761 H         1 UNK         0.3000 
    165 H165        6.3659  -19.1008  -43.6130 H         1 UNK         0.0600 
    166 H166        6.9730  -21.3327  -44.5173 H         1 UNK         0.0600 
    167 H167        7.0680  -21.3381  -42.7648 H         1 UNK         0.0600 
    168 H168        5.6951  -22.0915  -43.5661 H         1 UNK         0.0600 
    169 H169        4.5941  -20.6836  -45.2310 H         1 UNK         0.3000 
    170 H170        4.0610  -19.4366  -47.2386 H         1 UNK         0.0600 
    171 H171        2.1774  -20.4304  -45.9605 H         1 UNK         0.0600 
    172 H172        1.5380  -18.8363  -45.5868 H         1 UNK         0.0600 
    173 H173        1.5126  -19.4418  -47.2436 H         1 UNK         0.0600 
    174 H174        3.5936  -16.7238  -46.5014 H         1 UNK         0.3000 
    175 H175        4.0610  -15.4159  -49.0933 H         1 UNK         0.0600 
    176 H176        2.5057  -15.9711  -50.9238 H         1 UNK         0.0600 
    177 H177        1.1172  -15.8098  -49.8606 H         1 UNK         0.0600 
    178 H178        2.0786  -14.3953  -50.2822 H         1 UNK         0.0600 
    179 H179        2.0379  -15.3877  -47.0031 H         1 UNK         0.3000 
    180 H180        1.4262  -13.3229  -45.9728 H         1 UNK         0.0600 
    181 H181        4.3717  -13.2017  -45.0704 H         1 UNK         0.0600 
    182 H182        3.3116  -14.5898  -44.8590 H         1 UNK         0.0600 
    183 H183        2.9734  -13.0975  -44.0035 H         1 UNK         0.0600 
    184 H184        3.0251  -11.2684  -47.0846 H         1 UNK         0.3000 
    185 H185        1.2150   -8.6503  -45.5326 H         1 UNK         0.0600 
    186 H186        3.3352   -8.6425  -44.2169 H         1 UNK         0.0600 
    187 H187        4.2510   -9.0751  -45.6560 H         1 UNK         0.0600 
    188 H188        3.4274   -7.5182  -45.5640 H         1 UNK         0.0600 
    189 H189        3.0173   -8.8382  -47.7882 H         1 UNK         0.3000 
    190 H190       -3.1671  -20.5013  -43.7606 H         1 UNK         0.3000 
    191 H191       -5.6025  -20.0884  -45.1098 H         1 UNK         0.0600 
    192 H192       -4.8847  -22.2446  -43.0535 H         1 UNK         0.0600 
    193 H193       -6.5128  -21.7544  -43.5005 H         1 UNK         0.0600 
    194 H194       -5.4465  -20.6148  -42.6924 H         1 UNK         0.0600 
    195 H195       -3.4768  -22.9955  -45.1196 H         1 UNK         0.3000 
    196 H196       -5.0457  -24.5434  -46.9238 H         1 UNK         0.0600 
    197 H197       -2.9723  -25.9086  -47.1464 H         1 UNK         0.0600 
    198 H198       -3.2933  -25.5223  -45.4617 H         1 UNK         0.0600 
    199 H199       -2.0382  -24.6532  -46.3415 H         1 UNK         0.0600 
    200 H200       -2.3992  -22.1994  -47.5026 H         1 UNK         0.3000 
    201 H201       -2.2302  -22.5510  -50.3131 H         1 UNK         0.0600 
    202 H202       -0.4379  -21.4448  -49.0289 H         1 UNK         0.0600 
    203 H203       -1.5173  -20.1294  -48.5777 H         1 UNK         0.0600 
    204 H204       -1.0421  -20.3367  -50.2514 H         1 UNK         0.0600 
    205 H205       -4.0240  -20.1118  -48.3773 H         1 UNK         0.3000 
    206 H206       -5.2331  -18.7589  -50.5374 H         1 UNK         0.0600 
    207 H207       -6.6918  -17.7901  -48.7535 H         1 UNK         0.0600 
    208 H208       -6.0971  -18.9916  -47.6111 H         1 UNK         0.0600 
    209 H209       -4.9987  -17.7867  -48.2816 H         1 UNK         0.0600 
    210 H210       -6.4208  -21.5343  -48.6051 H         1 UNK         0.3000 
    211 H211       -8.9740  -21.7367  -49.9256 H         1 UNK         0.0600 
    212 H212       -7.3498  -23.7966  -48.3348 H         1 UNK         0.0600 
    213 H213       -9.0525  -23.9409  -48.7546 H         1 UNK         0.0600 
    214 H214       -8.5292  -22.6722  -47.6596 H         1 UNK         0.0600 
    215 H215       -5.8372  -22.4220  -51.0287 H         1 UNK         0.3000 
    216 H216       -4.8840  -23.4429  -52.7056 H         1 UNK         0.0600 
    217 H217       -6.6352  -22.3555  -54.1157 H         1 UNK         0.0600 
    218 H218       -7.6338  -23.8057  -53.9949 H         1 UNK         0.0600 
    219 H219       -6.0733  -23.8690  -54.8018 H         1 UNK         0.0600 
    220 H220       -5.7900  -24.9641  -50.3646 H         1 UNK         0.3000 
    221 H221       -6.1679  -27.7379  -51.1881 H         1 UNK         0.0600 
    222 H222       -5.3117  -26.5156  -48.5048 H         1 UNK         0.0600 
    223 H223       -6.9668  -26.9056  -48.9696 H         1 UNK         0.0600 
    224 H224       -5.7819  -28.1885  -48.7728 H         1 UNK         0.0600 
    225 H225       -3.5067  -25.5442  -50.4166 H         1 UNK         0.3000 
    226 H226       -1.4047  -27.5598  -50.8977 H         1 UNK         0.0600 
    227 H227       -1.1586  -25.7744  -49.1329 H         1 UNK         0.0600 
    228 H228        0.1145  -25.7130  -50.3402 H         1 UNK         0.0600 
    229 H229       -1.1967  -24.5472  -50.3972 H         1 UNK         0.0600 
    230 H230       -3.4909  -26.1806  -52.9483 H         1 UNK         0.3000 
    231 H231       -3.6607  -25.6393  -55.0717 H         1 UNK         0.0600 
    232 H232       -2.2035  -26.7595  -56.7001 H         1 UNK         0.0600 
    233 H233       -2.5409  -27.8568  -55.3728 H         1 UNK         0.0600 
    234 H234       -0.9754  -27.0520  -55.4770 H         1 UNK         0.0600 
    235 H235       -2.6009  -23.6091  -53.4048 H         1 UNK         0.3000 
    236 H236       -0.7912  -22.0441  -55.1802 H         1 UNK         0.0600 
    237 H237       -1.4294  -21.6010  -52.2334 H         1 UNK         0.0600 
    238 H238       -0.0559  -22.5421  -52.8020 H         1 UNK         0.0600 
    239 H239       -0.1553  -20.8329  -53.1739 H         1 UNK         0.0600 
    240 H240       -1.6805  -19.6502  -53.5883 H         1 UNK         0.3000 
    241 H241       -3.3393  -18.6069  -55.6185 H         1 UNK         0.0600 
    242 H242       -6.1464  -19.4832  -52.9108 H         1 UNK         0.3800 
    243 H243       -4.5689  -20.2187  -52.8011 H         1 UNK         0.3800 
    244 H244       -1.6879  -17.1665  -54.8719 H         1 UNK         0.0800 
    245 H245       -3.1176  -16.4366  -54.2381 H         1 UNK         0.0800 
    246 H246       -3.4977  -15.8257  -52.0314 H         1 UNK         0.0800 
    247 H247       -3.5736  -17.2508  -51.0268 H         1 UNK         0.0800 
@<TRIPOS>BOND
     1    1    2 1    
     2    1  127 1    
     3    1  128 1    
     4    1  129 1    
     5    2    3 2    
     6    2    4 am   BACKBONE|DICT|INTERRES
     7    4    5 1    
     8    4  130 1    
     9    5    6 1    
    10    5   65 1    
    11    5  131 1    
    12    6    7 1    
    13    6  132 1    
    14    6  133 1    
    15    7    8 1    
    16    8    9 1    
    17    8  134 1    
    18    8  135 1    
    19    9   10 ar   
    20    9   14 ar   
    21   10   11 ar   
    22   10  136 1    
    23   11   12 ar   
    24   11  126 1    
    25   12   13 ar   
    26   12  137 1    
    27   13   14 ar   
    28   13   15 1    
    29   14  138 1    
    30   15   16 1    
    31   15  139 1    
    32   15  140 1    
    33   16   17 1    
    34   17   18 1    
    35   17  141 1    
    36   17  142 1    
    37   18   19 1    
    38   18   67 1    
    39   18  143 1    
    40   19   20 am   BACKBONE|DICT|INTERRES
    41   19  144 1    
    42   20   21 2    
    43   20   22 1    
    44   22   23 1    
    45   22   24 1    
    46   22  145 1    
    47   23  146 1    
    48   23  147 1    
    49   23  148 1    
    50   24   25 am   BACKBONE|DICT|INTERRES
    51   24  149 1    
    52   25   26 2    
    53   25   27 1    
    54   27   28 1    
    55   27   29 1    
    56   27  150 1    
    57   28  151 1    
    58   28  152 1    
    59   28  153 1    
    60   29   30 am   BACKBONE|DICT|INTERRES
    61   29  154 1    
    62   30   31 2    
    63   30   32 1    
    64   32   33 1    
    65   32   34 1    
    66   32  155 1    
    67   33  156 1    
    68   33  157 1    
    69   33  158 1    
    70   34   35 am   BACKBONE|DICT|INTERRES
    71   34  159 1    
    72   35   36 2    
    73   35   37 1    
    74   37   38 1    
    75   37   39 1    
    76   37  160 1    
    77   38  161 1    
    78   38  162 1    
    79   38  163 1    
    80   39   40 am   BACKBONE|DICT|INTERRES
    81   39  164 1    
    82   40   41 2    
    83   40   42 1    
    84   42   43 1    
    85   42   44 1    
    86   42  165 1    
    87   43  166 1    
    88   43  167 1    
    89   43  168 1    
    90   44   45 am   BACKBONE|DICT|INTERRES
    91   44  169 1    
    92   45   46 2    
    93   45   47 1    
    94   47   48 1    
    95   47   49 1    
    96   47  170 1    
    97   48  171 1    
    98   48  172 1    
    99   48  173 1    
   100   49   50 am   BACKBONE|DICT|INTERRES
   101   49  174 1    
   102   50   51 2    
   103   50   52 1    
   104   52   53 1    
   105   52   54 1    
   106   52  175 1    
   107   53  176 1    
   108   53  177 1    
   109   53  178 1    
   110   54   55 am   BACKBONE|DICT|INTERRES
   111   54  179 1    
   112   55   56 2    
   113   55   57 1    
   114   57   58 1    
   115   57   59 1    
   116   57  180 1    
   117   58  181 1    
   118   58  182 1    
   119   58  183 1    
   120   59   60 am   BACKBONE|DICT|INTERRES
   121   59  184 1    
   122   60   61 2    
   123   60   62 1    
   124   62   63 1    
   125   62   64 1    
   126   62  185 1    
   127   63  186 1    
   128   63  187 1    
   129   63  188 1    
   130   64   65 am   BACKBONE|DICT|INTERRES
   131   64  189 1    
   132   65   66 2    
   133   67   68 2    
   134   67   69 am   BACKBONE|DICT|INTERRES
   135   69   70 1    
   136   69  190 1    
   137   70   71 1    
   138   70   72 1    
   139   70  191 1    
   140   71  192 1    
   141   71  193 1    
   142   71  194 1    
   143   72   73 2    
   144   72   74 am   BACKBONE|DICT|INTERRES
   145   74   75 1    
   146   74  195 1    
   147   75   76 1    
   148   75   77 1    
   149   75  196 1    
   150   76  197 1    
   151   76  198 1    
   152   76  199 1    
   153   77   78 2    
   154   77   79 am   BACKBONE|DICT|INTERRES
   155   79   80 1    
   156   79  200 1    
   157   80   81 1    
   158   80   82 1    
   159   80  201 1    
   160   81  202 1    
   161   81  203 1    
   162   81  204 1    
   163   82   83 2    
   164   82   84 am   BACKBONE|DICT|INTERRES
   165   84   85 1    
   166   84  205 1    
   167   85   86 1    
   168   85   87 1    
   169   85  206 1    
   170   86  207 1    
   171   86  208 1    
   172   86  209 1    
   173   87   88 2    
   174   87   89 am   BACKBONE|DICT|INTERRES
   175   89   90 1    
   176   89  210 1    
   177   90   91 1    
   178   90   92 1    
   179   90  211 1    
   180   91  212 1    
   181   91  213 1    
   182   91  214 1    
   183   92   93 2    
   184   92   94 am   BACKBONE|DICT|INTERRES
   185   94   95 1    
   186   94  215 1    
   187   95   96 1    
   188   95   97 1    
   189   95  216 1    
   190   96  217 1    
   191   96  218 1    
   192   96  219 1    
   193   97   98 2    
   194   97   99 am   BACKBONE|DICT|INTERRES
   195   99  100 1    
   196   99  220 1    
   197  100  101 1    
   198  100  102 1    
   199  100  221 1    
   200  101  222 1    
   201  101  223 1    
   202  101  224 1    
   203  102  103 2    
   204  102  104 am   BACKBONE|DICT|INTERRES
   205  104  105 1    
   206  104  225 1    
   207  105  106 1    
   208  105  107 1    
   209  105  226 1    
   210  106  227 1    
   211  106  228 1    
   212  106  229 1    
   213  107  108 2    
   214  107  109 am   BACKBONE|DICT|INTERRES
   215  109  110 1    
   216  109  230 1    
   217  110  111 1    
   218  110  112 1    
   219  110  231 1    
   220  111  232 1    
   221  111  233 1    
   222  111  234 1    
   223  112  113 2    
   224  112  114 am   BACKBONE|DICT|INTERRES
   225  114  115 1    
   226  114  235 1    
   227  115  116 1    
   228  115  117 1    
   229  115  236 1    
   230  116  237 1    
   231  116  238 1    
   232  116  239 1    
   233  117  118 2    
   234  117  119 am   BACKBONE|DICT|INTERRES
   235  119  120 1    
   236  119  240 1    
   237  120  121 1    
   238  120  124 1    
   239  120  241 1    
   240  121  122 am   BACKBONE|DICT|INTERRES
   241  121  123 2    
   242  122  242 1    
   243  122  243 1    
   244  124  125 1    
   245  124  244 1    
   246  124  245 1    
   247  125  126 1    
   248  126  246 1    
   249  126  247 1    
@<TRIPOS>SUBSTRUCTURE
     1 UNK         1 GROUP             0       ****    0 ROOT    
