@<TRIPOS>MOLECULE
3R540
247   249    1
SMALL
USER_CHARGES


@<TRIPOS>ATOM
      1 CA         -6.4578  -12.9311  -47.8981 C.3       0 UNK        -0.1800 
      2 C          -4.9497  -12.7257  -47.9146 C.2       0 UNK         0.5000 
      3 O          -4.4681  -11.7762  -48.5325 O.2       0 UNK        -0.5000 
      4 N          -4.2059  -13.6121  -47.2398 N.am      1 UNK        -0.5000 
      5 CA         -2.7410  -13.5804  -47.1411 C.3       1 UNK         0.1400 
      6 C6         -2.1768  -14.9115  -46.5905 C.3       23 UNK        -0.0398 
      7 S7         -2.3299  -16.2707  -47.7958 S.3       23 UNK        -0.2404 
      8 C8         -0.6160  -16.3350  -48.4163 C.3       23 UNK        -0.0205 
      9 C9         -0.4214  -17.3838  -49.5021 C.ar      23 UNK        -0.0193 
     10 C10        -1.1989  -17.3431  -50.6642 C.ar      23 UNK        -0.1150 
     11 C11        -1.0074  -18.2815  -51.6807 C.ar      23 UNK        -0.0193 
     12 C12        -0.0097  -19.2485  -51.5432 C.ar      23 UNK        -0.1150 
     13 C13         0.7892  -19.2887  -50.3980 C.ar      23 UNK        -0.0193 
     14 C14         0.5702  -18.3635  -49.3717 C.ar      23 UNK        -0.1150 
     15 C15         1.9153  -20.3065  -50.3095 C.3       23 UNK        -0.0205 
     16 S16         1.2917  -21.9825  -49.9871 S.3       23 UNK        -0.2404 
     17 C17         1.2664  -21.9876  -48.1692 C.3       23 UNK        -0.0398 
     18 CA          0.4172  -23.1441  -47.5756 C.3       11 UNK         0.1400 
     19 N           0.7545  -23.3978  -46.1796 N.am      11 UNK        -0.5000 
     20 C           1.8312  -24.0711  -45.7546 C.2       10 UNK         0.5000 
     21 O           2.6097  -24.6463  -46.5165 O.2       10 UNK        -0.5000 
     22 CA          2.0969  -24.0862  -44.2349 C.3       10 UNK         0.1400 
     23 CB          3.5985  -24.1335  -43.9001 C.3       10 UNK        -0.1800 
     24 N           1.5084  -22.9079  -43.6016 N.am      10 UNK        -0.5000 
     25 C           0.7308  -22.9136  -42.5120 C.2       9 UNK         0.5000 
     26 O           0.5224  -23.9194  -41.8332 O.2       9 UNK        -0.5000 
     27 CA          0.0515  -21.5860  -42.1056 C.3       9 UNK         0.1400 
     28 CB          0.6918  -21.0251  -40.8264 C.3       9 UNK        -0.1800 
     29 N           0.0703  -20.5389  -43.1301 N.am      9 UNK        -0.5000 
     30 C          -0.4628  -20.6166  -44.3558 C.2       8 UNK         0.5000 
     31 O          -1.0831  -21.5934  -44.7777 O.2       8 UNK        -0.5000 
     32 CA         -0.2060  -19.4253  -45.2943 C.3       8 UNK         0.1400 
     33 CB         -1.2910  -18.3613  -45.0942 C.3       8 UNK        -0.1800 
     34 N           1.1211  -18.8230  -45.1253 N.am      8 UNK        -0.5000 
     35 C           2.2944  -19.4707  -45.2177 C.2       7 UNK         0.5000 
     36 O           2.3975  -20.6742  -45.4514 O.2       7 UNK        -0.5000 
     37 CA          3.5613  -18.6420  -44.9596 C.3       7 UNK         0.1400 
     38 CB          3.9547  -17.8417  -46.2115 C.3       7 UNK        -0.1800 
     39 N           3.3642  -17.7383  -43.8270 N.am      7 UNK        -0.5000 
     40 C           3.4822  -18.1069  -42.5427 C.2       6 UNK         0.5000 
     41 O           3.8819  -19.2149  -42.1848 O.2       6 UNK        -0.5000 
     42 CA          3.0625  -17.0771  -41.4739 C.3       6 UNK         0.1400 
     43 CB          4.2630  -16.2150  -41.0559 C.3       6 UNK        -0.1800 
     44 N           1.9732  -16.2011  -41.9090 N.am      6 UNK        -0.5000 
     45 C           0.7261  -16.6096  -42.1831 C.2       5 UNK         0.5000 
     46 O           0.3426  -17.7705  -42.0410 O.2       5 UNK        -0.5000 
     47 CA         -0.2380  -15.5568  -42.7692 C.3       5 UNK         0.1400 
     48 CB         -1.0504  -14.8943  -41.6485 C.3       5 UNK        -0.1800 
     49 N           0.4177  -14.5252  -43.5834 N.am      5 UNK        -0.5000 
     50 C           1.1909  -14.7623  -44.6554 C.2       4 UNK         0.5000 
     51 O           1.3955  -15.8980  -45.0856 O.2       4 UNK        -0.5000 
     52 CA          1.8563  -13.5620  -45.3609 C.3       4 UNK         0.1400 
     53 CB          1.7647  -13.6784  -46.8923 C.3       4 UNK        -0.1800 
     54 N           1.3129  -12.2694  -44.9380 N.am      4 UNK        -0.5000 
     55 C           1.7292  -11.5748  -43.8690 C.2       3 UNK         0.5000 
     56 O           2.6360  -11.9540  -43.1274 O.2       3 UNK        -0.5000 
     57 CA          1.0001  -10.2523  -43.5509 C.3       3 UNK         0.1400 
     58 CB          1.8013   -9.0565  -44.0874 C.3       3 UNK        -0.1800 
     59 N          -0.3649  -10.1833  -44.0783 N.am      3 UNK        -0.5000 
     60 C          -1.3820  -10.9661  -43.6937 C.2       2 UNK         0.5000 
     61 O          -1.2798  -11.8270  -42.8201 O.2       2 UNK        -0.5000 
     62 CA         -2.7284  -10.7972  -44.4309 C.3       2 UNK         0.1400 
     63 CB         -2.8590   -9.4629  -45.1992 C.3       2 UNK        -0.1800 
     64 N          -3.0073  -11.9252  -45.3277 N.am      2 UNK        -0.5000 
     65 C          -2.2185  -12.3877  -46.3114 C.2       1 UNK         0.5000 
     66 O          -1.1145  -11.9135  -46.5830 O.2       1 UNK        -0.5000 
     67 C          -1.1122  -22.9773  -47.6711 C.2       11 UNK         0.5000 
     68 O          -1.8275  -23.9225  -47.3345 O.2       11 UNK        -0.5000 
     69 N          -1.5884  -21.8082  -48.1214 N.am      12 UNK        -0.5000 
     70 CA         -2.9808  -21.5188  -48.4709 C.3       12 UNK         0.1400 
     71 CB         -3.0582  -20.0903  -49.0255 C.3       12 UNK        -0.1800 
     72 C          -4.0190  -21.7093  -47.3498 C.2       12 UNK         0.5000 
     73 O          -5.1208  -22.1787  -47.6351 O.2       12 UNK        -0.5000 
     74 N          -3.6708  -21.3524  -46.1056 N.am      13 UNK        -0.5000 
     75 CA         -4.5684  -21.4728  -44.9507 C.3       13 UNK         0.1400 
     76 CB         -4.1548  -20.4865  -43.8472 C.3       13 UNK        -0.1800 
     77 C          -4.6170  -22.9117  -44.4102 C.2       13 UNK         0.5000 
     78 O          -5.6602  -23.3418  -43.9175 O.2       13 UNK        -0.5000 
     79 N          -3.4997  -23.6388  -44.5431 N.am      14 UNK        -0.5000 
     80 CA         -3.4011  -25.0695  -44.2486 C.3       14 UNK         0.1400 
     81 CB         -1.9189  -25.4348  -44.0759 C.3       14 UNK        -0.1800 
     82 C          -4.0409  -25.9511  -45.3401 C.2       14 UNK         0.5000 
     83 O          -4.3222  -27.1213  -45.0803 O.2       14 UNK        -0.5000 
     84 N          -4.2191  -25.3802  -46.5414 N.am      15 UNK        -0.5000 
     85 CA         -4.6051  -26.0235  -47.8011 C.3       15 UNK         0.1400 
     86 CB         -6.0264  -26.6172  -47.7184 C.3       15 UNK        -0.1800 
     87 C          -3.5449  -27.0359  -48.2872 C.2       15 UNK         0.5000 
     88 O          -3.8815  -28.0216  -48.9457 O.2       15 UNK        -0.5000 
     89 N          -2.2760  -26.7704  -47.9476 N.am      16 UNK        -0.5000 
     90 CA         -1.1217  -27.5974  -48.2989 C.3       16 UNK         0.1400 
     91 CB         -0.0013  -27.3357  -47.2809 C.3       16 UNK        -0.1800 
     92 C          -0.6281  -27.3318  -49.7328 C.2       16 UNK         0.5000 
     93 O          -0.0429  -28.2216  -50.3510 O.2       16 UNK        -0.5000 
     94 N          -0.8853  -26.1203  -50.2336 N.am      17 UNK        -0.5000 
     95 CA         -0.5788  -25.6328  -51.5720 C.3       17 UNK         0.1400 
     96 CB          0.9343  -25.3855  -51.7213 C.3       17 UNK        -0.1800 
     97 C          -1.3935  -24.3496  -51.7931 C.2       17 UNK         0.5000 
     98 O          -1.9369  -23.8021  -50.8308 O.2       17 UNK        -0.5000 
     99 N          -1.4774  -23.8969  -53.0460 N.am      18 UNK        -0.5000 
    100 CA        -2.1945  -22.6943  -53.4597 C.3       18 UNK         0.1400 
    101 CB        -3.7163  -22.9488  -53.4472 C.3       18 UNK        -0.1800 
    102 C         -1.7125  -22.2756  -54.8570 C.2       18 UNK         0.5000 
    103 O         -0.9834  -23.0273  -55.5112 O.2       18 UNK        -0.5000 
    104 N         -2.1472  -21.0917  -55.2924 N.am      19 UNK        -0.5000 
    105 CA        -1.9168  -20.5204  -56.6149 C.3       19 UNK         0.1400 
    106 CB        -0.5753  -19.7633  -56.6308 C.3       19 UNK        -0.1800 
    107 C         -3.0973  -19.5961  -56.9536 C.2       19 UNK         0.5000 
    108 O         -3.9810  -19.3943  -56.1156 O.2       19 UNK        -0.5000 
    109 N         -3.0873  -19.0149  -58.1602 N.am      20 UNK        -0.5000 
    110 CA        -4.1324  -18.1219  -58.6830 C.3       20 UNK         0.1400 
    111 CB        -3.7792  -17.7404  -60.1289 C.3       20 UNK        -0.1800 
    112 C         -4.3919  -16.8529  -57.8401 C.2       20 UNK         0.5000 
    113 O         -5.4707  -16.2679  -57.9414 O.2       20 UNK        -0.5000 
    114 N         -3.4127  -16.4639  -57.0130 N.am      21 UNK        -0.5000 
    115 CA        -3.5015  -15.3657  -56.0511 C.3       21 UNK         0.1400 
    116 CB        -2.0770  -14.9860  -55.6151 C.3       21 UNK        -0.1800 
    117 C         -4.3808  -15.6747  -54.8187 C.2       21 UNK         0.5000 
    118 O         -4.7403  -14.7388  -54.1028 O.2       21 UNK        -0.5000 
    119 N         -4.6993  -16.9531  -54.5750 N.am      22 UNK        -0.5000 
    120 CA        -5.4847  -17.4199  -53.4187 C.3       22 UNK         0.1400 
    121 C         -6.5685  -18.4791  -53.7664 C.2       22 UNK         0.5000 
    122 N         -6.4644  -19.2143  -54.8660 N.am      22 UNK        -0.7600 
    123 O         -7.5434  -18.6185  -53.0326 O.2       22 UNK        -0.5000 
    124 C124       -4.5790  -17.8760  -52.2434 C.3       23 UNK        -0.0398 
    125 S125       -3.4022  -19.1962  -52.7077 S.3       23 UNK        -0.2404 
    126 C126       -1.8643  -18.2521  -52.9335 C.3       23 UNK        -0.0205 
    127 H127       -6.7417  -13.8090  -47.3172 H         1 UNK         0.0600 
    128 H128       -6.8296  -13.0616  -48.9144 H         1 UNK         0.0600 
    129 H129       -6.9501  -12.0615  -47.4627 H         1 UNK         0.0600 
    130 H130       -4.6602  -14.3862  -46.7766 H         1 UNK         0.3000 
    131 H131       -2.3467  -13.4405  -48.1504 H         1 UNK         0.0600 
    132 H132       -1.1266  -14.8120  -46.3205 H         1 UNK         0.0800 
    133 H133       -2.6896  -15.1986  -45.6710 H         1 UNK         0.0800 
    134 H134        0.0599  -16.5227  -47.5802 H         1 UNK         0.0800 
    135 H135       -0.3452  -15.3601  -48.8233 H         1 UNK         0.0800 
    136 H136       -1.9579  -16.5817  -50.7717 H         1 UNK         0.1150 
    137 H137        0.1526  -19.9692  -52.3326 H         1 UNK         0.1150 
    138 H138        1.1907  -18.3867  -48.4866 H         1 UNK         0.1150 
    139 H139        2.6425  -20.0228  -49.5468 H         1 UNK         0.0800 
    140 H140        2.4594  -20.3151  -51.2551 H         1 UNK         0.0800 
    141 H141        0.9523  -21.0161  -47.7914 H         1 UNK         0.0800 
    142 H142        2.3050  -22.0954  -47.8533 H         1 UNK         0.0800 
    143 H143        0.6441  -24.0498  -48.1420 H         1 UNK         0.0600 
    144 H144        0.1315  -22.9715  -45.5011 H         1 UNK         0.3000 
    145 H145        1.6275  -24.9953  -43.8538 H         1 UNK         0.0600 
    146 H146        4.0678  -25.0279  -44.3116 H         1 UNK         0.0600 
    147 H147        3.7605  -24.1509  -42.8222 H         1 UNK         0.0600 
    148 H148        4.1236  -23.2670  -44.3041 H         1 UNK         0.0600 
    149 H149        1.6548  -22.0347  -44.0990 H         1 UNK         0.3000 
    150 H150       -0.9947  -21.8161  -41.8947 H         1 UNK         0.0600 
    151 H151        1.7323  -20.7424  -40.9916 H         1 UNK         0.0600 
    152 H152        0.6736  -21.7601  -40.0207 H         1 UNK         0.0600 
    153 H153        0.1578  -20.1433  -40.4718 H         1 UNK         0.0600 
    154 H154        0.5010  -19.6608  -42.8602 H         1 UNK         0.3000 
    155 H155       -0.2686  -19.7778  -46.3235 H         1 UNK         0.0600 
    156 H156       -0.9857  -17.4006  -45.5034 H         1 UNK         0.0600 
    157 H157       -1.5281  -18.2135  -44.0405 H         1 UNK         0.0600 
    158 H158       -2.2140  -18.6520  -45.5961 H         1 UNK         0.0600 
    159 H159        1.1463  -17.8210  -44.9627 H         1 UNK         0.3000 
    160 H160        4.3774  -19.3315  -44.7327 H         1 UNK         0.0600 
    161 H161        3.1673  -17.1577  -46.5282 H         1 UNK         0.0600 
    162 H162        4.1589  -18.5101  -47.0489 H         1 UNK         0.0600 
    163 H163        4.8568  -17.2554  -46.0364 H         1 UNK         0.0600 
    164 H164        2.9684  -16.8323  -44.0423 H         1 UNK         0.3000 
    165 H165        2.7178  -17.6326  -40.5990 H         1 UNK         0.0600 
    166 H166        3.9989  -15.5382  -40.2431 H         1 UNK         0.0600 
    167 H167        5.0871  -16.8373  -40.7041 H         1 UNK         0.0600 
    168 H168        4.6362  -15.6142  -41.8863 H         1 UNK         0.0600 
    169 H169        2.2004  -15.2278  -42.0517 H         1 UNK         0.3000 
    170 H170       -0.9386  -16.0802  -43.4186 H         1 UNK         0.0600 
    171 H171       -1.8655  -14.2970  -42.0563 H         1 UNK         0.0600 
    172 H172       -0.4301  -14.2435  -41.0311 H         1 UNK         0.0600 
    173 H173       -1.4999  -15.6416  -40.9930 H         1 UNK         0.0600 
    174 H174        0.2637  -13.5662  -43.3005 H         1 UNK         0.3000 
    175 H175        2.9155  -13.6027  -45.0994 H         1 UNK         0.0600 
    176 H176        2.2269  -14.6004  -47.2475 H         1 UNK         0.0600 
    177 H177        0.7337  -13.6748  -47.2418 H         1 UNK         0.0600 
    178 H178        2.2826  -12.8522  -47.3793 H         1 UNK         0.0600 
    179 H179        0.5315  -11.9140  -45.4824 H         1 UNK         0.3000 
    180 H180        0.9431  -10.1657  -42.4639 H         1 UNK         0.0600 
    181 H181        1.8728   -9.0765  -45.1756 H         1 UNK         0.0600 
    182 H182        2.8177   -9.0571  -43.6914 H         1 UNK         0.0600 
    183 H183        1.3421   -8.1112  -43.7974 H         1 UNK         0.0600 
    184 H184       -0.5256   -9.5280  -44.8295 H         1 UNK         0.3000 
    185 H185       -3.5007  -10.8104  -43.6605 H         1 UNK         0.0600 
    186 H186       -2.6820   -8.6105  -44.5420 H         1 UNK         0.0600 
    187 H187       -2.1608   -9.3933  -46.0340 H         1 UNK         0.0600 
    188 H188       -3.8639   -9.3492  -45.6062 H         1 UNK         0.0600 
    189 H189       -3.8873  -12.3963  -45.1736 H         1 UNK         0.3000 
    190 H190       -0.9219  -21.1119  -48.4185 H         1 UNK         0.3000 
    191 H191       -3.2591  -22.2019  -49.2747 H         1 UNK         0.0600 
    192 H192       -4.0762  -19.8332  -49.3210 H         1 UNK         0.0600 
    193 H193       -2.7293  -19.3527  -48.2928 H         1 UNK         0.0600 
    194 H194       -2.4319  -19.9865  -49.9100 H         1 UNK         0.0600 
    195 H195       -2.7161  -21.0759  -45.9173 H         1 UNK         0.3000 
    196 H196       -5.5790  -21.2038  -45.2660 H         1 UNK         0.0600 
    197 H197       -4.8874  -20.4866  -43.0394 H         1 UNK         0.0600 
    198 H198       -4.0950  -19.4669  -44.2270 H         1 UNK         0.0600 
    199 H199       -3.1935  -20.7437  -43.4050 H         1 UNK         0.0600 
    200 H200       -2.6815  -23.1940  -44.9402 H         1 UNK         0.3000 
    201 H201       -3.9181  -25.2748  -43.3090 H         1 UNK         0.0600 
    202 H202       -1.7984  -26.4952  -43.8510 H         1 UNK         0.0600 
    203 H203       -1.4777  -24.8784  -43.2512 H         1 UNK         0.0600 
    204 H204       -1.3396  -25.2224  -44.9747 H         1 UNK         0.0600 
    205 H205       -3.8894  -24.4285  -46.6384 H         1 UNK         0.3000 
    206 H206       -4.6243  -25.2281  -48.5477 H         1 UNK         0.0600 
    207 H207       -6.7414  -25.8771  -47.3588 H         1 UNK         0.0600 
    208 H208       -6.3681  -26.9473  -48.7000 H         1 UNK         0.0600 
    209 H209       -6.0703  -27.4791  -47.0524 H         1 UNK         0.0600 
    210 H210       -2.0883  -25.9005  -47.4591 H         1 UNK         0.3000 
    211 H211       -1.4046  -28.6500  -48.2317 H         1 UNK         0.0600 
    212 H212        0.3161  -26.2935  -47.2928 H         1 UNK         0.0600 
    213 H213        0.8749  -27.9483  -47.4964 H         1 UNK         0.0600 
    214 H214       -0.3251  -27.5747  -46.2678 H         1 UNK         0.0600 
    215 H215       -1.4153  -25.4562  -49.6809 H         1 UNK         0.3000 
    216 H216       -0.9058  -26.3737  -52.3042 H         1 UNK         0.0600 
    217 H217        1.1692  -24.9130  -52.6756 H         1 UNK         0.0600 
    218 H218        1.4936  -26.3200  -51.6802 H         1 UNK         0.0600 
    219 H219        1.3139  -24.7398  -50.9303 H         1 UNK         0.0600 
    220 H220       -0.9771  -24.3559  -53.7977 H         1 UNK         0.3000 
    221 H221       -1.9522  -21.8861  -52.7661 H         1 UNK         0.0600 
    222 H222       -3.9893  -23.7701  -54.1104 H         1 UNK         0.0600 
    223 H223       -4.0715  -23.1942  -52.4464 H         1 UNK         0.0600 
    224 H224       -4.2706  -22.0670  -53.7707 H         1 UNK         0.0600 
    225 H225       -2.8009  -20.5607  -54.7274 H         1 UNK         0.3000 
    226 H226       -1.8962  -21.3208  -57.3572 H         1 UNK         0.0600 
    227 H227        0.2454  -20.4057  -56.3110 H         1 UNK         0.0600 
    228 H228       -0.5923  -18.8930  -55.9751 H         1 UNK         0.0600 
    229 H229       -0.3322  -19.4117  -57.6338 H         1 UNK         0.0600 
    230 H230       -2.3241  -19.2178  -58.7897 H         1 UNK         0.3000 
    231 H231       -5.0659  -18.6881  -58.6985 H         1 UNK         0.0600 
    232 H232       -2.8341  -17.1984  -60.1814 H         1 UNK         0.0600 
    233 H233       -4.5485  -17.1017  -60.5653 H         1 UNK         0.0600 
    234 H234       -3.6968  -18.6238  -60.7623 H         1 UNK         0.0600 
    235 H235       -2.5593  -17.0017  -57.0068 H         1 UNK         0.3000 
    236 H236       -3.9439  -14.5036  -56.5545 H         1 UNK         0.0600 
    237 H237       -1.5618  -15.8237  -55.1445 H         1 UNK         0.0600 
    238 H238       -1.4788  -14.6612  -56.4666 H         1 UNK         0.0600 
    239 H239       -2.0906  -14.1637  -54.8985 H         1 UNK         0.0600 
    240 H240       -4.3744  -17.6767  -55.2057 H         1 UNK         0.3000 
    241 H241       -6.0667  -16.5742  -53.0474 H         1 UNK         0.0600 
    242 H242       -7.1874  -19.8827  -55.0768 H         1 UNK         0.3800 
    243 H243       -5.6131  -19.2091  -55.4225 H         1 UNK         0.3800 
    244 H244       -5.1836  -18.2338  -51.4084 H         1 UNK         0.0800 
    245 H245       -4.0307  -17.0188  -51.8531 H         1 UNK         0.0800 
    246 H246       -1.3101  -18.6837  -53.7661 H         1 UNK         0.0800 
    247 H247       -2.0835  -17.2232  -53.2189 H         1 UNK         0.0800 
@<TRIPOS>BOND
     1    1    2 1    
     2    1  127 1    
     3    1  128 1    
     4    1  129 1    
     5    2    3 2    
     6    2    4 am   BACKBONE|DICT|INTERRES
     7    4    5 1    
     8    4  130 1    
     9    5    6 1    
    10    5   65 1    
    11    5  131 1    
    12    6    7 1    
    13    6  132 1    
    14    6  133 1    
    15    7    8 1    
    16    8    9 1    
    17    8  134 1    
    18    8  135 1    
    19    9   10 ar   
    20    9   14 ar   
    21   10   11 ar   
    22   10  136 1    
    23   11   12 ar   
    24   11  126 1    
    25   12   13 ar   
    26   12  137 1    
    27   13   14 ar   
    28   13   15 1    
    29   14  138 1    
    30   15   16 1    
    31   15  139 1    
    32   15  140 1    
    33   16   17 1    
    34   17   18 1    
    35   17  141 1    
    36   17  142 1    
    37   18   19 1    
    38   18   67 1    
    39   18  143 1    
    40   19   20 am   BACKBONE|DICT|INTERRES
    41   19  144 1    
    42   20   21 2    
    43   20   22 1    
    44   22   23 1    
    45   22   24 1    
    46   22  145 1    
    47   23  146 1    
    48   23  147 1    
    49   23  148 1    
    50   24   25 am   BACKBONE|DICT|INTERRES
    51   24  149 1    
    52   25   26 2    
    53   25   27 1    
    54   27   28 1    
    55   27   29 1    
    56   27  150 1    
    57   28  151 1    
    58   28  152 1    
    59   28  153 1    
    60   29   30 am   BACKBONE|DICT|INTERRES
    61   29  154 1    
    62   30   31 2    
    63   30   32 1    
    64   32   33 1    
    65   32   34 1    
    66   32  155 1    
    67   33  156 1    
    68   33  157 1    
    69   33  158 1    
    70   34   35 am   BACKBONE|DICT|INTERRES
    71   34  159 1    
    72   35   36 2    
    73   35   37 1    
    74   37   38 1    
    75   37   39 1    
    76   37  160 1    
    77   38  161 1    
    78   38  162 1    
    79   38  163 1    
    80   39   40 am   BACKBONE|DICT|INTERRES
    81   39  164 1    
    82   40   41 2    
    83   40   42 1    
    84   42   43 1    
    85   42   44 1    
    86   42  165 1    
    87   43  166 1    
    88   43  167 1    
    89   43  168 1    
    90   44   45 am   BACKBONE|DICT|INTERRES
    91   44  169 1    
    92   45   46 2    
    93   45   47 1    
    94   47   48 1    
    95   47   49 1    
    96   47  170 1    
    97   48  171 1    
    98   48  172 1    
    99   48  173 1    
   100   49   50 am   BACKBONE|DICT|INTERRES
   101   49  174 1    
   102   50   51 2    
   103   50   52 1    
   104   52   53 1    
   105   52   54 1    
   106   52  175 1    
   107   53  176 1    
   108   53  177 1    
   109   53  178 1    
   110   54   55 am   BACKBONE|DICT|INTERRES
   111   54  179 1    
   112   55   56 2    
   113   55   57 1    
   114   57   58 1    
   115   57   59 1    
   116   57  180 1    
   117   58  181 1    
   118   58  182 1    
   119   58  183 1    
   120   59   60 am   BACKBONE|DICT|INTERRES
   121   59  184 1    
   122   60   61 2    
   123   60   62 1    
   124   62   63 1    
   125   62   64 1    
   126   62  185 1    
   127   63  186 1    
   128   63  187 1    
   129   63  188 1    
   130   64   65 am   BACKBONE|DICT|INTERRES
   131   64  189 1    
   132   65   66 2    
   133   67   68 2    
   134   67   69 am   BACKBONE|DICT|INTERRES
   135   69   70 1    
   136   69  190 1    
   137   70   71 1    
   138   70   72 1    
   139   70  191 1    
   140   71  192 1    
   141   71  193 1    
   142   71  194 1    
   143   72   73 2    
   144   72   74 am   BACKBONE|DICT|INTERRES
   145   74   75 1    
   146   74  195 1    
   147   75   76 1    
   148   75   77 1    
   149   75  196 1    
   150   76  197 1    
   151   76  198 1    
   152   76  199 1    
   153   77   78 2    
   154   77   79 am   BACKBONE|DICT|INTERRES
   155   79   80 1    
   156   79  200 1    
   157   80   81 1    
   158   80   82 1    
   159   80  201 1    
   160   81  202 1    
   161   81  203 1    
   162   81  204 1    
   163   82   83 2    
   164   82   84 am   BACKBONE|DICT|INTERRES
   165   84   85 1    
   166   84  205 1    
   167   85   86 1    
   168   85   87 1    
   169   85  206 1    
   170   86  207 1    
   171   86  208 1    
   172   86  209 1    
   173   87   88 2    
   174   87   89 am   BACKBONE|DICT|INTERRES
   175   89   90 1    
   176   89  210 1    
   177   90   91 1    
   178   90   92 1    
   179   90  211 1    
   180   91  212 1    
   181   91  213 1    
   182   91  214 1    
   183   92   93 2    
   184   92   94 am   BACKBONE|DICT|INTERRES
   185   94   95 1    
   186   94  215 1    
   187   95   96 1    
   188   95   97 1    
   189   95  216 1    
   190   96  217 1    
   191   96  218 1    
   192   96  219 1    
   193   97   98 2    
   194   97   99 am   BACKBONE|DICT|INTERRES
   195   99  100 1    
   196   99  220 1    
   197  100  101 1    
   198  100  102 1    
   199  100  221 1    
   200  101  222 1    
   201  101  223 1    
   202  101  224 1    
   203  102  103 2    
   204  102  104 am   BACKBONE|DICT|INTERRES
   205  104  105 1    
   206  104  225 1    
   207  105  106 1    
   208  105  107 1    
   209  105  226 1    
   210  106  227 1    
   211  106  228 1    
   212  106  229 1    
   213  107  108 2    
   214  107  109 am   BACKBONE|DICT|INTERRES
   215  109  110 1    
   216  109  230 1    
   217  110  111 1    
   218  110  112 1    
   219  110  231 1    
   220  111  232 1    
   221  111  233 1    
   222  111  234 1    
   223  112  113 2    
   224  112  114 am   BACKBONE|DICT|INTERRES
   225  114  115 1    
   226  114  235 1    
   227  115  116 1    
   228  115  117 1    
   229  115  236 1    
   230  116  237 1    
   231  116  238 1    
   232  116  239 1    
   233  117  118 2    
   234  117  119 am   BACKBONE|DICT|INTERRES
   235  119  120 1    
   236  119  240 1    
   237  120  121 1    
   238  120  124 1    
   239  120  241 1    
   240  121  122 am   BACKBONE|DICT|INTERRES
   241  121  123 2    
   242  122  242 1    
   243  122  243 1    
   244  124  125 1    
   245  124  244 1    
   246  124  245 1    
   247  125  126 1    
   248  126  246 1    
   249  126  247 1    
@<TRIPOS>SUBSTRUCTURE
     1 UNK         1 GROUP             0       ****    0 ROOT    
