@<TRIPOS>MOLECULE
3R540
247   249    1
SMALL
USER_CHARGES


@<TRIPOS>ATOM
      1 CA          5.7683  -11.1533  -48.8552 C.3       0 UNK        -0.1800 
      2 C           6.0070  -12.6192  -48.5224 C.2       0 UNK         0.5000 
      3 O           7.0658  -12.9637  -47.9969 O.2       0 UNK        -0.5000 
      4 N           5.0287  -13.4813  -48.8276 N.am      1 UNK        -0.5000 
      5 CA          5.0693  -14.9290  -48.5760 C.3       1 UNK         0.1400 
      6 C6          3.9352  -15.6741  -49.3174 C.3       23 UNK        -0.0398 
      7 S7          4.0872  -15.5323  -51.1285 S.3       23 UNK        -0.2404 
      8 C8          4.7064  -17.1901  -51.5636 C.3       23 UNK        -0.0205 
      9 C9          3.6767  -18.2799  -51.2969 C.ar      23 UNK        -0.0193 
     10 C10         2.4636  -18.2781  -51.9903 C.ar      23 UNK        -0.1150 
     11 C11         1.5100  -19.2729  -51.7632 C.ar      23 UNK        -0.0193 
     12 C12         1.7855  -20.2847  -50.8381 C.ar      23 UNK        -0.1150 
     13 C13         3.0028  -20.3115  -50.1484 C.ar      23 UNK        -0.0193 
     14 C14         3.9418  -19.3010  -50.3780 C.ar      23 UNK        -0.1150 
     15 C15         3.3347  -21.4748  -49.2202 C.3       23 UNK        -0.0205 
     16 S16         3.4215  -21.0247  -47.4527 S.3       23 UNK        -0.2404 
     17 C17         1.7194  -20.5010  -47.0602 C.3       23 UNK        -0.0398 
     18 CA          0.7771  -21.6648  -46.6414 C.3       11 UNK         0.1400 
     19 N          -0.2730  -21.2280  -45.7130 N.am      11 UNK        -0.5000 
     20 C          -1.2078  -22.0206  -45.1640 C.2       10 UNK         0.5000 
     21 O          -1.2304  -23.2452  -45.2922 O.2       10 UNK        -0.5000 
     22 CA         -2.3472  -21.3239  -44.3941 C.3       10 UNK         0.1400 
     23 CB         -1.9395  -21.0367  -42.9419 C.3       10 UNK        -0.1800 
     24 N          -2.7942  -20.0888  -45.0441 N.am      10 UNK        -0.5000 
     25 C          -3.3755  -20.0433  -46.2522 C.2       9 UNK         0.5000 
     26 O          -3.6551  -21.0438  -46.9097 O.2       9 UNK        -0.5000 
     27 CA         -3.6385  -18.6540  -46.8589 C.3       9 UNK         0.1400 
     28 CB         -4.9375  -18.0478  -46.3104 C.3       9 UNK        -0.1800 
     29 N          -2.5321  -17.7215  -46.6453 N.am      9 UNK        -0.5000 
     30 C          -1.2893  -17.8885  -47.1182 C.2       8 UNK         0.5000 
     31 O          -0.9657  -18.8162  -47.8579 O.2       8 UNK        -0.5000 
     32 CA         -0.2160  -16.8982  -46.6234 C.3       8 UNK         0.1400 
     33 CB         -0.2387  -15.5974  -47.4383 C.3       8 UNK        -0.1800 
     34 N          -0.3601  -16.5970  -45.1961 N.am      8 UNK        -0.5000 
     35 C          -0.1830  -17.4990  -44.2191 C.2       7 UNK         0.5000 
     36 O           0.2042  -18.6487  -44.4231 O.2       7 UNK        -0.5000 
     37 CA         -0.5617  -17.0747  -42.7882 C.3       7 UNK         0.1400 
     38 CB          0.5992  -16.3776  -42.0664 C.3       7 UNK        -0.1800 
     39 N          -1.7379  -16.2082  -42.7727 N.am      7 UNK        -0.5000 
     40 C          -2.9899  -16.6438  -42.9656 C.2       6 UNK         0.5000 
     41 O          -3.2792  -17.8282  -43.1324 O.2       6 UNK        -0.5000 
     42 CA         -4.0952  -15.5720  -43.0177 C.3       6 UNK         0.1400 
     43 CB         -4.6013  -15.2508  -41.6038 C.3       6 UNK        -0.1800 
     44 N          -3.6514  -14.3356  -43.6643 N.am      6 UNK        -0.5000 
     45 C          -3.3233  -14.2315  -44.9602 C.2       5 UNK         0.5000 
     46 O          -3.4117  -15.1596  -45.7614 O.2       5 UNK        -0.5000 
     47 CA         -2.7472  -12.8819  -45.4270 C.3       5 UNK         0.1400 
     48 CB         -3.8727  -11.9513  -45.9016 C.3       5 UNK        -0.1800 
     49 N          -1.9560  -12.2054  -44.3950 N.am      5 UNK        -0.5000 
     50 C          -0.8249  -12.6880  -43.8648 C.2       4 UNK         0.5000 
     51 O          -0.3179  -13.7657  -44.1898 O.2       4 UNK        -0.5000 
     52 CA         -0.1978  -11.8570  -42.7403 C.3       4 UNK         0.1400 
     53 CB         -0.9054  -12.1368  -41.4022 C.3       4 UNK        -0.1800 
     54 N           1.2162  -12.1927  -42.6221 N.am      4 UNK        -0.5000 
     55 C           2.1708  -11.3655  -42.1809 C.2       3 UNK         0.5000 
     56 O           1.9492  -10.2118  -41.8095 O.2       3 UNK        -0.5000 
     57 CA          3.6159  -11.9038  -42.1243 C.3       3 UNK         0.1400 
     58 CB          4.0269  -12.1742  -40.6680 C.3       3 UNK        -0.1800 
     59 N           3.8433  -13.1227  -42.9057 N.am      3 UNK        -0.5000 
     60 C           3.8782  -13.1826  -44.2420 C.2       2 UNK         0.5000 
     61 O           3.6806  -12.2131  -44.9803 O.2       2 UNK        -0.5000 
     62 CA          4.1790  -14.5624  -44.8452 C.3       2 UNK         0.1400 
     63 CB          3.0416  -15.5604  -44.5659 C.3       2 UNK        -0.1800 
     64 N           4.3643  -14.4175  -46.2814 N.am      2 UNK        -0.5000 
     65 C           5.0131  -15.2756  -47.0745 C.2       1 UNK         0.5000 
     66 O           5.5452  -16.3109  -46.6718 O.2       1 UNK        -0.5000 
     67 C           0.1624  -22.3450  -47.8792 C.2       11 UNK         0.5000 
     68 O           0.5136  -23.4796  -48.1963 O.2       11 UNK        -0.5000 
     69 N          -0.7740  -21.6448  -48.5292 N.am      12 UNK        -0.5000 
     70 CA         -1.4820  -22.0883  -49.7258 C.3       12 UNK         0.1400 
     71 CB         -2.3270  -20.9226  -50.2370 C.3       12 UNK        -0.1800 
     72 C          -2.3447  -23.3399  -49.5026 C.2       12 UNK         0.5000 
     73 O          -2.3604  -24.2238  -50.3624 O.2       12 UNK        -0.5000 
     74 N          -3.0156  -23.4086  -48.3450 N.am      13 UNK        -0.5000 
     75 CA         -3.7905  -24.5611  -47.8913 C.3       13 UNK         0.1400 
     76 CB         -4.5219  -24.2157  -46.5854 C.3       13 UNK        -0.1800 
     77 C          -2.9207  -25.8166  -47.7047 C.2       13 UNK         0.5000 
     78 O          -3.3263  -26.9009  -48.1213 O.2       13 UNK        -0.5000 
     79 N          -1.7330  -25.6454  -47.1105 N.am      14 UNK        -0.5000 
     80 CA         -0.7557  -26.7145  -46.9190 C.3       14 UNK         0.1400 
     81 CB          0.2935  -26.2670  -45.8893 C.3       14 UNK        -0.1800 
     82 C          -0.0821  -27.1443  -48.2354 C.2       14 UNK         0.5000 
     83 O           0.0753  -28.3425  -48.4731 O.2       14 UNK        -0.5000 
     84 N           0.3202  -26.1627  -49.0528 N.am      15 UNK        -0.5000 
     85 CA          1.1049  -26.3714  -50.2672 C.3       15 UNK         0.1400 
     86 CB          1.7770  -25.0506  -50.6750 C.3       15 UNK        -0.1800 
     87 C           0.2993  -26.9433  -51.4445 C.2       15 UNK         0.5000 
     88 O           0.8025  -27.8345  -52.1308 O.2       15 UNK        -0.5000 
     89 N          -0.9014  -26.4014  -51.6899 N.am      16 UNK        -0.5000 
     90 CA         -1.6497  -26.6375  -52.9294 C.3       16 UNK         0.1400 
     91 CB         -1.3676  -25.4672  -53.8908 C.3       16 UNK        -0.1800 
     92 C          -3.1626  -26.8188  -52.7212 C.2       16 UNK         0.5000 
     93 O          -3.8783  -26.9781  -53.7108 O.2       16 UNK        -0.5000 
     94 N          -3.6360  -26.7555  -51.4669 N.am      17 UNK        -0.5000 
     95 CA         -5.0508  -26.7062  -51.0659 C.3       17 UNK         0.1400 
     96 CB         -5.7966  -27.9994  -51.4566 C.3       17 UNK        -0.1800 
     97 C          -5.7766  -25.4283  -51.5469 C.2       17 UNK         0.5000 
     98 O          -7.0072  -25.3939  -51.5823 O.2       17 UNK        -0.5000 
     99 N          -5.0090  -24.3811  -51.8769 N.am      18 UNK        -0.5000 
    100 CA        -5.4808  -23.1006  -52.4025 C.3       18 UNK         0.1400 
    101 CB        -4.4468  -22.5761  -53.4144 C.3       18 UNK        -0.1800 
    102 C         -5.7581  -22.1130  -51.2543 C.2       18 UNK         0.5000 
    103 O         -5.2606  -20.9862  -51.2634 O.2       18 UNK        -0.5000 
    104 N         -6.5424  -22.5730  -50.2699 N.am      19 UNK        -0.5000 
    105 CA        -6.8176  -21.9118  -48.9907 C.3       19 UNK         0.1400 
    106 CB        -7.7019  -22.8367  -48.1412 C.3       19 UNK        -0.1800 
    107 C         -7.4489  -20.5097  -49.0938 C.2       19 UNK         0.5000 
    108 O         -7.3454  -19.7316  -48.1467 O.2       19 UNK        -0.5000 
    109 N         -8.0527  -20.1823  -50.2427 N.am      20 UNK        -0.5000 
    110 CA        -8.5567  -18.8540  -50.5927 C.3       20 UNK         0.1400 
    111 CB        -9.6086  -19.0087  -51.7060 C.3       20 UNK        -0.1800 
    112 C         -7.4135  -17.8868  -50.9812 C.2       20 UNK         0.5000 
    113 O         -7.4306  -17.3230  -52.0767 O.2       20 UNK        -0.5000 
    114 N         -6.4295  -17.7334  -50.0819 N.am      21 UNK        -0.5000 
    115 CA        -5.2663  -16.8396  -50.1572 C.3       21 UNK         0.1400 
    116 CB        -5.7029  -15.3914  -49.8580 C.3       21 UNK        -0.1800 
    117 C         -4.4627  -16.9693  -51.4703 C.2       21 UNK         0.5000 
    118 O         -4.1692  -15.9609  -52.1149 O.2       21 UNK        -0.5000 
    119 N         -4.1552  -18.2170  -51.8498 N.am      22 UNK        -0.5000 
    120 CA        -3.4862  -18.6141  -53.1032 C.3       22 UNK         0.1400 
    121 C         -4.4063  -18.5841  -54.3622 C.2       22 UNK         0.5000 
    122 N         -5.6904  -18.2613  -54.2622 N.am      22 UNK        -0.7600 
    123 O         -3.9530  -18.8948  -55.4603 O.2       22 UNK        -0.5000 
    124 C124       -2.1238  -17.9052  -53.3774 C.3       23 UNK        -0.0398 
    125 S125       -0.9254  -17.9627  -51.9975 S.3       23 UNK        -0.2404 
    126 C126        0.2129  -19.2686  -52.5607 C.3       23 UNK        -0.0205 
    127 H127        6.5447  -10.7895  -49.5282 H         1 UNK         0.0600 
    128 H128        5.7951  -10.5537  -47.9452 H         1 UNK         0.0600 
    129 H129        4.8019  -10.9985  -49.3358 H         1 UNK         0.0600 
    130 H130        4.1939  -13.1410  -49.2833 H         1 UNK         0.3000 
    131 H131        6.0239  -15.3053  -48.9508 H         1 UNK         0.0600 
    132 H132        3.9217  -16.7292  -49.0394 H         1 UNK         0.0800 
    133 H133        2.9604  -15.2794  -49.0251 H         1 UNK         0.0800 
    134 H134        4.9668  -17.2022  -52.6227 H         1 UNK         0.0800 
    135 H135        5.6314  -17.3822  -51.0176 H         1 UNK         0.0800 
    136 H136        2.2595  -17.4965  -52.7089 H         1 UNK         0.1150 
    137 H137        1.0657  -21.0705  -50.6771 H         1 UNK         0.1150 
    138 H138        4.8857  -19.3227  -49.8514 H         1 UNK         0.1150 
    139 H139        2.6248  -22.2897  -49.3554 H         1 UNK         0.0800 
    140 H140        4.3029  -21.8831  -49.5133 H         1 UNK         0.0800 
    141 H141        1.3222  -19.9156  -47.8894 H         1 UNK         0.0800 
    142 H142        1.8148  -19.7962  -46.2338 H         1 UNK         0.0800 
    143 H143        1.3639  -22.4149  -46.1072 H         1 UNK         0.0600 
    144 H144       -0.2997  -20.2370  -45.4950 H         1 UNK         0.3000 
    145 H145       -3.1971  -22.0088  -44.3723 H         1 UNK         0.0600 
    146 H146       -2.7566  -20.5765  -42.3860 H         1 UNK         0.0600 
    147 H147       -1.6728  -21.9592  -42.4248 H         1 UNK         0.0600 
    148 H148       -1.0791  -20.3714  -42.8850 H         1 UNK         0.0600 
    149 H149       -2.6566  -19.2243  -44.5328 H         1 UNK         0.3000 
    150 H150       -3.7544  -18.7944  -47.9349 H         1 UNK         0.0600 
    151 H151       -5.7654  -18.7503  -46.3933 H         1 UNK         0.0600 
    152 H152       -5.2150  -17.1457  -46.8556 H         1 UNK         0.0600 
    153 H153       -4.8473  -17.7860  -45.2577 H         1 UNK         0.0600 
    154 H154       -2.7414  -16.8860  -46.1054 H         1 UNK         0.3000 
    155 H155        0.7599  -17.3663  -46.7691 H         1 UNK         0.0600 
    156 H156       -0.0588  -15.7998  -48.4951 H         1 UNK         0.0600 
    157 H157        0.5349  -14.9068  -47.1014 H         1 UNK         0.0600 
    158 H158       -1.1995  -15.0893  -47.3620 H         1 UNK         0.0600 
    159 H159       -0.6281  -15.6519  -44.9449 H         1 UNK         0.3000 
    160 H160       -0.7956  -17.9832  -42.2292 H         1 UNK         0.0600 
    161 H161        0.8584  -15.4291  -42.5339 H         1 UNK         0.0600 
    162 H162        1.4898  -17.0070  -42.0652 H         1 UNK         0.0600 
    163 H163        0.3465  -16.1744  -41.0257 H         1 UNK         0.0600 
    164 H164       -1.5709  -15.2157  -42.7008 H         1 UNK         0.3000 
    165 H165       -4.9283  -15.9778  -43.5951 H         1 UNK         0.0600 
    166 H166       -5.4344  -14.5484  -41.6333 H         1 UNK         0.0600 
    167 H167       -4.9556  -16.1525  -41.1024 H         1 UNK         0.0600 
    168 H168       -3.8168  -14.8163  -40.9827 H         1 UNK         0.0600 
    169 H169       -3.5571  -13.5206  -43.0770 H         1 UNK         0.3000 
    170 H170       -2.0888  -13.0800  -46.2749 H         1 UNK         0.0600 
    171 H171       -4.4643  -12.4240  -46.6870 H         1 UNK         0.0600 
    172 H172       -4.5526  -11.6926  -45.0889 H         1 UNK         0.0600 
    173 H173       -3.4716  -11.0247  -46.3126 H         1 UNK         0.0600 
    174 H174       -2.3114  -11.3183  -44.0678 H         1 UNK         0.3000 
    175 H175       -0.3044  -10.8014  -42.9993 H         1 UNK         0.0600 
    176 H176       -0.8160  -13.1846  -41.1121 H         1 UNK         0.0600 
    177 H177       -0.4833  -11.5323  -40.5992 H         1 UNK         0.0600 
    178 H178       -1.9683  -11.8992  -41.4589 H         1 UNK         0.0600 
    179 H179        1.4676  -13.1057  -42.9758 H         1 UNK         0.3000 
    180 H180        4.2662  -11.1210  -42.5207 H         1 UNK         0.0600 
    181 H181        3.4189  -12.9603  -40.2184 H         1 UNK         0.0600 
    182 H182        3.9112  -11.2793  -40.0549 H         1 UNK         0.0600 
    183 H183        5.0721  -12.4768  -40.6016 H         1 UNK         0.0600 
    184 H184        4.0125  -13.9645  -42.3741 H         1 UNK         0.3000 
    185 H185        5.1074  -14.9296  -44.4027 H         1 UNK         0.0600 
    186 H186        2.9836  -15.7833  -43.5021 H         1 UNK         0.0600 
    187 H187        2.0762  -15.1647  -44.8826 H         1 UNK         0.0600 
    188 H188        3.1972  -16.5096  -45.0789 H         1 UNK         0.0600 
    189 H189        4.0129  -13.5470  -46.6609 H         1 UNK         0.3000 
    190 H190       -0.9868  -20.7048  -48.2037 H         1 UNK         0.3000 
    191 H191       -0.7398  -22.3377  -50.4847 H         1 UNK         0.0600 
    192 H192       -1.7505  -20.0010  -50.2613 H         1 UNK         0.0600 
    193 H193       -2.6726  -21.1184  -51.2488 H         1 UNK         0.0600 
    194 H194       -3.1979  -20.7432  -49.6063 H         1 UNK         0.0600 
    195 H195       -3.0055  -22.5984  -47.7299 H         1 UNK         0.3000 
    196 H196       -4.5413  -24.7714  -48.6538 H         1 UNK         0.0600 
    197 H197       -5.1636  -25.0387  -46.2691 H         1 UNK         0.0600 
    198 H198       -5.1541  -23.3366  -46.7015 H         1 UNK         0.0600 
    199 H199       -3.8232  -24.0141  -45.7734 H         1 UNK         0.0600 
    200 H200       -1.4784  -24.7246  -46.7686 H         1 UNK         0.3000 
    201 H201       -1.2754  -27.5842  -46.5112 H         1 UNK         0.0600 
    202 H202       -0.1710  -26.0356  -44.9306 H         1 UNK         0.0600 
    203 H203        0.8318  -25.3782  -46.2203 H         1 UNK         0.0600 
    204 H204        1.0299  -27.0522  -45.7142 H         1 UNK         0.0600 
    205 H205        0.2021  -25.1972  -48.7518 H         1 UNK         0.3000 
    206 H206        1.8982  -27.0857  -50.0363 H         1 UNK         0.0600 
    207 H207        2.4486  -24.6967  -49.8930 H         1 UNK         0.0600 
    208 H208        2.3718  -25.1749  -51.5808 H         1 UNK         0.0600 
    209 H209        1.0434  -24.2667  -50.8678 H         1 UNK         0.0600 
    210 H210       -1.2467  -25.6585  -51.0885 H         1 UNK         0.3000 
    211 H211       -1.3127  -27.5597  -53.4069 H         1 UNK         0.0600 
    212 H212       -1.7020  -24.5175  -53.4713 H         1 UNK         0.0600 
    213 H213       -1.8774  -25.6035  -54.8453 H         1 UNK         0.0600 
    214 H214       -0.3023  -25.3811  -54.1056 H         1 UNK         0.0600 
    215 H215       -2.9709  -26.6307  -50.7159 H         1 UNK         0.3000 
    216 H216       -5.0626  -26.6565  -49.9792 H         1 UNK         0.0600 
    217 H217       -6.7855  -28.0318  -50.9981 H         1 UNK         0.0600 
    218 H218       -5.2557  -28.8833  -51.1188 H         1 UNK         0.0600 
    219 H219       -5.9382  -28.0819  -52.5342 H         1 UNK         0.0600 
    220 H220       -4.0121  -24.4580  -51.7142 H         1 UNK         0.3000 
    221 H221       -6.4219  -23.2456  -52.9368 H         1 UNK         0.0600 
    222 H222       -3.4679  -22.4333  -52.9580 H         1 UNK         0.0600 
    223 H223       -4.3249  -23.2734  -54.2435 H         1 UNK         0.0600 
    224 H224       -4.7611  -21.6225  -53.8396 H         1 UNK         0.0600 
    225 H225       -6.9270  -23.5021  -50.3851 H         1 UNK         0.3000 
    226 H226       -5.8590  -21.7891  -48.4830 H         1 UNK         0.0600 
    227 H227       -7.2380  -23.8133  -48.0023 H         1 UNK         0.0600 
    228 H228       -7.8705  -22.4142  -47.1497 H         1 UNK         0.0600 
    229 H229       -8.6776  -22.9928  -48.6031 H         1 UNK         0.0600 
    230 H230       -8.0551  -20.8701  -50.9808 H         1 UNK         0.3000 
    231 H231       -9.0571  -18.4262  -49.7215 H         1 UNK         0.0600 
    232 H232       -9.1754  -19.4316  -52.6134 H         1 UNK         0.0600 
    233 H233      -10.0467  -18.0447  -51.9680 H         1 UNK         0.0600 
    234 H234      -10.4249  -19.6582  -51.3896 H         1 UNK         0.0600 
    235 H235       -6.5146  -18.2798  -49.2306 H         1 UNK         0.3000 
    236 H236       -4.5863  -17.1426  -49.3617 H         1 UNK         0.0600 
    237 H237       -6.2093  -15.3244  -48.8951 H         1 UNK         0.0600 
    238 H238       -4.8424  -14.7225  -49.8162 H         1 UNK         0.0600 
    239 H239       -6.3813  -15.0098  -50.6219 H         1 UNK         0.0600 
    240 H240       -4.5061  -18.9949  -51.3019 H         1 UNK         0.3000 
    241 H241       -3.2622  -19.6713  -52.9681 H         1 UNK         0.0600 
    242 H242       -6.1007  -17.9694  -53.3813 H         1 UNK         0.3800 
    243 H243       -6.2600  -18.2621  -55.0929 H         1 UNK         0.3800 
    244 H244       -1.6519  -18.3360  -54.2615 H         1 UNK         0.0800 
    245 H245       -2.2872  -16.8567  -53.6279 H         1 UNK         0.0800 
    246 H246        0.4542  -19.1181  -53.6138 H         1 UNK         0.0800 
    247 H247       -0.2880  -20.2354  -52.4931 H         1 UNK         0.0800 
@<TRIPOS>BOND
     1    1    2 1    
     2    1  127 1    
     3    1  128 1    
     4    1  129 1    
     5    2    3 2    
     6    2    4 am   BACKBONE|DICT|INTERRES
     7    4    5 1    
     8    4  130 1    
     9    5    6 1    
    10    5   65 1    
    11    5  131 1    
    12    6    7 1    
    13    6  132 1    
    14    6  133 1    
    15    7    8 1    
    16    8    9 1    
    17    8  134 1    
    18    8  135 1    
    19    9   10 ar   
    20    9   14 ar   
    21   10   11 ar   
    22   10  136 1    
    23   11   12 ar   
    24   11  126 1    
    25   12   13 ar   
    26   12  137 1    
    27   13   14 ar   
    28   13   15 1    
    29   14  138 1    
    30   15   16 1    
    31   15  139 1    
    32   15  140 1    
    33   16   17 1    
    34   17   18 1    
    35   17  141 1    
    36   17  142 1    
    37   18   19 1    
    38   18   67 1    
    39   18  143 1    
    40   19   20 am   BACKBONE|DICT|INTERRES
    41   19  144 1    
    42   20   21 2    
    43   20   22 1    
    44   22   23 1    
    45   22   24 1    
    46   22  145 1    
    47   23  146 1    
    48   23  147 1    
    49   23  148 1    
    50   24   25 am   BACKBONE|DICT|INTERRES
    51   24  149 1    
    52   25   26 2    
    53   25   27 1    
    54   27   28 1    
    55   27   29 1    
    56   27  150 1    
    57   28  151 1    
    58   28  152 1    
    59   28  153 1    
    60   29   30 am   BACKBONE|DICT|INTERRES
    61   29  154 1    
    62   30   31 2    
    63   30   32 1    
    64   32   33 1    
    65   32   34 1    
    66   32  155 1    
    67   33  156 1    
    68   33  157 1    
    69   33  158 1    
    70   34   35 am   BACKBONE|DICT|INTERRES
    71   34  159 1    
    72   35   36 2    
    73   35   37 1    
    74   37   38 1    
    75   37   39 1    
    76   37  160 1    
    77   38  161 1    
    78   38  162 1    
    79   38  163 1    
    80   39   40 am   BACKBONE|DICT|INTERRES
    81   39  164 1    
    82   40   41 2    
    83   40   42 1    
    84   42   43 1    
    85   42   44 1    
    86   42  165 1    
    87   43  166 1    
    88   43  167 1    
    89   43  168 1    
    90   44   45 am   BACKBONE|DICT|INTERRES
    91   44  169 1    
    92   45   46 2    
    93   45   47 1    
    94   47   48 1    
    95   47   49 1    
    96   47  170 1    
    97   48  171 1    
    98   48  172 1    
    99   48  173 1    
   100   49   50 am   BACKBONE|DICT|INTERRES
   101   49  174 1    
   102   50   51 2    
   103   50   52 1    
   104   52   53 1    
   105   52   54 1    
   106   52  175 1    
   107   53  176 1    
   108   53  177 1    
   109   53  178 1    
   110   54   55 am   BACKBONE|DICT|INTERRES
   111   54  179 1    
   112   55   56 2    
   113   55   57 1    
   114   57   58 1    
   115   57   59 1    
   116   57  180 1    
   117   58  181 1    
   118   58  182 1    
   119   58  183 1    
   120   59   60 am   BACKBONE|DICT|INTERRES
   121   59  184 1    
   122   60   61 2    
   123   60   62 1    
   124   62   63 1    
   125   62   64 1    
   126   62  185 1    
   127   63  186 1    
   128   63  187 1    
   129   63  188 1    
   130   64   65 am   BACKBONE|DICT|INTERRES
   131   64  189 1    
   132   65   66 2    
   133   67   68 2    
   134   67   69 am   BACKBONE|DICT|INTERRES
   135   69   70 1    
   136   69  190 1    
   137   70   71 1    
   138   70   72 1    
   139   70  191 1    
   140   71  192 1    
   141   71  193 1    
   142   71  194 1    
   143   72   73 2    
   144   72   74 am   BACKBONE|DICT|INTERRES
   145   74   75 1    
   146   74  195 1    
   147   75   76 1    
   148   75   77 1    
   149   75  196 1    
   150   76  197 1    
   151   76  198 1    
   152   76  199 1    
   153   77   78 2    
   154   77   79 am   BACKBONE|DICT|INTERRES
   155   79   80 1    
   156   79  200 1    
   157   80   81 1    
   158   80   82 1    
   159   80  201 1    
   160   81  202 1    
   161   81  203 1    
   162   81  204 1    
   163   82   83 2    
   164   82   84 am   BACKBONE|DICT|INTERRES
   165   84   85 1    
   166   84  205 1    
   167   85   86 1    
   168   85   87 1    
   169   85  206 1    
   170   86  207 1    
   171   86  208 1    
   172   86  209 1    
   173   87   88 2    
   174   87   89 am   BACKBONE|DICT|INTERRES
   175   89   90 1    
   176   89  210 1    
   177   90   91 1    
   178   90   92 1    
   179   90  211 1    
   180   91  212 1    
   181   91  213 1    
   182   91  214 1    
   183   92   93 2    
   184   92   94 am   BACKBONE|DICT|INTERRES
   185   94   95 1    
   186   94  215 1    
   187   95   96 1    
   188   95   97 1    
   189   95  216 1    
   190   96  217 1    
   191   96  218 1    
   192   96  219 1    
   193   97   98 2    
   194   97   99 am   BACKBONE|DICT|INTERRES
   195   99  100 1    
   196   99  220 1    
   197  100  101 1    
   198  100  102 1    
   199  100  221 1    
   200  101  222 1    
   201  101  223 1    
   202  101  224 1    
   203  102  103 2    
   204  102  104 am   BACKBONE|DICT|INTERRES
   205  104  105 1    
   206  104  225 1    
   207  105  106 1    
   208  105  107 1    
   209  105  226 1    
   210  106  227 1    
   211  106  228 1    
   212  106  229 1    
   213  107  108 2    
   214  107  109 am   BACKBONE|DICT|INTERRES
   215  109  110 1    
   216  109  230 1    
   217  110  111 1    
   218  110  112 1    
   219  110  231 1    
   220  111  232 1    
   221  111  233 1    
   222  111  234 1    
   223  112  113 2    
   224  112  114 am   BACKBONE|DICT|INTERRES
   225  114  115 1    
   226  114  235 1    
   227  115  116 1    
   228  115  117 1    
   229  115  236 1    
   230  116  237 1    
   231  116  238 1    
   232  116  239 1    
   233  117  118 2    
   234  117  119 am   BACKBONE|DICT|INTERRES
   235  119  120 1    
   236  119  240 1    
   237  120  121 1    
   238  120  124 1    
   239  120  241 1    
   240  121  122 am   BACKBONE|DICT|INTERRES
   241  121  123 2    
   242  122  242 1    
   243  122  243 1    
   244  124  125 1    
   245  124  244 1    
   246  124  245 1    
   247  125  126 1    
   248  126  246 1    
   249  126  247 1    
@<TRIPOS>SUBSTRUCTURE
     1 UNK         1 GROUP             0       ****    0 ROOT    
