@<TRIPOS>MOLECULE
3R540
247   249    1
SMALL
USER_CHARGES


@<TRIPOS>ATOM
      1 CA          1.1609  -10.4506  -46.5031 C.3       0 UNK        -0.1800 
      2 C           2.2342  -10.8599  -47.5011 C.2       0 UNK         0.5000 
      3 O           3.4183  -10.6337  -47.2549 O.2       0 UNK        -0.5000 
      4 N           1.8324  -11.4878  -48.6138 N.am      1 UNK        -0.5000 
      5 CA          2.7090  -12.0118  -49.6743 C.3       1 UNK         0.1400 
      6 C6          1.9054  -12.4926  -50.9113 C.3       23 UNK        -0.0398 
      7 S7          0.4767  -13.5606  -50.5081 S.3       23 UNK        -0.2404 
      8 C8          1.1474  -15.2333  -50.8136 C.3       23 UNK        -0.0205 
      9 C9          0.2019  -16.3956  -50.4972 C.ar      23 UNK        -0.0193 
     10 C10        -1.0884  -16.2152  -49.9785 C.ar      23 UNK        -0.1150 
     11 C11        -1.9284  -17.3068  -49.7289 C.ar      23 UNK        -0.0193 
     12 C12        -1.4540  -18.5952  -49.9886 C.ar      23 UNK        -0.1150 
     13 C13        -0.1668  -18.7996  -50.4910 C.ar      23 UNK        -0.0193 
     14 C14         0.6504  -17.6961  -50.7474 C.ar      23 UNK        -0.1150 
     15 C15         0.3364  -20.2130  -50.7562 C.3       23 UNK        -0.0205 
     16 S16         1.7339  -20.6917  -49.6820 S.3       23 UNK        -0.2404 
     17 C17         1.0698  -20.4327  -48.0000 C.3       23 UNK        -0.0398 
     18 CA          0.5102  -21.7110  -47.3297 C.3       11 UNK         0.1400 
     19 N           0.3391  -21.5299  -45.8865 N.am      11 UNK        -0.5000 
     20 C          -0.0334  -22.4812  -45.0187 C.2       10 UNK         0.5000 
     21 O          -0.2052  -23.6607  -45.3261 O.2       10 UNK        -0.5000 
     22 CA         -0.3143  -22.0260  -43.5743 C.3       10 UNK         0.1400 
     23 CB          0.9902  -21.8967  -42.7745 C.3       10 UNK        -0.1800 
     24 N          -1.0592  -20.7658  -43.5178 N.am      10 UNK        -0.5000 
     25 C          -2.3085  -20.6061  -43.9791 C.2       9 UNK         0.5000 
     26 O          -2.9832  -21.5229  -44.4475 O.2       9 UNK        -0.5000 
     27 CA         -2.8858  -19.1779  -43.9622 C.3       9 UNK         0.1400 
     28 CB         -3.4031  -18.8093  -42.5642 C.3       9 UNK        -0.1800 
     29 N          -1.9233  -18.1730  -44.4162 N.am      9 UNK        -0.5000 
     30 C          -1.3943  -18.1338  -45.6473 C.2       8 UNK         0.5000 
     31 O          -1.7050  -18.9161  -46.5437 O.2       8 UNK        -0.5000 
     32 CA         -0.2850  -17.0965  -45.8998 C.3       8 UNK         0.1400 
     33 CB         -0.8703  -15.7062  -46.1864 C.3       8 UNK        -0.1800 
     34 N           0.6593  -17.0187  -44.7839 N.am      8 UNK        -0.5000 
     35 C           1.4646  -18.0226  -44.4068 C.2       7 UNK         0.5000 
     36 O           1.5304  -19.1006  -44.9940 O.2       7 UNK        -0.5000 
     37 CA          2.2938  -17.8131  -43.1293 C.3       7 UNK         0.1400 
     38 CB          3.5888  -17.0435  -43.4238 C.3       7 UNK        -0.1800 
     39 N           1.5278  -17.1241  -42.0923 N.am      7 UNK        -0.5000 
     40 C           0.4907  -17.6675  -41.4389 C.2       6 UNK         0.5000 
     41 O           0.1080  -18.8251  -41.6062 O.2       6 UNK        -0.5000 
     42 CA         -0.2727  -16.7447  -40.4719 C.3       6 UNK         0.1400 
     43 CB          0.4091  -16.7192  -39.0959 C.3       6 UNK        -0.1800 
     44 N          -0.3876  -15.3774  -40.9824 N.am      6 UNK        -0.5000 
     45 C          -1.0988  -15.0297  -42.0649 C.2       5 UNK         0.5000 
     46 O          -1.7776  -15.8211  -42.7175 O.2       5 UNK        -0.5000 
     47 CA         -0.9857  -13.5638  -42.5231 C.3       5 UNK         0.1400 
     48 CB         -2.0177  -12.6875  -41.7983 C.3       5 UNK        -0.1800 
     49 N           0.3568  -13.0144  -42.3130 N.am      5 UNK        -0.5000 
     50 C           1.4459  -13.4209  -42.9765 C.2       4 UNK         0.5000 
     51 O           1.4287  -14.2778  -43.8646 O.2       4 UNK        -0.5000 
     52 CA          2.7810  -12.8115  -42.5356 C.3       4 UNK         0.1400 
     53 CB          3.3737  -13.6084  -41.3578 C.3       4 UNK        -0.1800 
     54 N           3.6937  -12.8212  -43.6723 N.am      4 UNK        -0.5000 
     55 C           4.8191  -12.1064  -43.7814 C.2       3 UNK         0.5000 
     56 O           5.2450  -11.3787  -42.8829 O.2       3 UNK        -0.5000 
     57 CA          5.5802  -12.1597  -45.1222 C.3       3 UNK         0.1400 
     58 CB          7.0670  -12.5292  -44.9392 C.3       3 UNK        -0.1800 
     59 N           4.9265  -12.9708  -46.1582 N.am      3 UNK        -0.5000 
     60 C           4.8902  -14.3061  -46.2940 C.2       2 UNK         0.5000 
     61 O           5.4556  -15.0852  -45.5280 O.2       2 UNK        -0.5000 
     62 CA          4.0579  -14.8755  -47.4656 C.3       2 UNK         0.1400 
     63 CB          3.0938  -15.9690  -46.9840 C.3       2 UNK        -0.1800 
     64 N           3.2681  -13.8496  -48.1467 N.am      2 UNK        -0.5000 
     65 C           3.6816  -13.1063  -49.1807 C.2       1 UNK         0.5000 
     66 O           4.7806  -13.2354  -49.7204 O.2       1 UNK        -0.5000 
     67 C          -0.7995  -22.1803  -47.9928 C.2       11 UNK         0.5000 
     68 O          -0.7830  -23.1650  -48.7296 O.2       11 UNK        -0.5000 
     69 N          -1.9156  -21.5018  -47.6882 N.am      12 UNK        -0.5000 
     70 CA         -3.2496  -21.8508  -48.1738 C.3       12 UNK         0.1400 
     71 CB         -4.2647  -20.7767  -47.7623 C.3       12 UNK        -0.1800 
     72 C          -3.7148  -23.2423  -47.7179 C.2       12 UNK         0.5000 
     73 O          -4.2691  -23.9804  -48.5309 O.2       12 UNK        -0.5000 
     74 N          -3.4496  -23.5884  -46.4506 N.am      13 UNK        -0.5000 
     75 CA         -3.7290  -24.9034  -45.8740 C.3       13 UNK         0.1400 
     76 CB         -3.4827  -24.8706  -44.3582 C.3       13 UNK        -0.1800 
     77 C          -2.9163  -26.0268  -46.5428 C.2       13 UNK         0.5000 
     78 O          -3.4882  -27.0610  -46.8887 O.2       13 UNK        -0.5000 
     79 N          -1.6146  -25.7894  -46.7627 N.am      14 UNK        -0.5000 
     80 CA         -0.7126  -26.6947  -47.4825 C.3       14 UNK         0.1400 
     81 CB          0.7296  -26.1792  -47.3649 C.3       14 UNK        -0.1800 
     82 C          -1.1072  -26.8818  -48.9612 C.2       14 UNK         0.5000 
     83 O          -0.9911  -27.9863  -49.4922 O.2       14 UNK        -0.5000 
     84 N          -1.6103  -25.8068  -49.5792 N.am      15 UNK        -0.5000 
     85 CA         -2.1548  -25.7666  -50.9361 C.3       15 UNK         0.1400 
     86 CB         -2.0476  -24.3225  -51.4440 C.3       15 UNK        -0.1800 
     87 C          -3.6099  -26.2768  -51.0412 C.2       15 UNK         0.5000 
     88 O          -4.2001  -26.1855  -52.1223 O.2       15 UNK        -0.5000 
     89 N          -4.1768  -26.7607  -49.9230 N.am      16 UNK        -0.5000 
     90 CA         -5.5238  -27.3209  -49.7513 C.3       16 UNK         0.1400 
     91 CB         -5.6321  -28.6664  -50.4978 C.3       16 UNK        -0.1800 
     92 C          -6.6637  -26.3492  -50.1278 C.2       16 UNK         0.5000 
     93 O          -7.7519  -26.7954  -50.4943 O.2       16 UNK        -0.5000 
     94 N          -6.3759  -25.0395  -50.0747 N.am      17 UNK        -0.5000 
     95 CA         -7.1826  -23.9114  -50.5546 C.3       17 UNK         0.1400 
     96 CB         -8.4603  -23.7581  -49.7052 C.3       17 UNK        -0.1800 
     97 C          -7.4855  -23.9463  -52.0727 C.2       17 UNK         0.5000 
     98 O          -8.3342  -23.1831  -52.5357 O.2       17 UNK        -0.5000 
     99 N          -6.7956  -24.8175  -52.8221 N.am      18 UNK        -0.5000 
    100 CA        -7.0216  -25.0703  -54.2429 C.3       18 UNK         0.1400 
    101 CB        -7.0194  -26.5883  -54.4865 C.3       18 UNK        -0.1800 
    102 C         -5.9493  -24.3831  -55.0970 C.2       18 UNK         0.5000 
    103 O         -6.2872  -23.7182  -56.0766 O.2       18 UNK        -0.5000 
    104 N         -4.6800  -24.5368  -54.6973 N.am      19 UNK        -0.5000 
    105 CA        -3.5193  -23.9414  -55.3671 C.3       19 UNK         0.1400 
    106 CB        -2.4040  -24.9995  -55.4459 C.3       19 UNK        -0.1800 
    107 C         -3.0376  -22.6505  -54.6713 C.2       19 UNK         0.5000 
    108 O         -1.9864  -22.1214  -55.0350 O.2       19 UNK        -0.5000 
    109 N         -3.7895  -22.1846  -53.6634 N.am      20 UNK        -0.5000 
    110 CA        -3.4997  -20.9995  -52.8586 C.3       20 UNK         0.1400 
    111 CB        -4.5148  -20.9296  -51.7071 C.3       20 UNK        -0.1800 
    112 C         -3.5413  -19.7057  -53.6926 C.2       20 UNK         0.5000 
    113 O         -4.4148  -19.5567  -54.5501 O.2       20 UNK        -0.5000 
    114 N         -2.6152  -18.7842  -53.4033 N.am      21 UNK        -0.5000 
    115 CA        -2.4923  -17.4924  -54.0848 C.3       21 UNK         0.1400 
    116 CB        -1.0131  -17.0759  -54.0918 C.3       21 UNK        -0.1800 
    117 C         -3.3737  -16.3891  -53.4633 C.2       21 UNK         0.5000 
    118 O         -3.3604  -15.2617  -53.9600 O.2       21 UNK        -0.5000 
    119 N         -4.1199  -16.7136  -52.4017 N.am      22 UNK        -0.5000 
    120 CA        -5.0377  -15.8100  -51.7012 C.3       22 UNK         0.1400 
    121 C         -6.2705  -16.5629  -51.1286 C.2       22 UNK         0.5000 
    122 N         -7.2625  -15.8463  -50.6179 N.am      22 UNK        -0.7600 
    123 O         -6.3416  -17.7904  -51.1454 O.2       22 UNK        -0.5000 
    124 C124       -4.2963  -14.8790  -50.6942 C.3       23 UNK        -0.0398 
    125 S125       -4.0069  -15.4688  -48.9813 S.3       23 UNK        -0.2404 
    126 C126       -3.3395  -17.1630  -49.1544 C.3       23 UNK        -0.0205 
    127 H127        1.1857   -9.3723  -46.3466 H         1 UNK         0.0600 
    128 H128        0.1627  -10.7226  -46.8471 H         1 UNK         0.0600 
    129 H129        1.3353  -10.9401  -45.5447 H         1 UNK         0.0600 
    130 H130        0.8463  -11.6556  -48.7598 H         1 UNK         0.3000 
    131 H131        3.3363  -11.1793  -50.0002 H         1 UNK         0.0600 
    132 H132        2.5505  -12.9884  -51.6393 H         1 UNK         0.0800 
    133 H133        1.5092  -11.6191  -51.4307 H         1 UNK         0.0800 
    134 H134        1.4388  -15.2993  -51.8629 H         1 UNK         0.0800 
    135 H135        2.0571  -15.3651  -50.2281 H         1 UNK         0.0800 
    136 H136       -1.4436  -15.2216  -49.7627 H         1 UNK         0.1150 
    137 H137       -2.0866  -19.4456  -49.7792 H         1 UNK         0.1150 
    138 H138        1.6448  -17.8537  -51.1414 H         1 UNK         0.1150 
    139 H139       -0.4677  -20.9410  -50.6411 H         1 UNK         0.0800 
    140 H140        0.6579  -20.2831  -51.7962 H         1 UNK         0.0800 
    141 H141        0.3354  -19.6291  -47.9964 H         1 UNK         0.0800 
    142 H142        1.9060  -20.0576  -47.4096 H         1 UNK         0.0800 
    143 H143        1.2451  -22.5085  -47.4574 H         1 UNK         0.0600 
    144 H144        0.5183  -20.5948  -45.5294 H         1 UNK         0.3000 
    145 H145       -0.9264  -22.7948  -43.0983 H         1 UNK         0.0600 
    146 H146        0.7903  -21.6389  -41.7343 H         1 UNK         0.0600 
    147 H147        1.5434  -22.8366  -42.7769 H         1 UNK         0.0600 
    148 H148        1.6445  -21.1298  -43.1886 H         1 UNK         0.0600 
    149 H149       -0.5864  -19.9733  -43.0951 H         1 UNK         0.3000 
    150 H150       -3.7327  -19.1566  -44.6510 H         1 UNK         0.0600 
    151 H151       -4.1485  -19.5283  -42.2223 H         1 UNK         0.0600 
    152 H152       -3.8749  -17.8265  -42.5655 H         1 UNK         0.0600 
    153 H153       -2.6005  -18.7931  -41.8271 H         1 UNK         0.0600 
    154 H154       -1.6606  -17.4548  -43.7474 H         1 UNK         0.3000 
    155 H155        0.2685  -17.4140  -46.7860 H         1 UNK         0.0600 
    156 H156       -1.4385  -15.3226  -45.3399 H         1 UNK         0.0600 
    157 H157       -1.5434  -15.7382  -47.0431 H         1 UNK         0.0600 
    158 H158       -0.0851  -14.9864  -46.4178 H         1 UNK         0.0600 
    159 H159        0.7031  -16.1398  -44.2800 H         1 UNK         0.3000 
    160 H160        2.5704  -18.7983  -42.7479 H         1 UNK         0.0600 
    161 H161        4.2045  -16.9489  -42.5295 H         1 UNK         0.0600 
    162 H162        3.3916  -16.0414  -43.8030 H         1 UNK         0.0600 
    163 H163        4.1874  -17.5620  -44.1737 H         1 UNK         0.0600 
    164 H164        1.7539  -16.1563  -41.9249 H         1 UNK         0.3000 
    165 H165       -1.2796  -17.1489  -40.3485 H         1 UNK         0.0600 
    166 H166       -0.1637  -16.1254  -38.3833 H         1 UNK         0.0600 
    167 H167        0.4936  -17.7259  -38.6844 H         1 UNK         0.0600 
    168 H168        1.4151  -16.3011  -39.1503 H         1 UNK         0.0600 
    169 H169        0.1332  -14.6625  -40.4969 H         1 UNK         0.3000 
    170 H170       -1.2031  -13.5320  -43.5929 H         1 UNK         0.0600 
    171 H171       -3.0288  -13.0656  -41.9556 H         1 UNK         0.0600 
    172 H172       -1.8410  -12.6603  -40.7223 H         1 UNK         0.0600 
    173 H173       -1.9941  -11.6627  -42.1691 H         1 UNK         0.0600 
    174 H174        0.4482  -12.3064  -41.5983 H         1 UNK         0.3000 
    175 H175        2.6071  -11.7776  -42.2301 H         1 UNK         0.0600 
    176 H176        3.6095  -14.6333  -41.6436 H         1 UNK         0.0600 
    177 H177        4.2905  -13.1494  -40.9883 H         1 UNK         0.0600 
    178 H178        2.6779  -13.6509  -40.5191 H         1 UNK         0.0600 
    179 H179        3.3887  -13.3926  -44.4490 H         1 UNK         0.3000 
    180 H180        5.5549  -11.1396  -45.5079 H         1 UNK         0.0600 
    181 H181        7.1914  -13.4930  -44.4453 H         1 UNK         0.0600 
    182 H182        7.5776  -11.7868  -44.3250 H         1 UNK         0.0600 
    183 H183        7.5863  -12.5693  -45.8967 H         1 UNK         0.0600 
    184 H184        4.4038  -12.4198  -46.8301 H         1 UNK         0.3000 
    185 H185        4.7573  -15.3275  -48.1717 H         1 UNK         0.0600 
    186 H186        3.6320  -16.8049  -46.5364 H         1 UNK         0.0600 
    187 H187        2.4071  -15.5761  -46.2354 H         1 UNK         0.0600 
    188 H188        2.5016  -16.3708  -47.8067 H         1 UNK         0.0600 
    189 H189        2.3483  -13.6671  -47.7721 H         1 UNK         0.3000 
    190 H190       -1.8454  -20.6721  -47.1021 H         1 UNK         0.3000 
    191 H191       -3.1956  -21.8654  -49.2620 H         1 UNK         0.0600 
    192 H192       -4.3242  -20.6700  -46.6792 H         1 UNK         0.0600 
    193 H193       -5.2635  -21.0222  -48.1257 H         1 UNK         0.0600 
    194 H194       -3.9996  -19.8080  -48.1790 H         1 UNK         0.0600 
    195 H195       -3.0408  -22.8948  -45.8305 H         1 UNK         0.3000 
    196 H196       -4.7869  -25.1180  -46.0388 H         1 UNK         0.0600 
    197 H197       -2.4454  -24.6336  -44.1218 H         1 UNK         0.0600 
    198 H198       -3.7111  -25.8357  -43.9045 H         1 UNK         0.0600 
    199 H199       -4.1135  -24.1253  -43.8734 H         1 UNK         0.0600 
    200 H200       -1.2081  -24.9244  -46.4159 H         1 UNK         0.3000 
    201 H201       -0.7655  -27.6724  -46.9994 H         1 UNK         0.0600 
    202 H202        0.8405  -25.1887  -47.8072 H         1 UNK         0.0600 
    203 H203        1.4265  -26.8468  -47.8729 H         1 UNK         0.0600 
    204 H204        1.0408  -26.1150  -46.3221 H         1 UNK         0.0600 
    205 H205       -1.5950  -24.9203  -49.0827 H         1 UNK         0.3000 
    206 H206       -1.5431  -26.4013  -51.5799 H         1 UNK         0.0600 
    207 H207       -1.0202  -23.9602  -51.4025 H         1 UNK         0.0600 
    208 H208       -2.3692  -24.2543  -52.4781 H         1 UNK         0.0600 
    209 H209       -2.6685  -23.6428  -50.8611 H         1 UNK         0.0600 
    210 H210       -3.6233  -26.7337  -49.0758 H         1 UNK         0.3000 
    211 H211       -5.6371  -27.5205  -48.6851 H         1 UNK         0.0600 
    212 H212       -5.5913  -28.5316  -51.5793 H         1 UNK         0.0600 
    213 H213       -6.5703  -29.1716  -50.2656 H         1 UNK         0.0600 
    214 H214       -4.8244  -29.3406  -50.2130 H         1 UNK         0.0600 
    215 H215       -5.4723  -24.7791  -49.6825 H         1 UNK         0.3000 
    216 H216       -6.5740  -23.0216  -50.3909 H         1 UNK         0.0600 
    217 H217       -8.2235  -23.7215  -48.6419 H         1 UNK         0.0600 
    218 H218       -8.9861  -22.8346  -49.9503 H         1 UNK         0.0600 
    219 H219       -9.1560  -24.5818  -49.8668 H         1 UNK         0.0600 
    220 H220       -6.0863  -25.3855  -52.3718 H         1 UNK         0.3000 
    221 H221       -7.9963  -24.6838  -54.5482 H         1 UNK         0.0600 
    222 H222       -6.0744  -27.0467  -54.1919 H         1 UNK         0.0600 
    223 H223       -7.8141  -27.0756  -53.9212 H         1 UNK         0.0600 
    224 H224       -7.1824  -26.8158  -55.5407 H         1 UNK         0.0600 
    225 H225       -4.4881  -25.1052  -53.8786 H         1 UNK         0.3000 
    226 H226       -3.7778  -23.6629  -56.3907 H         1 UNK         0.0600 
    227 H227       -2.7323  -25.8676  -56.0176 H         1 UNK         0.0600 
    228 H228       -1.5174  -24.6050  -55.9437 H         1 UNK         0.0600 
    229 H229       -2.0998  -25.3505  -54.4605 H         1 UNK         0.0600 
    230 H230       -4.6557  -22.6626  -53.4698 H         1 UNK         0.3000 
    231 H231       -2.4999  -21.1221  -52.4365 H         1 UNK         0.0600 
    232 H232       -5.5268  -20.7513  -52.0741 H         1 UNK         0.0600 
    233 H233       -4.2722  -20.1213  -51.0164 H         1 UNK         0.0600 
    234 H234       -4.5301  -21.8574  -51.1368 H         1 UNK         0.0600 
    235 H235       -1.9386  -18.9648  -52.6763 H         1 UNK         0.3000 
    236 H236       -2.8073  -17.6054  -55.1243 H         1 UNK         0.0600 
    237 H237       -0.6531  -16.8676  -53.0866 H         1 UNK         0.0600 
    238 H238       -0.3824  -17.8536  -54.5228 H         1 UNK         0.0600 
    239 H239       -0.8633  -16.1723  -54.6838 H         1 UNK         0.0600 
    240 H240       -4.1384  -17.6716  -52.0846 H         1 UNK         0.3000 
    241 H241       -5.4663  -15.1651  -52.4711 H         1 UNK         0.0600 
    242 H242       -8.0664  -16.3262  -50.2442 H         1 UNK         0.3800 
    243 H243       -7.2305  -14.8393  -50.5859 H         1 UNK         0.3800 
    244 H244       -3.3401  -14.5618  -51.1117 H         1 UNK         0.0800 
    245 H245       -4.8700  -13.9566  -50.5973 H         1 UNK         0.0800 
    246 H246       -4.0328  -17.7730  -49.7310 H         1 UNK         0.0800 
    247 H247       -3.3282  -17.5913  -48.1529 H         1 UNK         0.0800 
@<TRIPOS>BOND
     1    1    2 1    
     2    1  127 1    
     3    1  128 1    
     4    1  129 1    
     5    2    3 2    
     6    2    4 am   BACKBONE|DICT|INTERRES
     7    4    5 1    
     8    4  130 1    
     9    5    6 1    
    10    5   65 1    
    11    5  131 1    
    12    6    7 1    
    13    6  132 1    
    14    6  133 1    
    15    7    8 1    
    16    8    9 1    
    17    8  134 1    
    18    8  135 1    
    19    9   10 ar   
    20    9   14 ar   
    21   10   11 ar   
    22   10  136 1    
    23   11   12 ar   
    24   11  126 1    
    25   12   13 ar   
    26   12  137 1    
    27   13   14 ar   
    28   13   15 1    
    29   14  138 1    
    30   15   16 1    
    31   15  139 1    
    32   15  140 1    
    33   16   17 1    
    34   17   18 1    
    35   17  141 1    
    36   17  142 1    
    37   18   19 1    
    38   18   67 1    
    39   18  143 1    
    40   19   20 am   BACKBONE|DICT|INTERRES
    41   19  144 1    
    42   20   21 2    
    43   20   22 1    
    44   22   23 1    
    45   22   24 1    
    46   22  145 1    
    47   23  146 1    
    48   23  147 1    
    49   23  148 1    
    50   24   25 am   BACKBONE|DICT|INTERRES
    51   24  149 1    
    52   25   26 2    
    53   25   27 1    
    54   27   28 1    
    55   27   29 1    
    56   27  150 1    
    57   28  151 1    
    58   28  152 1    
    59   28  153 1    
    60   29   30 am   BACKBONE|DICT|INTERRES
    61   29  154 1    
    62   30   31 2    
    63   30   32 1    
    64   32   33 1    
    65   32   34 1    
    66   32  155 1    
    67   33  156 1    
    68   33  157 1    
    69   33  158 1    
    70   34   35 am   BACKBONE|DICT|INTERRES
    71   34  159 1    
    72   35   36 2    
    73   35   37 1    
    74   37   38 1    
    75   37   39 1    
    76   37  160 1    
    77   38  161 1    
    78   38  162 1    
    79   38  163 1    
    80   39   40 am   BACKBONE|DICT|INTERRES
    81   39  164 1    
    82   40   41 2    
    83   40   42 1    
    84   42   43 1    
    85   42   44 1    
    86   42  165 1    
    87   43  166 1    
    88   43  167 1    
    89   43  168 1    
    90   44   45 am   BACKBONE|DICT|INTERRES
    91   44  169 1    
    92   45   46 2    
    93   45   47 1    
    94   47   48 1    
    95   47   49 1    
    96   47  170 1    
    97   48  171 1    
    98   48  172 1    
    99   48  173 1    
   100   49   50 am   BACKBONE|DICT|INTERRES
   101   49  174 1    
   102   50   51 2    
   103   50   52 1    
   104   52   53 1    
   105   52   54 1    
   106   52  175 1    
   107   53  176 1    
   108   53  177 1    
   109   53  178 1    
   110   54   55 am   BACKBONE|DICT|INTERRES
   111   54  179 1    
   112   55   56 2    
   113   55   57 1    
   114   57   58 1    
   115   57   59 1    
   116   57  180 1    
   117   58  181 1    
   118   58  182 1    
   119   58  183 1    
   120   59   60 am   BACKBONE|DICT|INTERRES
   121   59  184 1    
   122   60   61 2    
   123   60   62 1    
   124   62   63 1    
   125   62   64 1    
   126   62  185 1    
   127   63  186 1    
   128   63  187 1    
   129   63  188 1    
   130   64   65 am   BACKBONE|DICT|INTERRES
   131   64  189 1    
   132   65   66 2    
   133   67   68 2    
   134   67   69 am   BACKBONE|DICT|INTERRES
   135   69   70 1    
   136   69  190 1    
   137   70   71 1    
   138   70   72 1    
   139   70  191 1    
   140   71  192 1    
   141   71  193 1    
   142   71  194 1    
   143   72   73 2    
   144   72   74 am   BACKBONE|DICT|INTERRES
   145   74   75 1    
   146   74  195 1    
   147   75   76 1    
   148   75   77 1    
   149   75  196 1    
   150   76  197 1    
   151   76  198 1    
   152   76  199 1    
   153   77   78 2    
   154   77   79 am   BACKBONE|DICT|INTERRES
   155   79   80 1    
   156   79  200 1    
   157   80   81 1    
   158   80   82 1    
   159   80  201 1    
   160   81  202 1    
   161   81  203 1    
   162   81  204 1    
   163   82   83 2    
   164   82   84 am   BACKBONE|DICT|INTERRES
   165   84   85 1    
   166   84  205 1    
   167   85   86 1    
   168   85   87 1    
   169   85  206 1    
   170   86  207 1    
   171   86  208 1    
   172   86  209 1    
   173   87   88 2    
   174   87   89 am   BACKBONE|DICT|INTERRES
   175   89   90 1    
   176   89  210 1    
   177   90   91 1    
   178   90   92 1    
   179   90  211 1    
   180   91  212 1    
   181   91  213 1    
   182   91  214 1    
   183   92   93 2    
   184   92   94 am   BACKBONE|DICT|INTERRES
   185   94   95 1    
   186   94  215 1    
   187   95   96 1    
   188   95   97 1    
   189   95  216 1    
   190   96  217 1    
   191   96  218 1    
   192   96  219 1    
   193   97   98 2    
   194   97   99 am   BACKBONE|DICT|INTERRES
   195   99  100 1    
   196   99  220 1    
   197  100  101 1    
   198  100  102 1    
   199  100  221 1    
   200  101  222 1    
   201  101  223 1    
   202  101  224 1    
   203  102  103 2    
   204  102  104 am   BACKBONE|DICT|INTERRES
   205  104  105 1    
   206  104  225 1    
   207  105  106 1    
   208  105  107 1    
   209  105  226 1    
   210  106  227 1    
   211  106  228 1    
   212  106  229 1    
   213  107  108 2    
   214  107  109 am   BACKBONE|DICT|INTERRES
   215  109  110 1    
   216  109  230 1    
   217  110  111 1    
   218  110  112 1    
   219  110  231 1    
   220  111  232 1    
   221  111  233 1    
   222  111  234 1    
   223  112  113 2    
   224  112  114 am   BACKBONE|DICT|INTERRES
   225  114  115 1    
   226  114  235 1    
   227  115  116 1    
   228  115  117 1    
   229  115  236 1    
   230  116  237 1    
   231  116  238 1    
   232  116  239 1    
   233  117  118 2    
   234  117  119 am   BACKBONE|DICT|INTERRES
   235  119  120 1    
   236  119  240 1    
   237  120  121 1    
   238  120  124 1    
   239  120  241 1    
   240  121  122 am   BACKBONE|DICT|INTERRES
   241  121  123 2    
   242  122  242 1    
   243  122  243 1    
   244  124  125 1    
   245  124  244 1    
   246  124  245 1    
   247  125  126 1    
   248  126  246 1    
   249  126  247 1    
@<TRIPOS>SUBSTRUCTURE
     1 UNK         1 GROUP             0       ****    0 ROOT    
