@<TRIPOS>MOLECULE
3R540
247   249    1
SMALL
USER_CHARGES


@<TRIPOS>ATOM
      1 CA         -5.5013  -16.2337  -52.0817 C.3       0 UNK        -0.1800 
      2 C          -4.2176  -15.9279  -51.3240 C.2       0 UNK         0.5000 
      3 O          -3.1764  -15.7035  -51.9393 O.2       0 UNK        -0.5000 
      4 N          -4.2911  -15.9117  -49.9916 N.am      1 UNK        -0.5000 
      5 CA         -3.1927  -15.5997  -49.0832 C.3       1 UNK         0.1400 
      6 C6         -2.2409  -16.8109  -48.9023 C.3       23 UNK        -0.0398 
      7 S7         -0.6581  -16.3685  -48.1164 S.3       23 UNK        -0.2404 
      8 C8          0.4534  -16.1898  -49.5517 C.3       23 UNK        -0.0205 
      9 C9          1.1864  -17.4541  -50.0086 C.ar      23 UNK        -0.0193 
     10 C10         2.2270  -17.3010  -50.9294 C.ar      23 UNK        -0.1150 
     11 C11         2.9306  -18.4070  -51.4175 C.ar      23 UNK        -0.0193 
     12 C12         2.6008  -19.6790  -50.9469 C.ar      23 UNK        -0.1150 
     13 C13         1.5765  -19.8610  -50.0149 C.ar      23 UNK        -0.0193 
     14 C14         0.8662  -18.7431  -49.5579 C.ar      23 UNK        -0.1150 
     15 C15         1.2430  -21.2819  -49.5649 C.3       23 UNK        -0.0205 
     16 S16         0.7723  -21.4380  -47.8120 S.3       23 UNK        -0.2404 
     17 C17         0.7092  -23.2588  -47.6743 C.3       23 UNK        -0.0398 
     18 CA          0.3945  -23.7943  -46.2532 C.3       11 UNK         0.1400 
     19 N           1.3675  -23.3289  -45.2672 N.am      11 UNK        -0.5000 
     20 C           2.4378  -24.0159  -44.8564 C.2       10 UNK         0.5000 
     21 O           2.7175  -25.1486  -45.2554 O.2       10 UNK        -0.5000 
     22 CA          3.3460  -23.3019  -43.8361 C.3       10 UNK         0.1400 
     23 CB          4.5749  -24.1342  -43.4145 C.3       10 UNK        -0.1800 
     24 N           3.7480  -21.9715  -44.2951 N.am      10 UNK        -0.5000 
     25 C           4.4720  -21.6448  -45.3755 C.2       9 UNK         0.5000 
     26 O           4.9638  -22.4652  -46.1514 O.2       9 UNK        -0.5000 
     27 CA          4.6993  -20.1392  -45.6325 C.3       9 UNK         0.1400 
     28 CB          3.8534  -19.6551  -46.8204 C.3       9 UNK        -0.1800 
     29 N           4.4046  -19.2966  -44.4703 N.am      9 UNK        -0.5000 
     30 C           5.1629  -19.2070  -43.3694 C.2       8 UNK         0.5000 
     31 O           6.2462  -19.7776  -43.2370 O.2       8 UNK        -0.5000 
     32 CA          4.5987  -18.3665  -42.2073 C.3       8 UNK         0.1400 
     33 CB          4.8911  -16.8732  -42.4176 C.3       8 UNK        -0.1800 
     34 N           3.1603  -18.5640  -42.0075 N.am      8 UNK        -0.5000 
     35 C           2.6019  -19.7099  -41.5897 C.2       7 UNK         0.5000 
     36 O           3.2469  -20.7158  -41.2943 O.2       7 UNK        -0.5000 
     37 CA          1.0638  -19.7594  -41.5269 C.3       7 UNK         0.1400 
     38 CB          0.5470  -19.1046  -40.2374 C.3       7 UNK        -0.1800 
     39 N           0.4322  -19.1375  -42.6910 N.am      7 UNK        -0.5000 
     40 C           0.5424  -19.6010  -43.9452 C.2       6 UNK         0.5000 
     41 O           1.1344  -20.6394  -44.2337 O.2       6 UNK        -0.5000 
     42 CA         -0.0516  -18.7329  -45.0683 C.3       6 UNK         0.1400 
     43 CB         -1.5538  -19.0001  -45.2428 C.3       6 UNK        -0.1800 
     44 N           0.1695  -17.3064  -44.8393 N.am      6 UNK        -0.5000 
     45 C           1.3709  -16.7143  -44.8161 C.2       5 UNK         0.5000 
     46 O           2.4303  -17.3079  -45.0087 O.2       5 UNK        -0.5000 
     47 CA          1.4019  -15.2211  -44.4508 C.3       5 UNK         0.1400 
     48 CB          1.0517  -14.3359  -45.6552 C.3       5 UNK        -0.1800 
     49 N           0.5074  -14.9134  -43.3365 N.am      5 UNK        -0.5000 
     50 C           0.7190  -15.2998  -42.0713 C.2       4 UNK         0.5000 
     51 O           1.7060  -15.9392  -41.7072 O.2       4 UNK        -0.5000 
     52 CA         -0.3714  -14.9330  -41.0484 C.3       4 UNK         0.1400 
     53 CB         -0.1661  -13.5028  -40.5273 C.3       4 UNK        -0.1800 
     54 N          -1.7236  -15.0610  -41.5951 N.am      4 UNK        -0.5000 
     55 C          -2.2951  -16.2295  -41.9166 C.2       3 UNK         0.5000 
     56 O          -1.7458  -17.3217  -41.7766 O.2       3 UNK        -0.5000 
     57 CA         -3.6988  -16.1615  -42.5460 C.3       3 UNK         0.1400 
     58 CB         -4.7759  -15.9982  -41.4636 C.3       3 UNK        -0.1800 
     59 N          -3.8517  -15.1049  -43.5534 N.am      3 UNK        -0.5000 
     60 C          -3.1096  -15.0066  -44.6638 C.2       2 UNK         0.5000 
     61 O          -2.1559  -15.7454  -44.9093 O.2       2 UNK        -0.5000 
     62 CA         -3.4620  -13.8816  -45.6509 C.3       2 UNK         0.1400 
     63 CB         -2.7031  -12.5956  -45.2890 C.3       2 UNK        -0.1800 
     64 N          -3.1060  -14.2782  -47.0140 N.am      2 UNK        -0.5000 
     65 C          -3.8228  -15.1283  -47.7585 C.2       1 UNK         0.5000 
     66 O          -4.9426  -15.5373  -47.4388 O.2       1 UNK        -0.5000 
     67 C          -1.0379  -23.4614  -45.7934 C.2       11 UNK         0.5000 
     68 O          -1.2356  -22.6319  -44.9039 O.2       11 UNK        -0.5000 
     69 N          -2.0212  -24.1146  -46.4253 N.am      12 UNK        -0.5000 
     70 CA         -3.4544  -23.9389  -46.1685 C.3       12 UNK         0.1400 
     71 CB         -4.1471  -25.3061  -46.3033 C.3       12 UNK        -0.1800 
     72 C          -4.1024  -22.8951  -47.1022 C.2       12 UNK         0.5000 
     73 O          -5.3287  -22.8458  -47.1913 O.2       12 UNK        -0.5000 
     74 N          -3.2841  -22.0866  -47.7904 N.am      13 UNK        -0.5000 
     75 CA         -3.6674  -21.1210  -48.8261 C.3       13 UNK         0.1400 
     76 CB         -2.4109  -20.3566  -49.2553 C.3       13 UNK        -0.1800 
     77 C          -4.7779  -20.1307  -48.4296 C.2       13 UNK         0.5000 
     78 O          -5.6296  -19.8060  -49.2575 O.2       13 UNK        -0.5000 
     79 N          -4.7681  -19.6949  -47.1637 N.am      14 UNK        -0.5000 
     80 CA         -5.7697  -18.7905  -46.5989 C.3       14 UNK         0.1400 
     81 CB         -5.2297  -18.2072  -45.2864 C.3       14 UNK        -0.1800 
     82 C          -7.1413  -19.4566  -46.3768 C.2       14 UNK         0.5000 
     83 O          -8.1613  -18.7711  -46.4491 O.2       14 UNK        -0.5000 
     84 N          -7.1481  -20.7720  -46.1213 N.am      15 UNK        -0.5000 
     85 CA         -8.3604  -21.5773  -45.9695 C.3       15 UNK         0.1400 
     86 CB         -8.0718  -22.7673  -45.0405 C.3       15 UNK        -0.1800 
     87 C          -8.8776  -22.0617  -47.3342 C.2       15 UNK         0.5000 
     88 O         -10.0880  -22.0691  -47.5605 O.2       15 UNK        -0.5000 
     89 N          -7.9479  -22.4389  -48.2229 N.am      16 UNK        -0.5000 
     90 CA         -8.2163  -22.8684  -49.5957 C.3       16 UNK         0.1400 
     91 CB         -6.9409  -23.5018  -50.1732 C.3       16 UNK        -0.1800 
     92 C          -8.7008  -21.7255  -50.5083 C.2       16 UNK         0.5000 
     93 O          -9.4072  -21.9930  -51.4808 O.2       16 UNK        -0.5000 
     94 N          -8.3013  -20.4871  -50.1805 N.am      17 UNK        -0.5000 
     95 CA         -8.5306  -19.2456  -50.9240 C.3       17 UNK         0.1400 
     96 CB        -10.0314  -18.8911  -50.9719 C.3       17 UNK        -0.1800 
     97 C          -7.8577  -19.2751  -52.3116 C.2       17 UNK         0.5000 
     98 O          -8.4560  -18.8627  -53.3071 O.2       17 UNK        -0.5000 
     99 N          -6.6171  -19.7728  -52.3447 N.am      18 UNK        -0.5000 
    100 CA        -5.7828  -19.8954  -53.5333 C.3       18 UNK         0.1400 
    101 CB        -6.0207  -21.2621  -54.1964 C.3       18 UNK        -0.1800 
    102 C         -4.3215  -19.7371  -53.1035 C.2       18 UNK         0.5000 
    103 O         -3.9527  -20.2259  -52.0370 O.2       18 UNK        -0.5000 
    104 N         -3.5172  -19.0675  -53.9368 N.am      19 UNK        -0.5000 
    105 CA        -2.1240  -18.7110  -53.6447 C.3       19 UNK         0.1400 
    106 CB        -1.7085  -17.5737  -54.5899 C.3       19 UNK        -0.1800 
    107 C         -1.1277  -19.8868  -53.7306 C.2       19 UNK         0.5000 
    108 O          0.0289  -19.7192  -53.3425 O.2       19 UNK        -0.5000 
    109 N         -1.5782  -21.0426  -54.2440 N.am      20 UNK        -0.5000 
    110 CA        -0.8348  -22.2979  -54.3890 C.3       20 UNK         0.1400 
    111 CB        -0.5947  -22.9356  -53.0024 C.3       20 UNK        -0.1800 
    112 C          0.4479  -22.1017  -55.2238 C.2       20 UNK         0.5000 
    113 O          0.3452  -21.7986  -56.4138 O.2       20 UNK        -0.5000 
    114 N          1.6230  -22.2303  -54.5917 N.am      21 UNK        -0.5000 
    115 CA         2.9430  -22.0196  -55.1936 C.3       21 UNK         0.1400 
    116 CB         4.0229  -22.3922  -54.1662 C.3       21 UNK        -0.1800 
    117 C          3.1743  -20.5893  -55.7249 C.2       21 UNK         0.5000 
    118 O          3.9691  -20.4136  -56.6492 O.2       21 UNK        -0.5000 
    119 N          2.4671  -19.6068  -55.1536 N.am      22 UNK        -0.5000 
    120 CA         2.4239  -18.2159  -55.6273 C.3       22 UNK         0.1400 
    121 C          1.3319  -17.9655  -56.7123 C.2       22 UNK         0.5000 
    122 N          0.5567  -18.9548  -57.1433 N.am      22 UNK        -0.7600 
    123 O          1.1962  -16.8455  -57.1968 O.2       22 UNK        -0.5000 
    124 C124        2.2994  -17.2296  -54.4354 C.3       23 UNK        -0.0398 
    125 S125        3.8994  -16.8934  -53.6219 S.3       23 UNK        -0.2404 
    126 C126        4.0665  -18.2677  -52.4296 C.3       23 UNK        -0.0205 
    127 H127       -5.2945  -16.8751  -52.9371 H         1 UNK         0.0600 
    128 H128       -5.9468  -15.3104  -52.4511 H         1 UNK         0.0600 
    129 H129       -6.2299  -16.7376  -51.4467 H         1 UNK         0.0600 
    130 H130       -5.1725  -16.0631  -49.5157 H         1 UNK         0.3000 
    131 H131       -2.6338  -14.7614  -49.5053 H         1 UNK         0.0600 
    132 H132       -2.7225  -17.5870  -48.3066 H         1 UNK         0.0800 
    133 H133       -2.0198  -17.2660  -49.8683 H         1 UNK         0.0800 
    134 H134        1.1997  -15.4402  -49.2849 H         1 UNK         0.0800 
    135 H135       -0.1052  -15.7770  -50.3931 H         1 UNK         0.0800 
    136 H136        2.4830  -16.3093  -51.2737 H         1 UNK         0.1150 
    137 H137        3.1446  -20.5376  -51.3135 H         1 UNK         0.1150 
    138 H138        0.0680  -18.8844  -48.8478 H         1 UNK         0.1150 
    139 H139        0.4361  -21.6649  -50.1866 H         1 UNK         0.0800 
    140 H140        2.1019  -21.9315  -49.7400 H         1 UNK         0.0800 
    141 H141        1.6775  -23.6508  -47.9885 H         1 UNK         0.0800 
    142 H142       -0.0103  -23.6405  -48.4002 H         1 UNK         0.0800 
    143 H143        0.4369  -24.8848  -46.2963 H         1 UNK         0.0600 
    144 H144        1.1899  -22.3982  -44.8904 H         1 UNK         0.3000 
    145 H145        2.7378  -23.1426  -42.9445 H         1 UNK         0.0600 
    146 H146        5.1726  -23.6030  -42.6736 H         1 UNK         0.0600 
    147 H147        4.2685  -25.0802  -42.9669 H         1 UNK         0.0600 
    148 H148        5.2204  -24.3680  -44.2614 H         1 UNK         0.0600 
    149 H149        3.3453  -21.2046  -43.7729 H         1 UNK         0.3000 
    150 H150        5.7520  -20.0111  -45.8921 H         1 UNK         0.0600 
    151 H151        4.0134  -20.2743  -47.7040 H         1 UNK         0.0600 
    152 H152        4.1026  -18.6293  -47.0918 H         1 UNK         0.0600 
    153 H153        2.7894  -19.6849  -46.5866 H         1 UNK         0.0600 
    154 H154        3.5619  -18.7290  -44.5297 H         1 UNK         0.3000 
    155 H155        5.1079  -18.6826  -41.2944 H         1 UNK         0.0600 
    156 H156        5.9604  -16.6985  -42.5426 H         1 UNK         0.0600 
    157 H157        4.5629  -16.2834  -41.5615 H         1 UNK         0.0600 
    158 H158        4.3890  -16.4837  -43.3032 H         1 UNK         0.0600 
    159 H159        2.5626  -17.7648  -42.1896 H         1 UNK         0.3000 
    160 H160        0.7678  -20.8105  -41.5117 H         1 UNK         0.0600 
    161 H161        0.7691  -18.0379  -40.2084 H         1 UNK         0.0600 
    162 H162        1.0036  -19.5598  -39.3577 H         1 UNK         0.0600 
    163 H163       -0.5322  -19.2242  -40.1411 H         1 UNK         0.0600 
    164 H164       -0.1215  -18.3046  -42.5208 H         1 UNK         0.3000 
    165 H165        0.4504  -18.9991  -46.0004 H         1 UNK         0.0600 
    166 H166       -2.1142  -18.7457  -44.3426 H         1 UNK         0.0600 
    167 H167       -1.9614  -18.4162  -46.0673 H         1 UNK         0.0600 
    168 H168       -1.7391  -20.0509  -45.4651 H         1 UNK         0.0600 
    169 H169       -0.6632  -16.7300  -44.7298 H         1 UNK         0.3000 
    170 H170        2.4221  -14.9789  -44.1453 H         1 UNK         0.0600 
    171 H171        1.6838  -14.5734  -46.5119 H         1 UNK         0.0600 
    172 H172        0.0161  -14.4699  -45.9648 H         1 UNK         0.0600 
    173 H173        1.1974  -13.2808  -45.4241 H         1 UNK         0.0600 
    174 H174       -0.3598  -14.4512  -43.5632 H         1 UNK         0.3000 
    175 H175       -0.2786  -15.6193  -40.2039 H         1 UNK         0.0600 
    176 H176        0.8298  -13.3837  -40.0984 H         1 UNK         0.0600 
    177 H177       -0.2718  -12.7636  -41.3223 H         1 UNK         0.0600 
    178 H178       -0.8863  -13.2610  -39.7455 H         1 UNK         0.0600 
    179 H179       -2.2417  -14.2087  -41.7498 H         1 UNK         0.3000 
    180 H180       -3.8679  -17.1172  -43.0442 H         1 UNK         0.0600 
    181 H181       -4.6914  -16.7798  -40.7073 H         1 UNK         0.0600 
    182 H182       -4.6941  -15.0374  -40.9539 H         1 UNK         0.0600 
    183 H183       -5.7767  -16.0687  -41.8902 H         1 UNK         0.0600 
    184 H184       -4.6077  -14.4515  -43.4083 H         1 UNK         0.3000 
    185 H185       -4.5351  -13.6849  -45.6006 H         1 UNK         0.0600 
    186 H186       -2.9625  -12.2568  -44.2852 H         1 UNK         0.0600 
    187 H187       -1.6226  -12.7395  -45.3172 H         1 UNK         0.0600 
    188 H188       -2.9503  -11.7869  -45.9769 H         1 UNK         0.0600 
    189 H189       -2.1732  -14.0389  -47.3166 H         1 UNK         0.3000 
    190 H190       -1.7854  -24.7817  -47.1465 H         1 UNK         0.3000 
    191 H191       -3.6062  -23.5878  -45.1459 H         1 UNK         0.0600 
    192 H192       -4.0799  -25.6930  -47.3209 H         1 UNK         0.0600 
    193 H193       -5.2053  -25.2399  -46.0467 H         1 UNK         0.0600 
    194 H194       -3.7009  -26.0417  -45.6338 H         1 UNK         0.0600 
    195 H195       -2.2934  -22.1921  -47.6335 H         1 UNK         0.3000 
    196 H196       -4.0326  -21.6875  -49.6840 H         1 UNK         0.0600 
    197 H197       -2.6486  -19.5476  -49.9448 H         1 UNK         0.0600 
    198 H198       -1.7154  -21.0161  -49.7704 H         1 UNK         0.0600 
    199 H199       -1.9005  -19.9197  -48.3972 H         1 UNK         0.0600 
    200 H200       -4.0442  -20.0255  -46.5438 H         1 UNK         0.3000 
    201 H201       -5.9202  -17.9693  -47.3019 H         1 UNK         0.0600 
    202 H202       -5.9376  -17.5009  -44.8508 H         1 UNK         0.0600 
    203 H203       -5.0371  -18.9842  -44.5457 H         1 UNK         0.0600 
    204 H204       -4.3002  -17.6656  -45.4583 H         1 UNK         0.0600 
    205 H205       -6.2741  -21.2814  -46.1551 H         1 UNK         0.3000 
    206 H206       -9.1430  -20.9727  -45.5061 H         1 UNK         0.0600 
    207 H207       -7.7356  -22.4284  -44.0605 H         1 UNK         0.0600 
    208 H208       -8.9700  -23.3666  -44.8867 H         1 UNK         0.0600 
    209 H209       -7.3049  -23.4266  -45.4479 H         1 UNK         0.0600 
    210 H210       -6.9767  -22.4656  -47.9212 H         1 UNK         0.3000 
    211 H211       -8.9987  -23.6295  -49.5683 H         1 UNK         0.0600 
    212 H212       -7.1142  -23.8811  -51.1811 H         1 UNK         0.0600 
    213 H213       -6.6034  -24.3395  -49.5624 H         1 UNK         0.0600 
    214 H214       -6.1262  -22.7795  -50.2306 H         1 UNK         0.0600 
    215 H215       -7.6510  -20.4018  -49.4085 H         1 UNK         0.3000 
    216 H216       -8.0274  -18.4592  -50.3597 H         1 UNK         0.0600 
    217 H217      -10.1835  -17.9012  -51.4034 H         1 UNK         0.0600 
    218 H218      -10.4643  -18.8790  -49.9715 H         1 UNK         0.0600 
    219 H219      -10.5995  -19.5998  -51.5749 H         1 UNK         0.0600 
    220 H220       -6.1607  -20.0316  -51.4753 H         1 UNK         0.3000 
    221 H221       -6.0290  -19.1000  -54.2401 H         1 UNK         0.0600 
    222 H222       -5.7859  -22.0831  -53.5174 H         1 UNK         0.0600 
    223 H223       -7.0598  -21.3737  -54.5069 H         1 UNK         0.0600 
    224 H224       -5.4005  -21.3800  -55.0856 H         1 UNK         0.0600 
    225 H225       -3.8910  -18.7182  -54.8076 H         1 UNK         0.3000 
    226 H226       -2.0767  -18.3318  -52.6213 H         1 UNK         0.0600 
    227 H227       -0.7009  -17.2253  -54.3657 H         1 UNK         0.0600 
    228 H228       -1.7250  -17.8904  -55.6331 H         1 UNK         0.0600 
    229 H229       -2.3718  -16.7146  -54.4883 H         1 UNK         0.0600 
    230 H230       -2.5333  -21.0601  -54.5686 H         1 UNK         0.3000 
    231 H231       -1.4718  -22.9753  -54.9593 H         1 UNK         0.0600 
    232 H232       -1.5387  -23.1007  -52.4826 H         1 UNK         0.0600 
    233 H233        0.0231  -22.3056  -52.3637 H         1 UNK         0.0600 
    234 H234       -0.1039  -23.9055  -53.0932 H         1 UNK         0.0600 
    235 H235        1.6090  -22.4472  -53.6062 H         1 UNK         0.3000 
    236 H236        3.0298  -22.6993  -56.0437 H         1 UNK         0.0600 
    237 H237        3.9277  -23.4317  -53.8520 H         1 UNK         0.0600 
    238 H238        5.0218  -22.2720  -54.5878 H         1 UNK         0.0600 
    239 H239        3.9652  -21.7650  -53.2765 H         1 UNK         0.0600 
    240 H240        1.8039  -19.8385  -54.4208 H         1 UNK         0.3000 
    241 H241        3.3630  -17.9931  -56.1371 H         1 UNK         0.0600 
    242 H242        0.6526  -19.9025  -56.7943 H         1 UNK         0.3800 
    243 H243       -0.1248  -18.7616  -57.8593 H         1 UNK         0.3800 
    244 H244        1.9281  -16.2579  -54.7648 H         1 UNK         0.0800 
    245 H245        1.5724  -17.5853  -53.7058 H         1 UNK         0.0800 
    246 H246        4.9969  -18.1302  -51.8779 H         1 UNK         0.0800 
    247 H247        4.1831  -19.1935  -52.9935 H         1 UNK         0.0800 
@<TRIPOS>BOND
     1    1    2 1    
     2    1  127 1    
     3    1  128 1    
     4    1  129 1    
     5    2    3 2    
     6    2    4 am   BACKBONE|DICT|INTERRES
     7    4    5 1    
     8    4  130 1    
     9    5    6 1    
    10    5   65 1    
    11    5  131 1    
    12    6    7 1    
    13    6  132 1    
    14    6  133 1    
    15    7    8 1    
    16    8    9 1    
    17    8  134 1    
    18    8  135 1    
    19    9   10 ar   
    20    9   14 ar   
    21   10   11 ar   
    22   10  136 1    
    23   11   12 ar   
    24   11  126 1    
    25   12   13 ar   
    26   12  137 1    
    27   13   14 ar   
    28   13   15 1    
    29   14  138 1    
    30   15   16 1    
    31   15  139 1    
    32   15  140 1    
    33   16   17 1    
    34   17   18 1    
    35   17  141 1    
    36   17  142 1    
    37   18   19 1    
    38   18   67 1    
    39   18  143 1    
    40   19   20 am   BACKBONE|DICT|INTERRES
    41   19  144 1    
    42   20   21 2    
    43   20   22 1    
    44   22   23 1    
    45   22   24 1    
    46   22  145 1    
    47   23  146 1    
    48   23  147 1    
    49   23  148 1    
    50   24   25 am   BACKBONE|DICT|INTERRES
    51   24  149 1    
    52   25   26 2    
    53   25   27 1    
    54   27   28 1    
    55   27   29 1    
    56   27  150 1    
    57   28  151 1    
    58   28  152 1    
    59   28  153 1    
    60   29   30 am   BACKBONE|DICT|INTERRES
    61   29  154 1    
    62   30   31 2    
    63   30   32 1    
    64   32   33 1    
    65   32   34 1    
    66   32  155 1    
    67   33  156 1    
    68   33  157 1    
    69   33  158 1    
    70   34   35 am   BACKBONE|DICT|INTERRES
    71   34  159 1    
    72   35   36 2    
    73   35   37 1    
    74   37   38 1    
    75   37   39 1    
    76   37  160 1    
    77   38  161 1    
    78   38  162 1    
    79   38  163 1    
    80   39   40 am   BACKBONE|DICT|INTERRES
    81   39  164 1    
    82   40   41 2    
    83   40   42 1    
    84   42   43 1    
    85   42   44 1    
    86   42  165 1    
    87   43  166 1    
    88   43  167 1    
    89   43  168 1    
    90   44   45 am   BACKBONE|DICT|INTERRES
    91   44  169 1    
    92   45   46 2    
    93   45   47 1    
    94   47   48 1    
    95   47   49 1    
    96   47  170 1    
    97   48  171 1    
    98   48  172 1    
    99   48  173 1    
   100   49   50 am   BACKBONE|DICT|INTERRES
   101   49  174 1    
   102   50   51 2    
   103   50   52 1    
   104   52   53 1    
   105   52   54 1    
   106   52  175 1    
   107   53  176 1    
   108   53  177 1    
   109   53  178 1    
   110   54   55 am   BACKBONE|DICT|INTERRES
   111   54  179 1    
   112   55   56 2    
   113   55   57 1    
   114   57   58 1    
   115   57   59 1    
   116   57  180 1    
   117   58  181 1    
   118   58  182 1    
   119   58  183 1    
   120   59   60 am   BACKBONE|DICT|INTERRES
   121   59  184 1    
   122   60   61 2    
   123   60   62 1    
   124   62   63 1    
   125   62   64 1    
   126   62  185 1    
   127   63  186 1    
   128   63  187 1    
   129   63  188 1    
   130   64   65 am   BACKBONE|DICT|INTERRES
   131   64  189 1    
   132   65   66 2    
   133   67   68 2    
   134   67   69 am   BACKBONE|DICT|INTERRES
   135   69   70 1    
   136   69  190 1    
   137   70   71 1    
   138   70   72 1    
   139   70  191 1    
   140   71  192 1    
   141   71  193 1    
   142   71  194 1    
   143   72   73 2    
   144   72   74 am   BACKBONE|DICT|INTERRES
   145   74   75 1    
   146   74  195 1    
   147   75   76 1    
   148   75   77 1    
   149   75  196 1    
   150   76  197 1    
   151   76  198 1    
   152   76  199 1    
   153   77   78 2    
   154   77   79 am   BACKBONE|DICT|INTERRES
   155   79   80 1    
   156   79  200 1    
   157   80   81 1    
   158   80   82 1    
   159   80  201 1    
   160   81  202 1    
   161   81  203 1    
   162   81  204 1    
   163   82   83 2    
   164   82   84 am   BACKBONE|DICT|INTERRES
   165   84   85 1    
   166   84  205 1    
   167   85   86 1    
   168   85   87 1    
   169   85  206 1    
   170   86  207 1    
   171   86  208 1    
   172   86  209 1    
   173   87   88 2    
   174   87   89 am   BACKBONE|DICT|INTERRES
   175   89   90 1    
   176   89  210 1    
   177   90   91 1    
   178   90   92 1    
   179   90  211 1    
   180   91  212 1    
   181   91  213 1    
   182   91  214 1    
   183   92   93 2    
   184   92   94 am   BACKBONE|DICT|INTERRES
   185   94   95 1    
   186   94  215 1    
   187   95   96 1    
   188   95   97 1    
   189   95  216 1    
   190   96  217 1    
   191   96  218 1    
   192   96  219 1    
   193   97   98 2    
   194   97   99 am   BACKBONE|DICT|INTERRES
   195   99  100 1    
   196   99  220 1    
   197  100  101 1    
   198  100  102 1    
   199  100  221 1    
   200  101  222 1    
   201  101  223 1    
   202  101  224 1    
   203  102  103 2    
   204  102  104 am   BACKBONE|DICT|INTERRES
   205  104  105 1    
   206  104  225 1    
   207  105  106 1    
   208  105  107 1    
   209  105  226 1    
   210  106  227 1    
   211  106  228 1    
   212  106  229 1    
   213  107  108 2    
   214  107  109 am   BACKBONE|DICT|INTERRES
   215  109  110 1    
   216  109  230 1    
   217  110  111 1    
   218  110  112 1    
   219  110  231 1    
   220  111  232 1    
   221  111  233 1    
   222  111  234 1    
   223  112  113 2    
   224  112  114 am   BACKBONE|DICT|INTERRES
   225  114  115 1    
   226  114  235 1    
   227  115  116 1    
   228  115  117 1    
   229  115  236 1    
   230  116  237 1    
   231  116  238 1    
   232  116  239 1    
   233  117  118 2    
   234  117  119 am   BACKBONE|DICT|INTERRES
   235  119  120 1    
   236  119  240 1    
   237  120  121 1    
   238  120  124 1    
   239  120  241 1    
   240  121  122 am   BACKBONE|DICT|INTERRES
   241  121  123 2    
   242  122  242 1    
   243  122  243 1    
   244  124  125 1    
   245  124  244 1    
   246  124  245 1    
   247  125  126 1    
   248  126  246 1    
   249  126  247 1    
@<TRIPOS>SUBSTRUCTURE
     1 UNK         1 GROUP             0       ****    0 ROOT    
