@<TRIPOS>MOLECULE
3R540
247   249    1
SMALL
USER_CHARGES


@<TRIPOS>ATOM
      1 CA          5.6828  -14.6157  -46.3254 C.3       0 UNK        -0.1800 
      2 C           4.6571  -13.6393  -45.7707 C.2       0 UNK         0.5000 
      3 O           4.7579  -13.2364  -44.6121 O.2       0 UNK        -0.5000 
      4 N           3.6794  -13.2412  -46.5960 N.am      1 UNK        -0.5000 
      5 CA          2.5507  -12.3752  -46.2201 C.3       1 UNK         0.1400 
      6 C6          1.4758  -12.2952  -47.3271 C.3       23 UNK        -0.0398 
      7 S7          0.7208  -13.9232  -47.6488 S.3       23 UNK        -0.2404 
      8 C8          1.2669  -14.2405  -49.3531 C.3       23 UNK        -0.0205 
      9 C9          0.7132  -15.5586  -49.8689 C.ar      23 UNK        -0.0193 
     10 C10        -0.6151  -15.6371  -50.2951 C.ar      23 UNK        -0.1150 
     11 C11        -1.1416  -16.8429  -50.7654 C.ar      23 UNK        -0.0193 
     12 C12        -0.3192  -17.9721  -50.8294 C.ar      23 UNK        -0.1150 
     13 C13         1.0169  -17.9034  -50.4193 C.ar      23 UNK        -0.0193 
     14 C14         1.5239  -16.6956  -49.9299 C.ar      23 UNK        -0.1150 
     15 C15         1.9227  -19.1225  -50.5282 C.3       23 UNK        -0.0205 
     16 S16         1.9216  -20.1237  -49.0079 S.3       23 UNK        -0.2404 
     17 C17         0.2487  -20.8369  -49.0826 C.3       23 UNK        -0.0398 
     18 CA          0.0633  -22.0551  -48.1494 C.3       11 UNK         0.1400 
     19 N           0.0418  -21.6866  -46.7296 N.am      11 UNK        -0.5000 
     20 C          -0.0419  -22.5548  -45.7099 C.2       10 UNK         0.5000 
     21 O          -0.0348  -23.7782  -45.8491 O.2       10 UNK        -0.5000 
     22 CA         -0.2301  -21.9610  -44.3012 C.3       10 UNK         0.1400 
     23 CB          1.1003  -21.4514  -43.7277 C.3       10 UNK        -0.1800 
     24 N          -1.2279  -20.8904  -44.2769 N.am      10 UNK        -0.5000 
     25 C          -2.5267  -21.0595  -44.5652 C.2       9 UNK         0.5000 
     26 O          -3.0336  -22.1512  -44.8189 O.2       9 UNK        -0.5000 
     27 CA         -3.3981  -19.7934  -44.6305 C.3       9 UNK         0.1400 
     28 CB         -3.8980  -19.3892  -43.2354 C.3       9 UNK        -0.1800 
     29 N          -2.6936  -18.6727  -45.2512 N.am      9 UNK        -0.5000 
     30 C          -2.3442  -18.6263  -46.5449 C.2       8 UNK         0.5000 
     31 O          -2.6158  -19.5085  -47.3581 O.2       8 UNK        -0.5000 
     32 CA         -1.5115  -17.4103  -46.9865 C.3       8 UNK         0.1400 
     33 CB         -2.4283  -16.2081  -47.2575 C.3       8 UNK        -0.1800 
     34 N          -0.4898  -17.0488  -46.0007 N.am      8 UNK        -0.5000 
     35 C           0.5498  -17.8371  -45.6835 C.2       7 UNK         0.5000 
     36 O           0.7478  -18.9353  -46.1977 O.2       7 UNK        -0.5000 
     37 CA          1.4887  -17.3667  -44.5552 C.3       7 UNK         0.1400 
     38 CB          2.5856  -16.4527  -45.1156 C.3       7 UNK        -0.1800 
     39 N           0.7902  -16.6782  -43.4705 N.am      7 UNK        -0.5000 
     40 C          -0.2179  -17.2006  -42.7546 C.2       6 UNK         0.5000 
     41 O          -0.5816  -18.3723  -42.8568 O.2       6 UNK        -0.5000 
     42 CA         -0.9880  -16.2582  -41.8051 C.3       6 UNK         0.1400 
     43 CB         -0.5758  -16.5144  -40.3480 C.3       6 UNK        -0.1800 
     44 N          -0.8143  -14.8340  -42.1012 N.am      6 UNK        -0.5000 
     45 C          -1.1044  -14.2224  -43.2594 C.2       5 UNK         0.5000 
     46 O          -1.6592  -14.7828  -44.2050 O.2       5 UNK        -0.5000 
     47 CA         -0.6386  -12.7591  -43.4102 C.3       5 UNK         0.1400 
     48 CB         -1.8275  -11.7986  -43.2621 C.3       5 UNK        -0.1800 
     49 N           0.4222  -12.3547  -42.4762 N.am      5 UNK        -0.5000 
     50 C           1.6439  -12.9009  -42.4001 C.2       4 UNK         0.5000 
     51 O           2.0052  -13.8656  -43.0756 O.2       4 UNK        -0.5000 
     52 CA          2.6005  -12.3106  -41.3603 C.3       4 UNK         0.1400 
     53 CB          2.8288  -13.3040  -40.2057 C.3       4 UNK        -0.1800 
     54 N           3.8650  -11.9781  -42.0084 N.am      4 UNK        -0.5000 
     55 C           4.7581  -11.1034  -41.5272 C.2       3 UNK         0.5000 
     56 O           4.6227  -10.5044  -40.4592 O.2       3 UNK        -0.5000 
     57 CA          5.9956  -10.8236  -42.3940 C.3       3 UNK         0.1400 
     58 CB          6.9904  -11.9945  -42.3382 C.3       3 UNK        -0.1800 
     59 N           5.6070  -10.5649  -43.7790 N.am      3 UNK        -0.5000 
     60 C           5.2843   -9.3553  -44.2605 C.2       2 UNK         0.5000 
     61 O           5.3552   -8.3175  -43.6008 O.2       2 UNK        -0.5000 
     62 CA          4.7992   -9.2797  -45.7232 C.3       2 UNK         0.1400 
     63 CB          5.9692   -8.9435  -46.6605 C.3       2 UNK        -0.1800 
     64 N           4.1635  -10.5145  -46.1820 N.am      2 UNK        -0.5000 
     65 C           2.9735  -10.9637  -45.7589 C.2       1 UNK         0.5000 
     66 O           2.2326  -10.3272  -45.0092 O.2       1 UNK        -0.5000 
     67 C          -1.2018  -22.8363  -48.5523 C.2       11 UNK         0.5000 
     68 O          -1.0814  -23.9048  -49.1516 O.2       11 UNK        -0.5000 
     69 N          -2.3811  -22.3147  -48.1851 N.am      12 UNK        -0.5000 
     70 CA         -3.6768  -22.9367  -48.4520 C.3       12 UNK         0.1400 
     71 CB         -4.8043  -21.9980  -48.0030 C.3       12 UNK        -0.1800 
     72 C          -3.8254  -24.3164  -47.7892 C.2       12 UNK         0.5000 
     73 O          -4.3153  -25.2419  -48.4345 O.2       12 UNK        -0.5000 
     74 N          -3.3748  -24.4440  -46.5343 N.am      13 UNK        -0.5000 
     75 CA         -3.3616  -25.6999  -45.7853 C.3       13 UNK         0.1400 
     76 CB         -2.9882  -25.4239  -44.3211 C.3       13 UNK        -0.1800 
     77 C          -2.4203  -26.7512  -46.4008 C.2       13 UNK         0.5000 
     78 O          -2.8024  -27.9173  -46.5022 O.2       13 UNK        -0.5000 
     79 N          -1.2209  -26.3203  -46.8155 N.am      14 UNK        -0.5000 
     80 CA         -0.2090  -27.1694  -47.4447 C.3       14 UNK         0.1400 
     81 CB          1.1282  -26.4147  -47.5004 C.3       14 UNK        -0.1800 
     82 C          -0.6180  -27.6536  -48.8477 C.2       14 UNK         0.5000 
     83 O          -0.4285  -28.8286  -49.1649 O.2       14 UNK        -0.5000 
     84 N          -1.1686  -26.7431  -49.6601 N.am      15 UNK        -0.5000 
     85 CA         -1.5771  -27.0057  -51.0411 C.3       15 UNK         0.1400 
     86 CB         -1.6269  -25.6708  -51.7932 C.3       15 UNK        -0.1800 
     87 C          -2.9370  -27.7161  -51.1664 C.2       15 UNK         0.5000 
     88 O          -3.2308  -28.2453  -52.2389 O.2       15 UNK        -0.5000 
     89 N          -3.7429  -27.6867  -50.0944 N.am      16 UNK        -0.5000 
     90 CA         -5.1547  -28.0785  -50.0361 C.3       16 UNK         0.1400 
     91 CB         -5.3467  -29.5808  -50.3337 C.3       16 UNK        -0.1800 
     92 C          -6.0110  -27.1518  -50.9238 C.2       16 UNK         0.5000 
     93 O          -6.6830  -27.6087  -51.8504 O.2       16 UNK        -0.5000 
     94 N          -5.9333  -25.8507  -50.6124 N.am      17 UNK        -0.5000 
     95 CA         -6.5340  -24.7138  -51.3087 C.3       17 UNK         0.1400 
     96 CB         -8.0780  -24.7823  -51.2615 C.3       17 UNK        -0.1800 
     97 C          -5.9336  -24.5421  -52.7182 C.2       17 UNK         0.5000 
     98 O          -4.7414  -24.2474  -52.8233 O.2       17 UNK        -0.5000 
     99 N          -6.7600  -24.7019  -53.7621 N.am      18 UNK        -0.5000 
    100 CA        -6.4352  -24.5135  -55.1796 C.3       18 UNK         0.1400 
    101 CB        -5.4341  -25.5913  -55.6560 C.3       18 UNK        -0.1800 
    102 C         -5.9931  -23.0625  -55.4726 C.2       18 UNK         0.5000 
    103 O         -6.5862  -22.1290  -54.9295 O.2       18 UNK        -0.5000 
    104 N         -4.9627  -22.8808  -56.3085 N.am      19 UNK        -0.5000 
    105 CA        -4.4017  -21.5742  -56.6683 C.3       19 UNK         0.1400 
    106 CB        -3.4239  -21.7605  -57.8387 C.3       19 UNK        -0.1800 
    107 C         -3.7074  -20.8482  -55.4966 C.2       19 UNK         0.5000 
    108 O         -3.5542  -19.6288  -55.5502 O.2       19 UNK        -0.5000 
    109 N         -3.3096  -21.6040  -54.4651 N.am      20 UNK        -0.5000 
    110 CA        -2.6380  -21.1162  -53.2607 C.3       20 UNK         0.1400 
    111 CB        -1.6078  -22.1699  -52.8331 C.3       20 UNK        -0.1800 
    112 C         -3.6167  -20.7954  -52.1118 C.2       20 UNK         0.5000 
    113 O         -3.1608  -20.4957  -51.0092 O.2       20 UNK        -0.5000 
    114 N         -4.9301  -20.8661  -52.3777 N.am      21 UNK        -0.5000 
    115 CA        -6.0126  -20.5295  -51.4531 C.3       21 UNK         0.1400 
    116 CB        -7.3726  -20.7822  -52.1192 C.3       21 UNK        -0.1800 
    117 C         -5.9551  -19.1229  -50.8065 C.2       21 UNK         0.5000 
    118 O         -6.1828  -19.0404  -49.6016 O.2       21 UNK        -0.5000 
    119 N         -5.6618  -18.0141  -51.5048 N.am      22 UNK        -0.5000 
    120 CA        -5.5688  -17.7866  -52.9598 C.3       22 UNK         0.1400 
    121 C         -6.9370  -17.4275  -53.6138 C.2       22 UNK         0.5000 
    122 N         -8.0222  -17.2815  -52.8624 N.am      22 UNK        -0.7600 
    123 O         -7.0217  -17.2953  -54.8311 O.2       22 UNK        -0.5000 
    124 C124       -4.5092  -16.6962  -53.2749 C.3       23 UNK        -0.0398 
    125 S125       -2.7881  -17.2227  -52.9634 S.3       23 UNK        -0.2404 
    126 C126       -2.6034  -16.9270  -51.1769 C.3       23 UNK        -0.0205 
    127 H127        6.6780  -14.1726  -46.2927 H         1 UNK         0.0600 
    128 H128        5.4640  -14.8913  -47.3573 H         1 UNK         0.0600 
    129 H129        5.6931  -15.5255  -45.7253 H         1 UNK         0.0600 
    130 H130        3.6520  -13.6063  -47.5363 H         1 UNK         0.3000 
    131 H131        2.0795  -12.8408  -45.3568 H         1 UNK         0.0600 
    132 H132        0.6684  -11.6226  -47.0309 H         1 UNK         0.0800 
    133 H133        1.8952  -11.8811  -48.2456 H         1 UNK         0.0800 
    134 H134        0.9321  -13.4282  -50.0001 H         1 UNK         0.0800 
    135 H135        2.3569  -14.2424  -49.3940 H         1 UNK         0.0800 
    136 H136       -1.2428  -14.7587  -50.2413 H         1 UNK         0.1150 
    137 H137       -0.7246  -18.9032  -51.2004 H         1 UNK         0.1150 
    138 H138        2.5531  -16.6405  -49.6039 H         1 UNK         0.1150 
    139 H139        1.6280  -19.7397  -51.3784 H         1 UNK         0.0800 
    140 H140        2.9452  -18.8014  -50.7319 H         1 UNK         0.0800 
    141 H141        0.0689  -21.1228  -50.1189 H         1 UNK         0.0800 
    142 H142       -0.4782  -20.0583  -48.8492 H         1 UNK         0.0800 
    143 H143        0.9105  -22.7286  -48.2951 H         1 UNK         0.0600 
    144 H144        0.0978  -20.6918  -46.5244 H         1 UNK         0.3000 
    145 H145       -0.5911  -22.7602  -43.6506 H         1 UNK         0.0600 
    146 H146        0.9689  -21.0470  -42.7239 H         1 UNK         0.0600 
    147 H147        1.8285  -22.2605  -43.6616 H         1 UNK         0.0600 
    148 H148        1.5374  -20.6704  -44.3486 H         1 UNK         0.0600 
    149 H149       -0.9026  -19.9615  -44.0290 H         1 UNK         0.3000 
    150 H150       -4.2706  -20.0224  -45.2460 H         1 UNK         0.0600 
    151 H151       -4.4739  -20.1970  -42.7823 H         1 UNK         0.0600 
    152 H152       -4.5487  -18.5161  -43.2869 H         1 UNK         0.0600 
    153 H153       -3.0765  -19.1563  -42.5583 H         1 UNK         0.0600 
    154 H154       -2.3865  -17.9297  -44.6408 H         1 UNK         0.3000 
    155 H155       -1.0020  -17.6710  -47.9160 H         1 UNK         0.0600 
    156 H156       -3.1678  -16.4494  -48.0221 H         1 UNK         0.0600 
    157 H157       -1.8625  -15.3495  -47.6153 H         1 UNK         0.0600 
    158 H158       -2.9691  -15.9013  -46.3618 H         1 UNK         0.0600 
    159 H159       -0.6233  -16.1760  -45.5036 H         1 UNK         0.3000 
    160 H160        1.9662  -18.2510  -44.1296 H         1 UNK         0.0600 
    161 H161        2.1668  -15.5255  -45.5067 H         1 UNK         0.0600 
    162 H162        3.1275  -16.9386  -45.9280 H         1 UNK         0.0600 
    163 H163        3.3125  -16.1908  -44.3465 H         1 UNK         0.0600 
    164 H164        1.0533  -15.7112  -43.3123 H         1 UNK         0.3000 
    165 H165       -2.0494  -16.4908  -41.9106 H         1 UNK         0.0600 
    166 H166       -1.1746  -15.9206  -39.6572 H         1 UNK         0.0600 
    167 H167        0.4741  -16.2711  -40.1792 H         1 UNK         0.0600 
    168 H168       -0.7174  -17.5624  -40.0798 H         1 UNK         0.0600 
    169 H169       -0.3544  -14.2854  -41.3905 H         1 UNK         0.3000 
    170 H170       -0.2422  -12.6552  -44.4222 H         1 UNK         0.0600 
    171 H171       -2.6244  -12.0513  -43.9631 H         1 UNK         0.0600 
    172 H172       -2.2503  -11.8340  -42.2573 H         1 UNK         0.0600 
    173 H173       -1.5315  -10.7697  -43.4679 H         1 UNK         0.0600 
    174 H174        0.2027  -11.5747  -41.8732 H         1 UNK         0.3000 
    175 H175        2.1581  -11.3962  -40.9588 H         1 UNK         0.0600 
    176 H176        3.3091  -14.2192  -40.5547 H         1 UNK         0.0600 
    177 H177        3.4579  -12.8730  -39.4270 H         1 UNK         0.0600 
    178 H178        1.8842  -13.5856  -39.7388 H         1 UNK         0.0600 
    179 H179        4.0416  -12.4471  -42.8939 H         1 UNK         0.3000 
    180 H180        6.5014   -9.9451  -41.9872 H         1 UNK         0.0600 
    181 H181        6.5523  -12.9239  -42.7021 H         1 UNK         0.0600 
    182 H182        7.3234  -12.1708  -41.3147 H         1 UNK         0.0600 
    183 H183        7.8769  -11.7859  -42.9372 H         1 UNK         0.0600 
    184 H184        5.4559  -11.3843  -44.3570 H         1 UNK         0.3000 
    185 H185        4.0666   -8.4724  -45.7877 H         1 UNK         0.0600 
    186 H186        6.4515   -8.0111  -46.3638 H         1 UNK         0.0600 
    187 H187        6.7306   -9.7245  -46.6504 H         1 UNK         0.0600 
    188 H188        5.6283   -8.8186  -47.6884 H         1 UNK         0.0600 
    189 H189        4.7057  -11.1046  -46.7961 H         1 UNK         0.3000 
    190 H190       -2.4016  -21.4017  -47.7386 H         1 UNK         0.3000 
    191 H191       -3.7570  -23.0729  -49.5328 H         1 UNK         0.0600 
    192 H192       -4.7962  -21.8432  -46.9241 H         1 UNK         0.0600 
    193 H193       -5.7811  -22.4018  -48.2714 H         1 UNK         0.0600 
    194 H194       -4.7101  -21.0217  -48.4774 H         1 UNK         0.0600 
    195 H195       -3.0352  -23.6187  -46.0470 H         1 UNK         0.3000 
    196 H196       -4.3736  -26.1097  -45.8045 H         1 UNK         0.0600 
    197 H197       -2.9791  -26.3459  -43.7386 H         1 UNK         0.0600 
    198 H198       -3.7058  -24.7502  -43.8527 H         1 UNK         0.0600 
    199 H199       -2.0003  -24.9702  -44.2358 H         1 UNK         0.0600 
    200 H200       -0.9674  -25.3485  -46.6622 H         1 UNK         0.3000 
    201 H201       -0.0717  -28.0517  -46.8162 H         1 UNK         0.0600 
    202 H202        1.4720  -26.1499  -46.5004 H         1 UNK         0.0600 
    203 H203        1.0473  -25.4938  -48.0793 H         1 UNK         0.0600 
    204 H204        1.9051  -27.0267  -47.9604 H         1 UNK         0.0600 
    205 H205       -1.2477  -25.7797  -49.3408 H         1 UNK         0.3000 
    206 H206       -0.8256  -27.6386  -51.5177 H         1 UNK         0.0600 
    207 H207       -0.6654  -25.1582  -51.7601 H         1 UNK         0.0600 
    208 H208       -1.8862  -25.8152  -52.8429 H         1 UNK         0.0600 
    209 H209       -2.3781  -25.0102  -51.3580 H         1 UNK         0.0600 
    210 H210       -3.4062  -27.1845  -49.2828 H         1 UNK         0.3000 
    211 H211       -5.4756  -27.9087  -49.0071 H         1 UNK         0.0600 
    212 H212       -5.1077  -29.8323  -51.3671 H         1 UNK         0.0600 
    213 H213       -6.3815  -29.8779  -50.1608 H         1 UNK         0.0600 
    214 H214       -4.7197  -30.1931  -49.6856 H         1 UNK         0.0600 
    215 H215       -5.3185  -25.6035  -49.8374 H         1 UNK         0.3000 
    216 H216       -6.2337  -23.8270  -50.7487 H         1 UNK         0.0600 
    217 H217       -8.5280  -23.8970  -51.7113 H         1 UNK         0.0600 
    218 H218       -8.4303  -24.8281  -50.2310 H         1 UNK         0.0600 
    219 H219       -8.4744  -25.6546  -51.7813 H         1 UNK         0.0600 
    220 H220       -7.7246  -24.9264  -53.5652 H         1 UNK         0.3000 
    221 H221       -7.3661  -24.6615  -55.7284 H         1 UNK         0.0600 
    222 H222       -4.4474  -25.4636  -55.2091 H         1 UNK         0.0600 
    223 H223       -5.7849  -26.5894  -55.3928 H         1 UNK         0.0600 
    224 H224       -5.3162  -25.5732  -56.7399 H         1 UNK         0.0600 
    225 H225       -4.5190  -23.6917  -56.7151 H         1 UNK         0.3000 
    226 H226       -5.2210  -20.9359  -57.0058 H         1 UNK         0.0600 
    227 H227       -3.9217  -22.1994  -58.7036 H         1 UNK         0.0600 
    228 H228       -3.0077  -20.8036  -58.1567 H         1 UNK         0.0600 
    229 H229       -2.5888  -22.4070  -57.5661 H         1 UNK         0.0600 
    230 H230       -3.5159  -22.5935  -54.4858 H         1 UNK         0.3000 
    231 H231       -2.0991  -20.1945  -53.4882 H         1 UNK         0.0600 
    232 H232       -1.0528  -21.8520  -51.9523 H         1 UNK         0.0600 
    233 H233       -0.8821  -22.3606  -53.6236 H         1 UNK         0.0600 
    234 H234       -2.0984  -23.1100  -52.5917 H         1 UNK         0.0600 
    235 H235       -5.2110  -21.1545  -53.3056 H         1 UNK         0.3000 
    236 H236       -5.9294  -21.2428  -50.6319 H         1 UNK         0.0600 
    237 H237       -7.4839  -20.2192  -53.0450 H         1 UNK         0.0600 
    238 H238       -7.4995  -21.8360  -52.3614 H         1 UNK         0.0600 
    239 H239       -8.1951  -20.5015  -51.4601 H         1 UNK         0.0600 
    240 H240       -5.6193  -17.1609  -50.9699 H         1 UNK         0.3000 
    241 H241       -5.2512  -18.6885  -53.4732 H         1 UNK         0.0600 
    242 H242       -8.9004  -17.0543  -53.3025 H         1 UNK         0.3800 
    243 H243       -7.9773  -17.3803  -51.8608 H         1 UNK         0.3800 
    244 H244       -4.5479  -16.4236  -54.3312 H         1 UNK         0.0800 
    245 H245       -4.7183  -15.7770  -52.7255 H         1 UNK         0.0800 
    246 H246       -3.0761  -17.7384  -50.6223 H         1 UNK         0.0800 
    247 H247       -3.1290  -16.0121  -50.9004 H         1 UNK         0.0800 
@<TRIPOS>BOND
     1    1    2 1    
     2    1  127 1    
     3    1  128 1    
     4    1  129 1    
     5    2    3 2    
     6    2    4 am   BACKBONE|DICT|INTERRES
     7    4    5 1    
     8    4  130 1    
     9    5    6 1    
    10    5   65 1    
    11    5  131 1    
    12    6    7 1    
    13    6  132 1    
    14    6  133 1    
    15    7    8 1    
    16    8    9 1    
    17    8  134 1    
    18    8  135 1    
    19    9   10 ar   
    20    9   14 ar   
    21   10   11 ar   
    22   10  136 1    
    23   11   12 ar   
    24   11  126 1    
    25   12   13 ar   
    26   12  137 1    
    27   13   14 ar   
    28   13   15 1    
    29   14  138 1    
    30   15   16 1    
    31   15  139 1    
    32   15  140 1    
    33   16   17 1    
    34   17   18 1    
    35   17  141 1    
    36   17  142 1    
    37   18   19 1    
    38   18   67 1    
    39   18  143 1    
    40   19   20 am   BACKBONE|DICT|INTERRES
    41   19  144 1    
    42   20   21 2    
    43   20   22 1    
    44   22   23 1    
    45   22   24 1    
    46   22  145 1    
    47   23  146 1    
    48   23  147 1    
    49   23  148 1    
    50   24   25 am   BACKBONE|DICT|INTERRES
    51   24  149 1    
    52   25   26 2    
    53   25   27 1    
    54   27   28 1    
    55   27   29 1    
    56   27  150 1    
    57   28  151 1    
    58   28  152 1    
    59   28  153 1    
    60   29   30 am   BACKBONE|DICT|INTERRES
    61   29  154 1    
    62   30   31 2    
    63   30   32 1    
    64   32   33 1    
    65   32   34 1    
    66   32  155 1    
    67   33  156 1    
    68   33  157 1    
    69   33  158 1    
    70   34   35 am   BACKBONE|DICT|INTERRES
    71   34  159 1    
    72   35   36 2    
    73   35   37 1    
    74   37   38 1    
    75   37   39 1    
    76   37  160 1    
    77   38  161 1    
    78   38  162 1    
    79   38  163 1    
    80   39   40 am   BACKBONE|DICT|INTERRES
    81   39  164 1    
    82   40   41 2    
    83   40   42 1    
    84   42   43 1    
    85   42   44 1    
    86   42  165 1    
    87   43  166 1    
    88   43  167 1    
    89   43  168 1    
    90   44   45 am   BACKBONE|DICT|INTERRES
    91   44  169 1    
    92   45   46 2    
    93   45   47 1    
    94   47   48 1    
    95   47   49 1    
    96   47  170 1    
    97   48  171 1    
    98   48  172 1    
    99   48  173 1    
   100   49   50 am   BACKBONE|DICT|INTERRES
   101   49  174 1    
   102   50   51 2    
   103   50   52 1    
   104   52   53 1    
   105   52   54 1    
   106   52  175 1    
   107   53  176 1    
   108   53  177 1    
   109   53  178 1    
   110   54   55 am   BACKBONE|DICT|INTERRES
   111   54  179 1    
   112   55   56 2    
   113   55   57 1    
   114   57   58 1    
   115   57   59 1    
   116   57  180 1    
   117   58  181 1    
   118   58  182 1    
   119   58  183 1    
   120   59   60 am   BACKBONE|DICT|INTERRES
   121   59  184 1    
   122   60   61 2    
   123   60   62 1    
   124   62   63 1    
   125   62   64 1    
   126   62  185 1    
   127   63  186 1    
   128   63  187 1    
   129   63  188 1    
   130   64   65 am   BACKBONE|DICT|INTERRES
   131   64  189 1    
   132   65   66 2    
   133   67   68 2    
   134   67   69 am   BACKBONE|DICT|INTERRES
   135   69   70 1    
   136   69  190 1    
   137   70   71 1    
   138   70   72 1    
   139   70  191 1    
   140   71  192 1    
   141   71  193 1    
   142   71  194 1    
   143   72   73 2    
   144   72   74 am   BACKBONE|DICT|INTERRES
   145   74   75 1    
   146   74  195 1    
   147   75   76 1    
   148   75   77 1    
   149   75  196 1    
   150   76  197 1    
   151   76  198 1    
   152   76  199 1    
   153   77   78 2    
   154   77   79 am   BACKBONE|DICT|INTERRES
   155   79   80 1    
   156   79  200 1    
   157   80   81 1    
   158   80   82 1    
   159   80  201 1    
   160   81  202 1    
   161   81  203 1    
   162   81  204 1    
   163   82   83 2    
   164   82   84 am   BACKBONE|DICT|INTERRES
   165   84   85 1    
   166   84  205 1    
   167   85   86 1    
   168   85   87 1    
   169   85  206 1    
   170   86  207 1    
   171   86  208 1    
   172   86  209 1    
   173   87   88 2    
   174   87   89 am   BACKBONE|DICT|INTERRES
   175   89   90 1    
   176   89  210 1    
   177   90   91 1    
   178   90   92 1    
   179   90  211 1    
   180   91  212 1    
   181   91  213 1    
   182   91  214 1    
   183   92   93 2    
   184   92   94 am   BACKBONE|DICT|INTERRES
   185   94   95 1    
   186   94  215 1    
   187   95   96 1    
   188   95   97 1    
   189   95  216 1    
   190   96  217 1    
   191   96  218 1    
   192   96  219 1    
   193   97   98 2    
   194   97   99 am   BACKBONE|DICT|INTERRES
   195   99  100 1    
   196   99  220 1    
   197  100  101 1    
   198  100  102 1    
   199  100  221 1    
   200  101  222 1    
   201  101  223 1    
   202  101  224 1    
   203  102  103 2    
   204  102  104 am   BACKBONE|DICT|INTERRES
   205  104  105 1    
   206  104  225 1    
   207  105  106 1    
   208  105  107 1    
   209  105  226 1    
   210  106  227 1    
   211  106  228 1    
   212  106  229 1    
   213  107  108 2    
   214  107  109 am   BACKBONE|DICT|INTERRES
   215  109  110 1    
   216  109  230 1    
   217  110  111 1    
   218  110  112 1    
   219  110  231 1    
   220  111  232 1    
   221  111  233 1    
   222  111  234 1    
   223  112  113 2    
   224  112  114 am   BACKBONE|DICT|INTERRES
   225  114  115 1    
   226  114  235 1    
   227  115  116 1    
   228  115  117 1    
   229  115  236 1    
   230  116  237 1    
   231  116  238 1    
   232  116  239 1    
   233  117  118 2    
   234  117  119 am   BACKBONE|DICT|INTERRES
   235  119  120 1    
   236  119  240 1    
   237  120  121 1    
   238  120  124 1    
   239  120  241 1    
   240  121  122 am   BACKBONE|DICT|INTERRES
   241  121  123 2    
   242  122  242 1    
   243  122  243 1    
   244  124  125 1    
   245  124  244 1    
   246  124  245 1    
   247  125  126 1    
   248  126  246 1    
   249  126  247 1    
@<TRIPOS>SUBSTRUCTURE
     1 UNK         1 GROUP             0       ****    0 ROOT    
