@<TRIPOS>MOLECULE
3R540
247   249    1
SMALL
USER_CHARGES


@<TRIPOS>ATOM
      1 CA          6.3320  -14.1489  -45.6555 C.3       0 UNK        -0.1800 
      2 C           5.3751  -13.1347  -46.2652 C.2       0 UNK         0.5000 
      3 O           5.7832  -12.3404  -47.1118 O.2       0 UNK        -0.5000 
      4 N           4.1104  -13.1649  -45.8287 N.am      1 UNK        -0.5000 
      5 CA          3.0231  -12.2515  -46.2044 C.3       1 UNK         0.1400 
      6 C6          2.6646  -12.2500  -47.7136 C.3       23 UNK        -0.0398 
      7 S7          1.9556  -13.8499  -48.2209 S.3       23 UNK        -0.2404 
      8 C8          3.2745  -14.5318  -49.2678 C.3       23 UNK        -0.0205 
      9 C9          2.8353  -15.8375  -49.9132 C.ar      23 UNK        -0.0193 
     10 C10         2.0124  -15.8157  -51.0406 C.ar      23 UNK        -0.1150 
     11 C11         1.6116  -17.0059  -51.6519 C.ar      23 UNK        -0.0193 
     12 C12         2.0463  -18.2279  -51.1270 C.ar      23 UNK        -0.1150 
     13 C13         2.8414  -18.2717  -49.9725 C.ar      23 UNK        -0.0193 
     14 C14         3.2442  -17.0661  -49.3884 C.ar      23 UNK        -0.1150 
     15 C15         3.2982  -19.5762  -49.3088 C.3       23 UNK        -0.0205 
     16 S16         2.5770  -21.1313  -49.9457 S.3       23 UNK        -0.2404 
     17 C17         0.8007  -20.9579  -49.5658 C.3       23 UNK        -0.0398 
     18 CA          0.2896  -21.9967  -48.5305 C.3       11 UNK         0.1400 
     19 N           0.1933  -21.4392  -47.1777 N.am      11 UNK        -0.5000 
     20 C          -0.1517  -22.1295  -46.0801 C.2       10 UNK         0.5000 
     21 O          -0.3267  -23.3479  -46.0604 O.2       10 UNK        -0.5000 
     22 CA         -0.4162  -21.3081  -44.8059 C.3       10 UNK         0.1400 
     23 CB          0.8928  -20.9621  -44.0798 C.3       10 UNK        -0.1800 
     24 N          -1.1701  -20.0865  -45.0965 N.am      10 UNK        -0.5000 
     25 C          -2.4548  -20.0701  -45.4812 C.2       9 UNK         0.5000 
     26 O          -3.1498  -21.0801  -45.5729 O.2       9 UNK        -0.5000 
     27 CA         -3.0572  -18.7079  -45.8658 C.3       9 UNK         0.1400 
     28 CB         -3.6218  -17.9946  -44.6287 C.3       9 UNK        -0.1800 
     29 N          -2.0876  -17.8435  -46.5360 N.am      9 UNK        -0.5000 
     30 C          -1.6315  -18.0467  -47.7818 C.2       8 UNK         0.5000 
     31 O          -2.0044  -18.9704  -48.5048 O.2       8 UNK        -0.5000 
     32 CA         -0.5318  -17.0916  -48.2831 C.3       8 UNK         0.1400 
     33 CB         -1.1610  -15.8361  -48.9037 C.3       8 UNK        -0.1800 
     34 N           0.4106  -16.7015  -47.2315 N.am      8 UNK        -0.5000 
     35 C           1.1433  -17.5561  -46.5051 C.2       7 UNK         0.5000 
     36 O           1.1547  -18.7704  -46.7015 O.2       7 UNK        -0.5000 
     37 CA          1.9504  -16.9862  -45.3228 C.3       7 UNK         0.1400 
     38 CB          3.4241  -16.7943  -45.7062 C.3       7 UNK        -0.1800 
     39 N           1.4432  -15.7332  -44.7578 N.am      7 UNK        -0.5000 
     40 C           0.2175  -15.5034  -44.2727 C.2       6 UNK         0.5000 
     41 O          -0.7016  -16.3220  -44.3291 O.2       6 UNK        -0.5000 
     42 CA          0.0094  -14.1308  -43.5953 C.3       6 UNK         0.1400 
     43 CB         -1.4668  -13.8614  -43.2548 C.3       6 UNK        -0.1800 
     44 N           0.8067  -13.9898  -42.3735 N.am      6 UNK        -0.5000 
     45 C           2.1344  -13.8268  -42.3119 C.2       5 UNK         0.5000 
     46 O           2.8620  -13.7446  -43.3056 O.2       5 UNK        -0.5000 
     47 CA          2.7322  -13.7057  -40.9048 C.3       5 UNK         0.1400 
     48 CB          4.2719  -13.7891  -40.9004 C.3       5 UNK        -0.1800 
     49 N           2.2939  -12.4499  -40.2973 N.am      5 UNK        -0.5000 
     50 C           2.1661  -12.2517  -38.9772 C.2       4 UNK         0.5000 
     51 O           2.3430  -13.1448  -38.1469 O.2       4 UNK        -0.5000 
     52 CA          1.8064  -10.8359  -38.4772 C.3       4 UNK         0.1400 
     53 CB          2.8413  -10.3419  -37.4511 C.3       4 UNK        -0.1800 
     54 N           1.7352   -9.8527  -39.5585 N.am      4 UNK        -0.5000 
     55 C           0.6095   -9.3416  -40.0730 C.2       3 UNK         0.5000 
     56 O          -0.5201   -9.6282  -39.6749 O.2       3 UNK        -0.5000 
     57 CA          0.7722   -8.3503  -41.2468 C.3       3 UNK         0.1400 
     58 CB          0.7249   -6.9025  -40.7349 C.3       3 UNK        -0.1800 
     59 N           1.9985   -8.5387  -42.0344 N.am      3 UNK        -0.5000 
     60 C           2.3046   -9.6578  -42.7019 C.2       2 UNK         0.5000 
     61 O           1.5918  -10.6645  -42.6888 O.2       2 UNK        -0.5000 
     62 CA          3.6502   -9.6779  -43.4499 C.3       2 UNK         0.1400 
     63 CB          4.8174   -9.7841  -42.4552 C.3       2 UNK        -0.1800 
     64 N           3.6899  -10.8350  -44.3394 N.am      2 UNK        -0.5000 
     65 C           3.2286  -10.8491  -45.5957 C.2       1 UNK         0.5000 
     66 O           2.9406   -9.8338  -46.2324 O.2       1 UNK        -0.5000 
     67 C          -1.0561  -22.6101  -48.9749 C.2       11 UNK         0.5000 
     68 O          -1.0810  -23.7682  -49.3901 O.2       11 UNK        -0.5000 
     69 N          -2.1508  -21.8480  -48.8300 N.am      12 UNK        -0.5000 
     70 CA         -3.5087  -22.2832  -49.1581 C.3       12 UNK         0.1400 
     71 CB         -4.4818  -21.1080  -48.9926 C.3       12 UNK        -0.1800 
     72 C          -3.9713  -23.5008  -48.3365 C.2       12 UNK         0.5000 
     73 O          -4.5491  -24.4264  -48.9039 O.2       12 UNK        -0.5000 
     74 N          -3.6741  -23.5053  -47.0294 N.am      13 UNK        -0.5000 
     75 CA         -3.9519  -24.6186  -46.1204 C.3       13 UNK         0.1400 
     76 CB         -3.6477  -24.1979  -44.6749 C.3       13 UNK        -0.1800 
     77 C          -3.1832  -25.9011  -46.4880 C.2       13 UNK         0.5000 
     78 O          -3.7599  -26.9870  -46.4238 O.2       13 UNK        -0.5000 
     79 N          -1.9143  -25.7538  -46.8952 N.am      14 UNK        -0.5000 
     80 CA         -1.0741  -26.8460  -47.3889 C.3       14 UNK         0.1400 
     81 CB          0.3881  -26.3799  -47.4605 C.3       14 UNK        -0.1800 
     82 C          -1.5481  -27.3893  -48.7508 C.2       14 UNK         0.5000 
     83 O          -1.5126  -28.6018  -48.9642 O.2       14 UNK        -0.5000 
     84 N          -2.0008  -26.4904  -49.6365 N.am      15 UNK        -0.5000 
     85 CA         -2.5739  -26.8169  -50.9443 C.3       15 UNK         0.1400 
     86 CB         -2.6303  -25.5456  -51.7999 C.3       15 UNK        -0.1800 
     87 C          -3.9602  -27.4892  -50.8536 C.2       15 UNK         0.5000 
     88 O          -4.3239  -28.2371  -51.7626 O.2       15 UNK        -0.5000 
     89 N          -4.6845  -27.2363  -49.7533 N.am      16 UNK        -0.5000 
     90 CA         -5.9225  -27.8768  -49.3027 C.3       16 UNK         0.1400 
     91 CB         -5.6439  -29.3324  -48.8716 C.3       16 UNK        -0.1800 
     92 C          -7.0733  -27.7552  -50.3190 C.2       16 UNK         0.5000 
     93 O          -7.8111  -26.7713  -50.2856 O.2       16 UNK        -0.5000 
     94 N          -7.2095  -28.7459  -51.2100 N.am      17 UNK        -0.5000 
     95 CA         -8.1813  -28.7543  -52.3053 C.3       17 UNK         0.1400 
     96 CB         -8.2186  -30.1580  -52.9282 C.3       17 UNK        -0.1800 
     97 C          -7.8839  -27.6926  -53.3835 C.2       17 UNK         0.5000 
     98 O          -8.8081  -27.2451  -54.0628 O.2       17 UNK        -0.5000 
     99 N          -6.6104  -27.2977  -53.5066 N.am      18 UNK        -0.5000 
    100 CA        -6.1172  -26.2885  -54.4413 C.3       18 UNK         0.1400 
    101 CB        -4.9151  -26.8772  -55.2024 C.3       18 UNK        -0.1800 
    102 C         -5.7679  -24.9781  -53.7073 C.2       18 UNK         0.5000 
    103 O         -4.7746  -24.3377  -54.0469 O.2       18 UNK        -0.5000 
    104 N         -6.5734  -24.6069  -52.7008 N.am      19 UNK        -0.5000 
    105 CA        -6.3816  -23.4258  -51.8502 C.3       19 UNK         0.1400 
    106 CB        -7.3397  -23.5130  -50.6518 C.3       19 UNK        -0.1800 
    107 C         -6.5565  -22.0689  -52.5618 C.2       19 UNK         0.5000 
    108 O         -6.0562  -21.0604  -52.0609 O.2       19 UNK        -0.5000 
    109 N         -7.2735  -22.0504  -53.6941 N.am      20 UNK        -0.5000 
    110 CA        -7.4981  -20.8610  -54.5175 C.3       20 UNK         0.1400 
    111 CB        -8.5045  -21.2000  -55.6275 C.3       20 UNK        -0.1800 
    112 C         -6.1822  -20.3325  -55.1185 C.2       20 UNK         0.5000 
    113 O         -5.3964  -21.1268  -55.6388 O.2       20 UNK        -0.5000 
    114 N         -5.9623  -19.0125  -55.0231 N.am      21 UNK        -0.5000 
    115 CA        -4.7658  -18.2878  -55.4797 C.3       21 UNK         0.1400 
    116 CB        -4.7261  -18.2342  -57.0216 C.3       21 UNK        -0.1800 
    117 C         -3.4601  -18.8371  -54.8591 C.2       21 UNK         0.5000 
    118 O         -2.4767  -19.0548  -55.5688 O.2       21 UNK        -0.5000 
    119 N         -3.5090  -19.0853  -53.5431 N.am      22 UNK        -0.5000 
    120 CA        -2.4819  -19.7590  -52.7245 C.3       22 UNK         0.1400 
    121 C         -2.4088  -21.3038  -52.9247 C.2       22 UNK         0.5000 
    122 N         -3.2483  -21.9143  -53.7492 N.am      22 UNK        -0.7600 
    123 O         -1.5924  -21.9667  -52.2939 O.2       22 UNK        -0.5000 
    124 C124       -1.0666  -19.1181  -52.7976 C.3       23 UNK        -0.0398 
    125 S125       -1.0233  -17.3236  -52.4762 S.3       23 UNK        -0.2404 
    126 C126        0.7163  -16.9593  -52.8822 C.3       23 UNK        -0.0205 
    127 H127        6.6533  -14.8631  -46.4136 H         1 UNK         0.0600 
    128 H128        5.8685  -14.7033  -44.8389 H         1 UNK         0.0600 
    129 H129        7.2148  -13.6444  -45.2629 H         1 UNK         0.0600 
    130 H130        3.8798  -13.7823  -45.0597 H         1 UNK         0.3000 
    131 H131        2.1428  -12.6286  -45.6834 H         1 UNK         0.0600 
    132 H132        1.9048  -11.4967  -47.9273 H         1 UNK         0.0800 
    133 H133        3.5237  -11.9916  -48.3328 H         1 UNK         0.0800 
    134 H134        4.1734  -14.6825  -48.6684 H         1 UNK         0.0800 
    135 H135        3.5350  -13.8108  -50.0440 H         1 UNK         0.0800 
    136 H136        1.6823  -14.8669  -51.4399 H         1 UNK         0.1150 
    137 H137        1.7494  -19.1404  -51.6192 H         1 UNK         0.1150 
    138 H138        3.8773  -17.0864  -48.5141 H         1 UNK         0.1150 
    139 H139        4.3815  -19.6456  -49.4140 H         1 UNK         0.0800 
    140 H140        3.1021  -19.5255  -48.2378 H         1 UNK         0.0800 
    141 H141        0.2946  -21.0760  -50.5241 H         1 UNK         0.0800 
    142 H142        0.5778  -19.9406  -49.2445 H         1 UNK         0.0800 
    143 H143        0.9983  -22.8262  -48.4811 H         1 UNK         0.0600 
    144 H144        0.3772  -20.4439  -47.0797 H         1 UNK         0.3000 
    145 H145       -1.0182  -21.9223  -44.1329 H         1 UNK         0.0600 
    146 H146        0.7017  -20.3889  -43.1725 H         1 UNK         0.0600 
    147 H147        1.5702  -20.3831  -44.7066 H         1 UNK         0.0600 
    148 H148        1.4211  -21.8697  -43.7854 H         1 UNK         0.0600 
    149 H149       -0.6561  -19.2176  -45.0903 H         1 UNK         0.3000 
    150 H150       -3.8841  -18.8877  -46.5554 H         1 UNK         0.0600 
    151 H151       -4.4069  -18.5909  -44.1622 H         1 UNK         0.0600 
    152 H152       -4.0576  -17.0307  -44.8919 H         1 UNK         0.0600 
    153 H153       -2.8534  -17.8210  -43.8748 H         1 UNK         0.0600 
    154 H154       -1.6781  -17.1046  -45.9740 H         1 UNK         0.3000 
    155 H155        0.0295  -17.6106  -49.0611 H         1 UNK         0.0600 
    156 H156       -1.9038  -16.1031  -49.6566 H         1 UNK         0.0600 
    157 H157       -0.4101  -15.2243  -49.4020 H         1 UNK         0.0600 
    158 H158       -1.6577  -15.2195  -48.1538 H         1 UNK         0.0600 
    159 H159        0.4869  -15.7151  -47.0315 H         1 UNK         0.3000 
    160 H160        1.9053  -17.7326  -44.5275 H         1 UNK         0.0600 
    161 H161        3.5446  -16.0008  -46.4437 H         1 UNK         0.0600 
    162 H162        3.8429  -17.7088  -46.1283 H         1 UNK         0.0600 
    163 H163        4.0264  -16.5362  -44.8351 H         1 UNK         0.0600 
    164 H164        2.1333  -15.0146  -44.5747 H         1 UNK         0.3000 
    165 H165        0.3267  -13.3641  -44.3043 H         1 UNK         0.0600 
    166 H166       -1.5991  -12.8600  -42.8445 H         1 UNK         0.0600 
    167 H167       -2.0929  -13.9316  -44.1453 H         1 UNK         0.0600 
    168 H168       -1.8504  -14.5766  -42.5260 H         1 UNK         0.0600 
    169 H169        0.2934  -14.0408  -41.5057 H         1 UNK         0.3000 
    170 H170        2.3448  -14.5480  -40.3276 H         1 UNK         0.0600 
    171 H171        4.7235  -12.9711  -41.4609 H         1 UNK         0.0600 
    172 H172        4.6683  -13.7583  -39.8856 H         1 UNK         0.0600 
    173 H173        4.6120  -14.7218  -41.3521 H         1 UNK         0.0600 
    174 H174        2.0521  -11.7072  -40.9455 H         1 UNK         0.3000 
    175 H175        0.8420  -10.9137  -37.9713 H         1 UNK         0.0600 
    176 H176        3.8407  -10.2830  -37.8839 H         1 UNK         0.0600 
    177 H177        2.5803   -9.3528  -37.0741 H         1 UNK         0.0600 
    178 H178        2.8944  -11.0097  -36.5902 H         1 UNK         0.0600 
    179 H179        2.6160   -9.5535  -39.9506 H         1 UNK         0.3000 
    180 H180       -0.0765   -8.5027  -41.9169 H         1 UNK         0.0600 
    181 H181        0.7416   -6.1906  -41.5603 H         1 UNK         0.0600 
    182 H182        1.5686   -6.6798  -40.0804 H         1 UNK         0.0600 
    183 H183       -0.1883   -6.7176  -40.1675 H         1 UNK         0.0600 
    184 H184        2.6325   -7.7532  -42.0727 H         1 UNK         0.3000 
    185 H185        3.7525   -8.7554  -44.0251 H         1 UNK         0.0600 
    186 H186        4.7132  -10.6476  -41.7983 H         1 UNK         0.0600 
    187 H187        5.7712   -9.8730  -42.9758 H         1 UNK         0.0600 
    188 H188        4.8775   -8.8977  -41.8228 H         1 UNK         0.0600 
    189 H189        3.8203  -11.7318  -43.8898 H         1 UNK         0.3000 
    190 H190       -2.0484  -20.8859  -48.5190 H         1 UNK         0.3000 
    191 H191       -3.5088  -22.5758  -50.2095 H         1 UNK         0.0600 
    192 H192       -4.2139  -20.2782  -49.6465 H         1 UNK         0.0600 
    193 H193       -4.4972  -20.7387  -47.9679 H         1 UNK         0.0600 
    194 H194       -5.4988  -21.4027  -49.2479 H         1 UNK         0.0600 
    195 H195       -3.2513  -22.6780  -46.6171 H         1 UNK         0.3000 
    196 H196       -5.0183  -24.8428  -46.1897 H         1 UNK         0.0600 
    197 H197       -4.2607  -23.3480  -44.3749 H         1 UNK         0.0600 
    198 H198       -2.6018  -23.9174  -44.5490 H         1 UNK         0.0600 
    199 H199       -3.8566  -25.0109  -43.9785 H         1 UNK         0.0600 
    200 H200       -1.4970  -24.8286  -46.8790 H         1 UNK         0.3000 
    201 H201       -1.1302  -27.6650  -46.6687 H         1 UNK         0.0600 
    202 H202        0.7471  -26.0596  -46.4822 H         1 UNK         0.0600 
    203 H203        0.5138  -25.5454  -48.1504 H         1 UNK         0.0600 
    204 H204        1.0390  -27.1869  -47.7987 H         1 UNK         0.0600 
    205 H205       -1.9182  -25.5024  -49.4107 H         1 UNK         0.3000 
    206 H206       -1.9008  -27.5220  -51.4361 H         1 UNK         0.0600 
    207 H207       -3.3419  -24.8216  -51.4035 H         1 UNK         0.0600 
    208 H208       -1.6566  -25.0583  -51.8554 H         1 UNK         0.0600 
    209 H209       -2.9275  -25.7830  -52.8204 H         1 UNK         0.0600 
    210 H210       -4.3427  -26.5000  -49.1458 H         1 UNK         0.3000 
    211 H211       -6.2385  -27.3290  -48.4135 H         1 UNK         0.0600 
    212 H212       -5.2221  -29.9327  -49.6781 H         1 UNK         0.0600 
    213 H213       -6.5572  -29.8236  -48.5337 H         1 UNK         0.0600 
    214 H214       -4.9375  -29.3587  -48.0414 H         1 UNK         0.0600 
    215 H215       -6.5335  -29.4962  -51.1959 H         1 UNK         0.3000 
    216 H216       -9.1671  -28.5365  -51.8892 H         1 UNK         0.0600 
    217 H217       -8.9528  -30.2088  -53.7332 H         1 UNK         0.0600 
    218 H218       -8.4953  -30.9104  -52.1895 H         1 UNK         0.0600 
    219 H219       -7.2512  -30.4375  -53.3476 H         1 UNK         0.0600 
    220 H220       -5.9168  -27.7016  -52.8835 H         1 UNK         0.3000 
    221 H221       -6.8849  -26.0399  -55.1765 H         1 UNK         0.0600 
    222 H222       -4.0944  -27.1244  -54.5282 H         1 UNK         0.0600 
    223 H223       -5.1950  -27.7870  -55.7336 H         1 UNK         0.0600 
    224 H224       -4.5343  -26.1750  -55.9451 H         1 UNK         0.0600 
    225 H225       -7.3499  -25.2078  -52.4626 H         1 UNK         0.3000 
    226 H226       -5.3593  -23.4506  -51.4710 H         1 UNK         0.0600 
    227 H227       -7.0541  -24.3233  -49.9828 H         1 UNK         0.0600 
    228 H228       -7.3285  -22.5980  -50.0594 H         1 UNK         0.0600 
    229 H229       -8.3692  -23.6818  -50.9690 H         1 UNK         0.0600 
    230 H230       -7.6253  -22.9255  -54.0512 H         1 UNK         0.3000 
    231 H231       -7.9343  -20.0889  -53.8802 H         1 UNK         0.0600 
    232 H232       -8.7087  -20.3270  -56.2488 H         1 UNK         0.0600 
    233 H233       -9.4559  -21.5315  -55.2109 H         1 UNK         0.0600 
    234 H234       -8.1307  -21.9885  -56.2822 H         1 UNK         0.0600 
    235 H235       -6.6623  -18.4439  -54.5666 H         1 UNK         0.3000 
    236 H236       -4.8656  -17.2632  -55.1184 H         1 UNK         0.0600 
    237 H237       -4.5892  -19.2239  -57.4584 H         1 UNK         0.0600 
    238 H238       -5.6476  -17.8146  -57.4251 H         1 UNK         0.0600 
    239 H239       -3.9050  -17.6065  -57.3699 H         1 UNK         0.0600 
    240 H240       -4.3815  -18.9100  -53.0650 H         1 UNK         0.3000 
    241 H241       -2.8271  -19.6370  -51.6971 H         1 UNK         0.0600 
    242 H242       -3.2577  -22.9232  -53.8207 H         1 UNK         0.3800 
    243 H243       -3.9188  -21.3957  -54.3028 H         1 UNK         0.3800 
    244 H244       -0.6131  -19.3137  -53.7701 H         1 UNK         0.0800 
    245 H245       -0.4161  -19.5888  -52.0641 H         1 UNK         0.0800 
    246 H246        0.7604  -15.9691  -53.3381 H         1 UNK         0.0800 
    247 H247        1.0875  -17.6509  -53.6396 H         1 UNK         0.0800 
@<TRIPOS>BOND
     1    1    2 1    
     2    1  127 1    
     3    1  128 1    
     4    1  129 1    
     5    2    3 2    
     6    2    4 am   BACKBONE|DICT|INTERRES
     7    4    5 1    
     8    4  130 1    
     9    5    6 1    
    10    5   65 1    
    11    5  131 1    
    12    6    7 1    
    13    6  132 1    
    14    6  133 1    
    15    7    8 1    
    16    8    9 1    
    17    8  134 1    
    18    8  135 1    
    19    9   10 ar   
    20    9   14 ar   
    21   10   11 ar   
    22   10  136 1    
    23   11   12 ar   
    24   11  126 1    
    25   12   13 ar   
    26   12  137 1    
    27   13   14 ar   
    28   13   15 1    
    29   14  138 1    
    30   15   16 1    
    31   15  139 1    
    32   15  140 1    
    33   16   17 1    
    34   17   18 1    
    35   17  141 1    
    36   17  142 1    
    37   18   19 1    
    38   18   67 1    
    39   18  143 1    
    40   19   20 am   BACKBONE|DICT|INTERRES
    41   19  144 1    
    42   20   21 2    
    43   20   22 1    
    44   22   23 1    
    45   22   24 1    
    46   22  145 1    
    47   23  146 1    
    48   23  147 1    
    49   23  148 1    
    50   24   25 am   BACKBONE|DICT|INTERRES
    51   24  149 1    
    52   25   26 2    
    53   25   27 1    
    54   27   28 1    
    55   27   29 1    
    56   27  150 1    
    57   28  151 1    
    58   28  152 1    
    59   28  153 1    
    60   29   30 am   BACKBONE|DICT|INTERRES
    61   29  154 1    
    62   30   31 2    
    63   30   32 1    
    64   32   33 1    
    65   32   34 1    
    66   32  155 1    
    67   33  156 1    
    68   33  157 1    
    69   33  158 1    
    70   34   35 am   BACKBONE|DICT|INTERRES
    71   34  159 1    
    72   35   36 2    
    73   35   37 1    
    74   37   38 1    
    75   37   39 1    
    76   37  160 1    
    77   38  161 1    
    78   38  162 1    
    79   38  163 1    
    80   39   40 am   BACKBONE|DICT|INTERRES
    81   39  164 1    
    82   40   41 2    
    83   40   42 1    
    84   42   43 1    
    85   42   44 1    
    86   42  165 1    
    87   43  166 1    
    88   43  167 1    
    89   43  168 1    
    90   44   45 am   BACKBONE|DICT|INTERRES
    91   44  169 1    
    92   45   46 2    
    93   45   47 1    
    94   47   48 1    
    95   47   49 1    
    96   47  170 1    
    97   48  171 1    
    98   48  172 1    
    99   48  173 1    
   100   49   50 am   BACKBONE|DICT|INTERRES
   101   49  174 1    
   102   50   51 2    
   103   50   52 1    
   104   52   53 1    
   105   52   54 1    
   106   52  175 1    
   107   53  176 1    
   108   53  177 1    
   109   53  178 1    
   110   54   55 am   BACKBONE|DICT|INTERRES
   111   54  179 1    
   112   55   56 2    
   113   55   57 1    
   114   57   58 1    
   115   57   59 1    
   116   57  180 1    
   117   58  181 1    
   118   58  182 1    
   119   58  183 1    
   120   59   60 am   BACKBONE|DICT|INTERRES
   121   59  184 1    
   122   60   61 2    
   123   60   62 1    
   124   62   63 1    
   125   62   64 1    
   126   62  185 1    
   127   63  186 1    
   128   63  187 1    
   129   63  188 1    
   130   64   65 am   BACKBONE|DICT|INTERRES
   131   64  189 1    
   132   65   66 2    
   133   67   68 2    
   134   67   69 am   BACKBONE|DICT|INTERRES
   135   69   70 1    
   136   69  190 1    
   137   70   71 1    
   138   70   72 1    
   139   70  191 1    
   140   71  192 1    
   141   71  193 1    
   142   71  194 1    
   143   72   73 2    
   144   72   74 am   BACKBONE|DICT|INTERRES
   145   74   75 1    
   146   74  195 1    
   147   75   76 1    
   148   75   77 1    
   149   75  196 1    
   150   76  197 1    
   151   76  198 1    
   152   76  199 1    
   153   77   78 2    
   154   77   79 am   BACKBONE|DICT|INTERRES
   155   79   80 1    
   156   79  200 1    
   157   80   81 1    
   158   80   82 1    
   159   80  201 1    
   160   81  202 1    
   161   81  203 1    
   162   81  204 1    
   163   82   83 2    
   164   82   84 am   BACKBONE|DICT|INTERRES
   165   84   85 1    
   166   84  205 1    
   167   85   86 1    
   168   85   87 1    
   169   85  206 1    
   170   86  207 1    
   171   86  208 1    
   172   86  209 1    
   173   87   88 2    
   174   87   89 am   BACKBONE|DICT|INTERRES
   175   89   90 1    
   176   89  210 1    
   177   90   91 1    
   178   90   92 1    
   179   90  211 1    
   180   91  212 1    
   181   91  213 1    
   182   91  214 1    
   183   92   93 2    
   184   92   94 am   BACKBONE|DICT|INTERRES
   185   94   95 1    
   186   94  215 1    
   187   95   96 1    
   188   95   97 1    
   189   95  216 1    
   190   96  217 1    
   191   96  218 1    
   192   96  219 1    
   193   97   98 2    
   194   97   99 am   BACKBONE|DICT|INTERRES
   195   99  100 1    
   196   99  220 1    
   197  100  101 1    
   198  100  102 1    
   199  100  221 1    
   200  101  222 1    
   201  101  223 1    
   202  101  224 1    
   203  102  103 2    
   204  102  104 am   BACKBONE|DICT|INTERRES
   205  104  105 1    
   206  104  225 1    
   207  105  106 1    
   208  105  107 1    
   209  105  226 1    
   210  106  227 1    
   211  106  228 1    
   212  106  229 1    
   213  107  108 2    
   214  107  109 am   BACKBONE|DICT|INTERRES
   215  109  110 1    
   216  109  230 1    
   217  110  111 1    
   218  110  112 1    
   219  110  231 1    
   220  111  232 1    
   221  111  233 1    
   222  111  234 1    
   223  112  113 2    
   224  112  114 am   BACKBONE|DICT|INTERRES
   225  114  115 1    
   226  114  235 1    
   227  115  116 1    
   228  115  117 1    
   229  115  236 1    
   230  116  237 1    
   231  116  238 1    
   232  116  239 1    
   233  117  118 2    
   234  117  119 am   BACKBONE|DICT|INTERRES
   235  119  120 1    
   236  119  240 1    
   237  120  121 1    
   238  120  124 1    
   239  120  241 1    
   240  121  122 am   BACKBONE|DICT|INTERRES
   241  121  123 2    
   242  122  242 1    
   243  122  243 1    
   244  124  125 1    
   245  124  244 1    
   246  124  245 1    
   247  125  126 1    
   248  126  246 1    
   249  126  247 1    
@<TRIPOS>SUBSTRUCTURE
     1 UNK         1 GROUP             0       ****    0 ROOT    
