@<TRIPOS>MOLECULE
3R540
247   249    1
SMALL
USER_CHARGES


@<TRIPOS>ATOM
      1 CA          2.5516  -10.1457  -51.6381 C.3       0 UNK        -0.1800 
      2 C           2.9099  -11.2064  -50.6069 C.2       0 UNK         0.5000 
      3 O           4.0089  -11.7591  -50.6534 O.2       0 UNK        -0.5000 
      4 N           1.9877  -11.4909  -49.6782 N.am      1 UNK        -0.5000 
      5 CA          2.1486  -12.4866  -48.6093 C.3       1 UNK         0.1400 
      6 C6          0.7890  -12.8699  -47.9742 C.3       23 UNK        -0.0398 
      7 S7         -0.2811  -13.7634  -49.1525 S.3       23 UNK        -0.2404 
      8 C8         -1.1617  -14.9146  -48.0502 C.3       23 UNK        -0.0205 
      9 C9         -1.9165  -15.9692  -48.8449 C.ar      23 UNK        -0.0193 
     10 C10        -3.1720  -15.6771  -49.3884 C.ar      23 UNK        -0.1150 
     11 C11        -3.8779  -16.6380  -50.1200 C.ar      23 UNK        -0.0193 
     12 C12        -3.3131  -17.9076  -50.2873 C.ar      23 UNK        -0.1150 
     13 C13        -2.0542  -18.2091  -49.7646 C.ar      23 UNK        -0.0193 
     14 C14        -1.3604  -17.2381  -49.0377 C.ar      23 UNK        -0.1150 
     15 C15        -1.4481  -19.5799  -50.0190 C.3       23 UNK        -0.0205 
     16 S16        -2.3960  -20.8967  -49.1959 S.3       23 UNK        -0.2404 
     17 C17        -1.7010  -20.8248  -47.5158 C.3       23 UNK        -0.0398 
     18 CA         -0.8600  -22.0869  -47.2034 C.3       11 UNK         0.1400 
     19 N           0.2491  -21.8148  -46.2886 N.am      11 UNK        -0.5000 
     20 C           1.2279  -22.6801  -45.9884 C.2       10 UNK         0.5000 
     21 O           1.3427  -23.7879  -46.5115 O.2       10 UNK        -0.5000 
     22 CA          2.2153  -22.2579  -44.8832 C.3       10 UNK         0.1400 
     23 CB          3.3558  -21.4053  -45.4580 C.3       10 UNK        -0.1800 
     24 N           1.5587  -21.5339  -43.7930 N.am      10 UNK        -0.5000 
     25 C           0.6346  -22.0674  -42.9809 C.2       9 UNK         0.5000 
     26 O           0.2974  -23.2514  -43.0171 O.2       9 UNK        -0.5000 
     27 CA         -0.0763  -21.1036  -42.0121 C.3       9 UNK         0.1400 
     28 CB          0.7783  -20.8410  -40.7635 C.3       9 UNK        -0.1800 
     29 N          -0.4332  -19.8340  -42.6504 N.am      9 UNK        -0.5000 
     30 C          -1.3135  -19.7218  -43.6563 C.2       8 UNK         0.5000 
     31 O          -1.9561  -20.6695  -44.1060 O.2       8 UNK        -0.5000 
     32 CA         -1.4743  -18.3361  -44.3048 C.3       8 UNK         0.1400 
     33 CB         -2.4665  -17.4782  -43.5071 C.3       8 UNK        -0.1800 
     34 N          -0.2018  -17.6281  -44.4511 N.am      8 UNK        -0.5000 
     35 C           0.8041  -18.0325  -45.2400 C.2       7 UNK         0.5000 
     36 O           0.7396  -19.0216  -45.9658 O.2       7 UNK        -0.5000 
     37 CA          2.1216  -17.2409  -45.1723 C.3       7 UNK         0.1400 
     38 CB          2.0474  -15.9695  -46.0238 C.3       7 UNK        -0.1800 
     39 N           2.4926  -16.8889  -43.8046 N.am      7 UNK        -0.5000 
     40 C           2.7869  -17.7760  -42.8453 C.2       6 UNK         0.5000 
     41 O           2.8180  -18.9938  -43.0234 O.2       6 UNK        -0.5000 
     42 CA          3.0398  -17.2038  -41.4415 C.3       6 UNK         0.1400 
     43 CB          4.4813  -16.6895  -41.3087 C.3       6 UNK        -0.1800 
     44 N           2.1018  -16.1275  -41.1218 N.am      6 UNK        -0.5000 
     45 C           0.7988  -16.3132  -40.8702 C.2       5 UNK         0.5000 
     46 O           0.2563  -17.4187  -40.8531 O.2       5 UNK        -0.5000 
     47 CA         -0.0433  -15.0452  -40.6344 C.3       5 UNK         0.1400 
     48 CB          0.1296  -14.5364  -39.1954 C.3       5 UNK        -0.1800 
     49 N           0.2768  -13.9680  -41.5743 N.am      5 UNK        -0.5000 
     50 C           0.0318  -14.0261  -42.8903 C.2       4 UNK         0.5000 
     51 O          -0.4959  -14.9878  -43.4433 O.2       4 UNK        -0.5000 
     52 CA          0.4823  -12.8328  -43.7491 C.3       4 UNK         0.1400 
     53 CB         -0.6006  -11.7451  -43.7789 C.3       4 UNK        -0.1800 
     54 N           1.7599  -12.2336  -43.3615 N.am      4 UNK        -0.5000 
     55 C           2.9265  -12.8761  -43.2199 C.2       3 UNK         0.5000 
     56 O           3.0464  -14.1017  -43.2635 O.2       3 UNK        -0.5000 
     57 CA          4.1686  -11.9781  -43.0589 C.3       3 UNK         0.1400 
     58 CB          5.3825  -12.7502  -42.5123 C.3       3 UNK        -0.1800 
     59 N           4.5246  -11.3885  -44.3489 N.am      3 UNK        -0.5000 
     60 C           3.8705  -10.3901  -44.9570 C.2       2 UNK         0.5000 
     61 O           2.9574   -9.7529  -44.4283 O.2       2 UNK        -0.5000 
     62 CA          4.2656  -10.0705  -46.4127 C.3       2 UNK         0.1400 
     63 CB          5.7450  -10.3756  -46.7370 C.3       2 UNK        -0.1800 
     64 N           3.3707  -10.7279  -47.3732 N.am      2 UNK        -0.5000 
     65 C           3.1565  -12.0462  -47.5235 C.2       1 UNK         0.5000 
     66 O           3.7227  -12.9129  -46.8582 O.2       1 UNK        -0.5000 
     67 C          -1.7495  -23.2368  -46.6942 C.2       11 UNK         0.5000 
     68 O          -2.0422  -24.1559  -47.4565 O.2       11 UNK        -0.5000 
     69 N          -2.1238  -23.1923  -45.4076 N.am      12 UNK        -0.5000 
     70 CA         -2.9091  -24.2229  -44.7263 C.3       12 UNK         0.1400 
     71 CB         -3.2645  -23.7493  -43.3097 C.3       12 UNK        -0.1800 
     72 C          -2.2032  -25.5903  -44.6911 C.2       12 UNK         0.5000 
     73 O          -2.8569  -26.6124  -44.8995 O.2       12 UNK        -0.5000 
     74 N          -0.8757  -25.5866  -44.5021 N.am      13 UNK        -0.5000 
     75 CA         -0.0194  -26.7733  -44.5975 C.3       13 UNK         0.1400 
     76 CB          1.3889  -26.4272  -44.0914 C.3       13 UNK        -0.1800 
     77 C           0.0381  -27.3749  -46.0192 C.2       13 UNK         0.5000 
     78 O           0.2410  -28.5812  -46.1579 O.2       13 UNK        -0.5000 
     79 N          -0.1827  -26.5375  -47.0413 N.am      14 UNK        -0.5000 
     80 CA         -0.3170  -26.9137  -48.4504 C.3       14 UNK         0.1400 
     81 CB          0.3218  -25.8129  -49.3155 C.3       14 UNK        -0.1800 
     82 C          -1.7860  -27.1749  -48.8588 C.2       14 UNK         0.5000 
     83 O          -2.0647  -27.3013  -50.0516 O.2       14 UNK        -0.5000 
     84 N          -2.6956  -27.2467  -47.8741 N.am      15 UNK        -0.5000 
     85 CA         -4.1360  -27.5135  -47.9730 C.3       15 UNK         0.1400 
     86 CB         -4.4156  -28.8555  -48.6826 C.3       15 UNK        -0.1800 
     87 C          -4.9815  -26.3553  -48.5465 C.2       15 UNK         0.5000 
     88 O          -6.1766  -26.5548  -48.7680 O.2       15 UNK        -0.5000 
     89 N          -4.3744  -25.1712  -48.7280 N.am      16 UNK        -0.5000 
     90 CA         -4.9723  -23.8905  -49.1264 C.3       16 UNK         0.1400 
     91 CB         -5.6527  -23.2358  -47.9082 C.3       16 UNK        -0.1800 
     92 C          -5.9056  -23.9890  -50.3513 C.2       16 UNK         0.5000 
     93 O          -7.1075  -23.7361  -50.2396 O.2       16 UNK        -0.5000 
     94 N          -5.3342  -24.3893  -51.4949 N.am      17 UNK        -0.5000 
     95 CA         -6.0166  -24.6850  -52.7614 C.3       17 UNK         0.1400 
     96 CB         -5.0586  -25.5007  -53.6497 C.3       17 UNK        -0.1800 
     97 C          -6.6077  -23.4569  -53.4999 C.2       17 UNK         0.5000 
     98 O          -6.3875  -23.2954  -54.7016 O.2       17 UNK        -0.5000 
     99 N          -7.3732  -22.6312  -52.7754 N.am      18 UNK        -0.5000 
    100 CA        -8.1564  -21.4815  -53.2376 C.3       18 UNK         0.1400 
    101 CB        -9.4033  -21.9808  -54.0018 C.3       18 UNK        -0.1800 
    102 C         -7.3215  -20.4433  -54.0203 C.2       18 UNK         0.5000 
    103 O         -6.1616  -20.2068  -53.6779 O.2       18 UNK        -0.5000 
    104 N         -7.9139  -19.8417  -55.0615 N.am      19 UNK        -0.5000 
    105 CA        -7.3049  -18.8130  -55.9088 C.3       19 UNK         0.1400 
    106 CB        -8.3464  -18.3146  -56.9213 C.3       19 UNK        -0.1800 
    107 C         -6.0239  -19.2686  -56.6339 C.2       19 UNK         0.5000 
    108 O         -5.1553  -18.4374  -56.8991 O.2       19 UNK        -0.5000 
    109 N         -5.9057  -20.5764  -56.9051 N.am      20 UNK        -0.5000 
    110 CA        -4.7075  -21.1932  -57.4754 C.3       20 UNK         0.1400 
    111 CB        -5.0366  -22.6186  -57.9442 C.3       20 UNK        -0.1800 
    112 C         -3.5133  -21.1952  -56.5008 C.2       20 UNK         0.5000 
    113 O         -2.3697  -21.1651  -56.9573 O.2       20 UNK        -0.5000 
    114 N         -3.7899  -21.2057  -55.1887 N.am      21 UNK        -0.5000 
    115 CA        -2.7854  -21.0372  -54.1422 C.3       21 UNK         0.1400 
    116 CB        -3.2495  -21.7323  -52.8533 C.3       21 UNK        -0.1800 
    117 C         -2.4803  -19.5485  -53.8998 C.2       21 UNK         0.5000 
    118 O         -1.3106  -19.2011  -53.7331 O.2       21 UNK        -0.5000 
    119 N         -3.5195  -18.6988  -53.8954 N.am      22 UNK        -0.5000 
    120 CA        -3.3874  -17.2386  -53.7296 C.3       22 UNK         0.1400 
    121 C         -2.6331  -16.5353  -54.8937 C.2       22 UNK         0.5000 
    122 N         -2.8383  -16.9377  -56.1416 N.am      22 UNK        -0.7600 
    123 O         -1.8560  -15.6134  -54.6623 O.2       22 UNK        -0.5000 
    124 C124       -4.7396  -16.5198  -53.4772 C.3       23 UNK        -0.0398 
    125 S125       -5.7643  -17.2464  -52.1527 S.3       23 UNK        -0.2404 
    126 C126       -5.2552  -16.2850  -50.6830 C.3       23 UNK        -0.0205 
    127 H127        3.2601   -9.3189  -51.5877 H         1 UNK         0.0600 
    128 H128        1.5501   -9.7457  -51.4778 H         1 UNK         0.0600 
    129 H129        2.5914  -10.5696  -52.6415 H         1 UNK         0.0600 
    130 H130        1.0936  -11.0216  -49.7092 H         1 UNK         0.3000 
    131 H131        2.5688  -13.3887  -49.0603 H         1 UNK         0.0600 
    132 H132        0.2617  -11.9859  -47.6115 H         1 UNK         0.0800 
    133 H133        0.9469  -13.5075  -47.1056 H         1 UNK         0.0800 
    134 H134       -0.4580  -15.4003  -47.3751 H         1 UNK         0.0800 
    135 H135       -1.8546  -14.3550  -47.4199 H         1 UNK         0.0800 
    136 H136       -3.5987  -14.6948  -49.2407 H         1 UNK         0.1150 
    137 H137       -3.8428  -18.6732  -50.8358 H         1 UNK         0.1150 
    138 H138       -0.3866  -17.4669  -48.6274 H         1 UNK         0.1150 
    139 H139       -1.4456  -19.7666  -51.0917 H         1 UNK         0.0800 
    140 H140       -0.4034  -19.6178  -49.7060 H         1 UNK         0.0800 
    141 H141       -2.5110  -20.6790  -46.7990 H         1 UNK         0.0800 
    142 H142       -1.0885  -19.9281  -47.4425 H         1 UNK         0.0800 
    143 H143       -0.3939  -22.4280  -48.1307 H         1 UNK         0.0600 
    144 H144        0.2819  -20.8871  -45.8767 H         1 UNK         0.3000 
    145 H145        2.6509  -23.1671  -44.4639 H         1 UNK         0.0600 
    146 H146        3.8855  -21.9431  -46.2451 H         1 UNK         0.0600 
    147 H147        2.9884  -20.4736  -45.8875 H         1 UNK         0.0600 
    148 H148        4.0849  -21.1524  -44.6879 H         1 UNK         0.0600 
    149 H149        1.8203  -20.5605  -43.6651 H         1 UNK         0.3000 
    150 H150       -1.0021  -21.5844  -41.6893 H         1 UNK         0.0600 
    151 H151        1.0207  -21.7747  -40.2546 H         1 UNK         0.0600 
    152 H152        0.2488  -20.2093  -40.0501 H         1 UNK         0.0600 
    153 H153        1.7187  -20.3491  -41.0104 H         1 UNK         0.0600 
    154 H154        0.0276  -19.0005  -42.3039 H         1 UNK         0.3000 
    155 H155       -1.8882  -18.4855  -45.3042 H         1 UNK         0.0600 
    156 H156       -2.0834  -17.2375  -42.5148 H         1 UNK         0.0600 
    157 H157       -2.6773  -16.5409  -44.0221 H         1 UNK         0.0600 
    158 H158       -3.4171  -17.9970  -43.3772 H         1 UNK         0.0600 
    159 H159       -0.1059  -16.7624  -43.9266 H         1 UNK         0.3000 
    160 H160        2.9123  -17.8749  -45.5786 H         1 UNK         0.0600 
    161 H161        1.2776  -15.2950  -45.6530 H         1 UNK         0.0600 
    162 H162        1.8183  -16.2049  -47.0637 H         1 UNK         0.0600 
    163 H163        2.9959  -15.4323  -46.0121 H         1 UNK         0.0600 
    164 H164        2.5369  -15.8980  -43.5796 H         1 UNK         0.3000 
    165 H165        2.8986  -18.0106  -40.7191 H         1 UNK         0.0600 
    166 H166        4.6778  -16.3225  -40.3013 H         1 UNK         0.0600 
    167 H167        5.1979  -17.4867  -41.5100 H         1 UNK         0.0600 
    168 H168        4.6892  -15.8788  -42.0075 H         1 UNK         0.0600 
    169 H169        2.4523  -15.1835  -41.1993 H         1 UNK         0.3000 
    170 H170       -1.0924  -15.3151  -40.7745 H         1 UNK         0.0600 
    171 H171       -0.1167  -15.3166  -38.4739 H         1 UNK         0.0600 
    172 H172        1.1544  -14.2190  -38.9988 H         1 UNK         0.0600 
    173 H173       -0.5284  -13.6907  -38.9948 H         1 UNK         0.0600 
    174 H174        0.7245  -13.1442  -41.2006 H         1 UNK         0.3000 
    175 H175        0.6071  -13.2026  -44.7670 H         1 UNK         0.0600 
    176 H176       -0.7411  -11.2909  -42.7973 H         1 UNK         0.0600 
    177 H177       -0.3440  -10.9526  -44.4823 H         1 UNK         0.0600 
    178 H178       -1.5611  -12.1571  -44.0919 H         1 UNK         0.0600 
    179 H179        1.7955  -11.2210  -43.3731 H         1 UNK         0.3000 
    180 H180        3.9267  -11.1823  -42.3514 H         1 UNK         0.0600 
    181 H181        5.6966  -13.5447  -43.1907 H         1 UNK         0.0600 
    182 H182        5.1510  -13.2112  -41.5513 H         1 UNK         0.0600 
    183 H183        6.2335  -12.0868  -42.3579 H         1 UNK         0.0600 
    184 H184        5.1977  -11.9041  -44.8979 H         1 UNK         0.3000 
    185 H185        4.1212   -8.9965  -46.5399 H         1 UNK         0.0600 
    186 H186        6.4103   -9.8785  -46.0299 H         1 UNK         0.0600 
    187 H187        5.9710  -11.4416  -46.7093 H         1 UNK         0.0600 
    188 H188        6.0047  -10.0134  -47.7318 H         1 UNK         0.0600 
    189 H189        2.8413  -10.1045  -47.9660 H         1 UNK         0.3000 
    190 H190       -1.8803  -22.3712  -44.8580 H         1 UNK         0.3000 
    191 H191       -3.8390  -24.3500  -45.2840 H         1 UNK         0.0600 
    192 H192       -2.3738  -23.5872  -42.7028 H         1 UNK         0.0600 
    193 H193       -3.8831  -24.4858  -42.7955 H         1 UNK         0.0600 
    194 H194       -3.8248  -22.8145  -43.3362 H         1 UNK         0.0600 
    195 H195       -0.4187  -24.7075  -44.2811 H         1 UNK         0.3000 
    196 H196       -0.4367  -27.5365  -43.9374 H         1 UNK         0.0600 
    197 H197        2.0313  -27.3085  -44.0932 H         1 UNK         0.0600 
    198 H198        1.3591  -26.0479  -43.0697 H         1 UNK         0.0600 
    199 H199        1.8678  -25.6723  -44.7142 H         1 UNK         0.0600 
    200 H200       -0.3374  -25.5582  -46.8349 H         1 UNK         0.3000 
    201 H201        0.2323  -27.8395  -48.6315 H         1 UNK         0.0600 
    202 H202        1.3556  -25.6314  -49.0208 H         1 UNK         0.0600 
    203 H203       -0.2171  -24.8691  -49.2345 H         1 UNK         0.0600 
    204 H204        0.3307  -26.0954  -50.3688 H         1 UNK         0.0600 
    205 H205       -2.3699  -27.0823  -46.9290 H         1 UNK         0.3000 
    206 H206       -4.4724  -27.6265  -46.9416 H         1 UNK         0.0600 
    207 H207       -5.4620  -29.1435  -48.5754 H         1 UNK         0.0600 
    208 H208       -4.2037  -28.8037  -49.7506 H         1 UNK         0.0600 
    209 H209       -3.8155  -29.6601  -48.2578 H         1 UNK         0.0600 
    210 H210       -3.3964  -25.1069  -48.4592 H         1 UNK         0.3000 
    211 H211       -4.1450  -23.2467  -49.4243 H         1 UNK         0.0600 
    212 H212       -6.4660  -23.8506  -47.5212 H         1 UNK         0.0600 
    213 H213       -6.0687  -22.2618  -48.1687 H         1 UNK         0.0600 
    214 H214       -4.9393  -23.0741  -47.1006 H         1 UNK         0.0600 
    215 H215       -4.3425  -24.5775  -51.4806 H         1 UNK         0.3000 
    216 H216       -6.8650  -25.3311  -52.5273 H         1 UNK         0.0600 
    217 H217       -4.1833  -24.9190  -53.9403 H         1 UNK         0.0600 
    218 H218       -5.5535  -25.8270  -54.5653 H         1 UNK         0.0600 
    219 H219       -4.7110  -26.3978  -53.1368 H         1 UNK         0.0600 
    220 H220       -7.4547  -22.8517  -51.7851 H         1 UNK         0.3000 
    221 H221       -8.5001  -20.9703  -52.3376 H         1 UNK         0.0600 
    222 H222       -9.1374  -22.4441  -54.9530 H         1 UNK         0.0600 
    223 H223       -9.9474  -22.7221  -53.4162 H         1 UNK         0.0600 
    224 H224      -10.1021  -21.1687  -54.2053 H         1 UNK         0.0600 
    225 H225       -8.8638  -20.1003  -55.2849 H         1 UNK         0.3000 
    226 H226       -7.0329  -17.9779  -55.2613 H         1 UNK         0.0600 
    227 H227       -9.2199  -17.8997  -56.4181 H         1 UNK         0.0600 
    228 H228       -7.9322  -17.5266  -57.5519 H         1 UNK         0.0600 
    229 H229       -8.6849  -19.1170  -57.5780 H         1 UNK         0.0600 
    230 H230       -6.6465  -21.2009  -56.6195 H         1 UNK         0.3000 
    231 H231       -4.4139  -20.6109  -58.3515 H         1 UNK         0.0600 
    232 H232       -4.1712  -23.0803  -58.4212 H         1 UNK         0.0600 
    233 H233       -5.8471  -22.6178  -58.6731 H         1 UNK         0.0600 
    234 H234       -5.3315  -23.2600  -57.1139 H         1 UNK         0.0600 
    235 H235       -4.7582  -21.2029  -54.8883 H         1 UNK         0.3000 
    236 H236       -1.8598  -21.5232  -54.4582 H         1 UNK         0.0600 
    237 H237       -4.1202  -21.2479  -52.4111 H         1 UNK         0.0600 
    238 H238       -3.5026  -22.7740  -53.0421 H         1 UNK         0.0600 
    239 H239       -2.4564  -21.7270  -52.1065 H         1 UNK         0.0600 
    240 H240       -4.4600  -19.0696  -53.9737 H         1 UNK         0.3000 
    241 H241       -2.7727  -17.0827  -52.8423 H         1 UNK         0.0600 
    242 H242       -3.5510  -17.6307  -56.3566 H         1 UNK         0.3800 
    243 H243       -2.3461  -16.4843  -56.8944 H         1 UNK         0.3800 
    244 H244       -4.5686  -15.4670  -53.2458 H         1 UNK         0.0800 
    245 H245       -5.3385  -16.5281  -54.3888 H         1 UNK         0.0800 
    246 H246       -5.9912  -16.4542  -49.8963 H         1 UNK         0.0800 
    247 H247       -5.3035  -15.2219  -50.9236 H         1 UNK         0.0800 
@<TRIPOS>BOND
     1    1    2 1    
     2    1  127 1    
     3    1  128 1    
     4    1  129 1    
     5    2    3 2    
     6    2    4 am   BACKBONE|DICT|INTERRES
     7    4    5 1    
     8    4  130 1    
     9    5    6 1    
    10    5   65 1    
    11    5  131 1    
    12    6    7 1    
    13    6  132 1    
    14    6  133 1    
    15    7    8 1    
    16    8    9 1    
    17    8  134 1    
    18    8  135 1    
    19    9   10 ar   
    20    9   14 ar   
    21   10   11 ar   
    22   10  136 1    
    23   11   12 ar   
    24   11  126 1    
    25   12   13 ar   
    26   12  137 1    
    27   13   14 ar   
    28   13   15 1    
    29   14  138 1    
    30   15   16 1    
    31   15  139 1    
    32   15  140 1    
    33   16   17 1    
    34   17   18 1    
    35   17  141 1    
    36   17  142 1    
    37   18   19 1    
    38   18   67 1    
    39   18  143 1    
    40   19   20 am   BACKBONE|DICT|INTERRES
    41   19  144 1    
    42   20   21 2    
    43   20   22 1    
    44   22   23 1    
    45   22   24 1    
    46   22  145 1    
    47   23  146 1    
    48   23  147 1    
    49   23  148 1    
    50   24   25 am   BACKBONE|DICT|INTERRES
    51   24  149 1    
    52   25   26 2    
    53   25   27 1    
    54   27   28 1    
    55   27   29 1    
    56   27  150 1    
    57   28  151 1    
    58   28  152 1    
    59   28  153 1    
    60   29   30 am   BACKBONE|DICT|INTERRES
    61   29  154 1    
    62   30   31 2    
    63   30   32 1    
    64   32   33 1    
    65   32   34 1    
    66   32  155 1    
    67   33  156 1    
    68   33  157 1    
    69   33  158 1    
    70   34   35 am   BACKBONE|DICT|INTERRES
    71   34  159 1    
    72   35   36 2    
    73   35   37 1    
    74   37   38 1    
    75   37   39 1    
    76   37  160 1    
    77   38  161 1    
    78   38  162 1    
    79   38  163 1    
    80   39   40 am   BACKBONE|DICT|INTERRES
    81   39  164 1    
    82   40   41 2    
    83   40   42 1    
    84   42   43 1    
    85   42   44 1    
    86   42  165 1    
    87   43  166 1    
    88   43  167 1    
    89   43  168 1    
    90   44   45 am   BACKBONE|DICT|INTERRES
    91   44  169 1    
    92   45   46 2    
    93   45   47 1    
    94   47   48 1    
    95   47   49 1    
    96   47  170 1    
    97   48  171 1    
    98   48  172 1    
    99   48  173 1    
   100   49   50 am   BACKBONE|DICT|INTERRES
   101   49  174 1    
   102   50   51 2    
   103   50   52 1    
   104   52   53 1    
   105   52   54 1    
   106   52  175 1    
   107   53  176 1    
   108   53  177 1    
   109   53  178 1    
   110   54   55 am   BACKBONE|DICT|INTERRES
   111   54  179 1    
   112   55   56 2    
   113   55   57 1    
   114   57   58 1    
   115   57   59 1    
   116   57  180 1    
   117   58  181 1    
   118   58  182 1    
   119   58  183 1    
   120   59   60 am   BACKBONE|DICT|INTERRES
   121   59  184 1    
   122   60   61 2    
   123   60   62 1    
   124   62   63 1    
   125   62   64 1    
   126   62  185 1    
   127   63  186 1    
   128   63  187 1    
   129   63  188 1    
   130   64   65 am   BACKBONE|DICT|INTERRES
   131   64  189 1    
   132   65   66 2    
   133   67   68 2    
   134   67   69 am   BACKBONE|DICT|INTERRES
   135   69   70 1    
   136   69  190 1    
   137   70   71 1    
   138   70   72 1    
   139   70  191 1    
   140   71  192 1    
   141   71  193 1    
   142   71  194 1    
   143   72   73 2    
   144   72   74 am   BACKBONE|DICT|INTERRES
   145   74   75 1    
   146   74  195 1    
   147   75   76 1    
   148   75   77 1    
   149   75  196 1    
   150   76  197 1    
   151   76  198 1    
   152   76  199 1    
   153   77   78 2    
   154   77   79 am   BACKBONE|DICT|INTERRES
   155   79   80 1    
   156   79  200 1    
   157   80   81 1    
   158   80   82 1    
   159   80  201 1    
   160   81  202 1    
   161   81  203 1    
   162   81  204 1    
   163   82   83 2    
   164   82   84 am   BACKBONE|DICT|INTERRES
   165   84   85 1    
   166   84  205 1    
   167   85   86 1    
   168   85   87 1    
   169   85  206 1    
   170   86  207 1    
   171   86  208 1    
   172   86  209 1    
   173   87   88 2    
   174   87   89 am   BACKBONE|DICT|INTERRES
   175   89   90 1    
   176   89  210 1    
   177   90   91 1    
   178   90   92 1    
   179   90  211 1    
   180   91  212 1    
   181   91  213 1    
   182   91  214 1    
   183   92   93 2    
   184   92   94 am   BACKBONE|DICT|INTERRES
   185   94   95 1    
   186   94  215 1    
   187   95   96 1    
   188   95   97 1    
   189   95  216 1    
   190   96  217 1    
   191   96  218 1    
   192   96  219 1    
   193   97   98 2    
   194   97   99 am   BACKBONE|DICT|INTERRES
   195   99  100 1    
   196   99  220 1    
   197  100  101 1    
   198  100  102 1    
   199  100  221 1    
   200  101  222 1    
   201  101  223 1    
   202  101  224 1    
   203  102  103 2    
   204  102  104 am   BACKBONE|DICT|INTERRES
   205  104  105 1    
   206  104  225 1    
   207  105  106 1    
   208  105  107 1    
   209  105  226 1    
   210  106  227 1    
   211  106  228 1    
   212  106  229 1    
   213  107  108 2    
   214  107  109 am   BACKBONE|DICT|INTERRES
   215  109  110 1    
   216  109  230 1    
   217  110  111 1    
   218  110  112 1    
   219  110  231 1    
   220  111  232 1    
   221  111  233 1    
   222  111  234 1    
   223  112  113 2    
   224  112  114 am   BACKBONE|DICT|INTERRES
   225  114  115 1    
   226  114  235 1    
   227  115  116 1    
   228  115  117 1    
   229  115  236 1    
   230  116  237 1    
   231  116  238 1    
   232  116  239 1    
   233  117  118 2    
   234  117  119 am   BACKBONE|DICT|INTERRES
   235  119  120 1    
   236  119  240 1    
   237  120  121 1    
   238  120  124 1    
   239  120  241 1    
   240  121  122 am   BACKBONE|DICT|INTERRES
   241  121  123 2    
   242  122  242 1    
   243  122  243 1    
   244  124  125 1    
   245  124  244 1    
   246  124  245 1    
   247  125  126 1    
   248  126  246 1    
   249  126  247 1    
@<TRIPOS>SUBSTRUCTURE
     1 UNK         1 GROUP             0       ****    0 ROOT    
