@<TRIPOS>MOLECULE
3R540
247   249    1
SMALL
USER_CHARGES


@<TRIPOS>ATOM
      1 CA          2.4821  -10.3448  -53.6496 C.3       0 UNK        -0.1800 
      2 C           2.7902  -11.4344  -52.6319 C.2       0 UNK         0.5000 
      3 O           3.9513  -11.6188  -52.2644 O.2       0 UNK        -0.5000 
      4 N           1.7584  -12.1602  -52.1852 N.am      1 UNK        -0.5000 
      5 CA          1.8494  -13.2214  -51.1747 C.3       1 UNK         0.1400 
      6 C6          0.6418  -14.1952  -51.2352 C.3       23 UNK        -0.0398 
      7 S7          0.3354  -14.8471  -52.9153 S.3       23 UNK        -0.2404 
      8 C8          1.6011  -16.1489  -53.0611 C.3       23 UNK        -0.0205 
      9 C9          1.1726  -17.4531  -52.4066 C.ar      23 UNK        -0.0193 
     10 C10         0.2002  -18.2470  -53.0179 C.ar      23 UNK        -0.1150 
     11 C11        -0.1843  -19.4660  -52.4544 C.ar      23 UNK        -0.0193 
     12 C12         0.4353  -19.9063  -51.2828 C.ar      23 UNK        -0.1150 
     13 C13         1.4087  -19.1201  -50.6578 C.ar      23 UNK        -0.0193 
     14 C14         1.7676  -17.8900  -51.2195 C.ar      23 UNK        -0.1150 
     15 C15         2.0983  -19.6135  -49.3950 C.3       23 UNK        -0.0205 
     16 S16         1.2920  -19.0107  -47.8773 S.3       23 UNK        -0.2404 
     17 C17        -0.2255  -20.0208  -47.8145 C.3       23 UNK        -0.0398 
     18 CA          0.0106  -21.4540  -47.2802 C.3       11 UNK         0.1400 
     19 N           0.4879  -21.4898  -45.8948 N.am      11 UNK        -0.5000 
     20 C           0.8789  -22.5996  -45.2511 C.2       10 UNK         0.5000 
     21 O           0.9454  -23.7086  -45.7818 O.2       10 UNK        -0.5000 
     22 CA          1.1846  -22.4631  -43.7489 C.3       10 UNK         0.1400 
     23 CB          2.6147  -21.9549  -43.5115 C.3       10 UNK        -0.1800 
     24 N           0.2219  -21.5909  -43.0740 N.am      10 UNK        -0.5000 
     25 C          -1.0620  -21.9149  -42.8630 C.2       9 UNK         0.5000 
     26 O          -1.5468  -23.0051  -43.1681 O.2       9 UNK        -0.5000 
     27 CA         -1.9653  -20.8276  -42.2482 C.3       9 UNK         0.1400 
     28 CB         -1.8035  -20.7875  -40.7216 C.3       9 UNK        -0.1800 
     29 N          -1.7113  -19.4958  -42.7995 N.am      9 UNK        -0.5000 
     30 C          -1.8962  -19.1570  -44.0835 C.2       8 UNK         0.5000 
     31 O          -2.3721  -19.9140  -44.9268 O.2       8 UNK        -0.5000 
     32 CA         -1.4125  -17.7631  -44.5195 C.3       8 UNK         0.1400 
     33 CB         -2.5006  -16.7077  -44.2786 C.3       8 UNK        -0.1800 
     34 N          -0.1728  -17.3543  -43.8604 N.am      8 UNK        -0.5000 
     35 C           0.9945  -18.0086  -43.9289 C.2       7 UNK         0.5000 
     36 O           1.1551  -19.0501  -44.5599 O.2       7 UNK        -0.5000 
     37 CA          2.1601  -17.4363  -43.1090 C.3       7 UNK         0.1400 
     38 CB          2.8145  -16.2500  -43.8295 C.3       7 UNK        -0.1800 
     39 N           1.7153  -17.0229  -41.7810 N.am      7 UNK        -0.5000 
     40 C           1.4778  -17.8707  -40.7714 C.2       6 UNK         0.5000 
     41 O           1.6642  -19.0862  -40.8395 O.2       6 UNK        -0.5000 
     42 CA          0.9138  -17.2578  -39.4759 C.3       6 UNK         0.1400 
     43 CB          2.0529  -16.7665  -38.5699 C.3       6 UNK        -0.1800 
     44 N          -0.0163  -16.1538  -39.7239 N.am      6 UNK        -0.5000 
     45 C          -1.2193  -16.2977  -40.2958 C.2       5 UNK         0.5000 
     46 O          -1.6725  -17.3787  -40.6730 O.2       5 UNK        -0.5000 
     47 CA         -2.0381  -15.0116  -40.5187 C.3       5 UNK         0.1400 
     48 CB         -2.7955  -14.6294  -39.2381 C.3       5 UNK        -0.1800 
     49 N          -1.2638  -13.8551  -40.9876 N.am      5 UNK        -0.5000 
     50 C          -0.4892  -13.8335  -42.0806 C.2       4 UNK         0.5000 
     51 O          -0.1964  -14.8350  -42.7331 O.2       4 UNK        -0.5000 
     52 CA          0.0754  -12.4698  -42.5143 C.3       4 UNK         0.1400 
     53 CB          1.5090  -12.2995  -41.9898 C.3       4 UNK        -0.1800 
     54 N           0.0860  -12.3258  -43.9721 N.am      4 UNK        -0.5000 
     55 C          -0.9859  -12.3523  -44.7740 C.2       3 UNK         0.5000 
     56 O          -2.1407  -12.4380  -44.3532 O.2       3 UNK        -0.5000 
     57 CA         -0.7608  -12.2669  -46.3009 C.3       3 UNK         0.1400 
     58 CB         -0.9624  -10.8228  -46.7985 C.3       3 UNK        -0.1800 
     59 N           0.5003  -12.8209  -46.8221 N.am      3 UNK        -0.5000 
     60 C           1.7587  -12.4066  -46.6125 C.2       2 UNK         0.5000 
     61 O           2.0720  -11.5285  -45.8085 O.2       2 UNK        -0.5000 
     62 CA          2.8628  -13.0862  -47.4474 C.3       2 UNK         0.1400 
     63 CB          3.3921  -14.3293  -46.7192 C.3       2 UNK        -0.1800 
     64 N           2.4748  -13.4661  -48.8119 N.am      2 UNK        -0.5000 
     65 C           2.0327  -12.6252  -49.7591 C.2       1 UNK         0.5000 
     66 O           1.7831  -11.4346  -49.5514 O.2       1 UNK        -0.5000 
     67 C          -1.2555  -22.3112  -47.4677 C.2       11 UNK         0.5000 
     68 O          -1.3217  -23.0737  -48.4285 O.2       11 UNK        -0.5000 
     69 N          -2.2139  -22.2095  -46.5363 N.am      12 UNK        -0.5000 
     70 CA         -3.4402  -23.0064  -46.5150 C.3       12 UNK         0.1400 
     71 CB         -4.3817  -22.4901  -45.4166 C.3       12 UNK        -0.1800 
     72 C          -3.1720  -24.5090  -46.3379 C.2       12 UNK         0.5000 
     73 O          -3.8224  -25.3142  -47.0026 O.2       12 UNK        -0.5000 
     74 N          -2.2055  -24.8641  -45.4817 N.am      13 UNK        -0.5000 
     75 CA         -1.7550  -26.2430  -45.2918 C.3       13 UNK         0.1400 
     76 CB         -0.8149  -26.3175  -44.0790 C.3       13 UNK        -0.1800 
     77 C          -1.0824  -26.8226  -46.5516 C.2       13 UNK         0.5000 
     78 O          -1.3451  -27.9727  -46.9043 O.2       13 UNK        -0.5000 
     79 N          -0.2469  -26.0118  -47.2146 N.am      14 UNK        -0.5000 
     80 CA          0.4699  -26.3761  -48.4359 C.3       14 UNK         0.1400 
     81 CB          1.5953  -25.3591  -48.6841 C.3       14 UNK        -0.1800 
     82 C          -0.4465  -26.4824  -49.6693 C.2       14 UNK         0.5000 
     83 O          -0.3487  -27.4562  -50.4168 O.2       14 UNK        -0.5000 
     84 N          -1.3064  -25.4757  -49.8693 N.am      15 UNK        -0.5000 
     85 CA         -2.1473  -25.3197  -51.0587 C.3       15 UNK         0.1400 
     86 CB         -2.3336  -23.8190  -51.3322 C.3       15 UNK        -0.1800 
     87 C          -3.5137  -26.0234  -50.9563 C.2       15 UNK         0.5000 
     88 O          -4.2768  -25.9709  -51.9206 O.2       15 UNK        -0.5000 
     89 N          -3.8109  -26.6465  -49.8062 N.am      16 UNK        -0.5000 
     90 CA         -5.0718  -27.3138  -49.4603 C.3       16 UNK         0.1400 
     91 CB         -5.3269  -28.5381  -50.3645 C.3       16 UNK        -0.1800 
     92 C          -6.2458  -26.3142  -49.4343 C.2       16 UNK         0.5000 
     93 O          -7.1832  -26.4155  -50.2265 O.2       16 UNK        -0.5000 
     94 N          -6.1226  -25.3355  -48.5295 N.am      17 UNK        -0.5000 
     95 CA         -7.0208  -24.2146  -48.2271 C.3       17 UNK         0.1400 
     96 CB         -8.4602  -24.6885  -47.9454 C.3       17 UNK        -0.1800 
     97 C          -6.9902  -23.0626  -49.2500 C.2       17 UNK         0.5000 
     98 O          -7.4483  -21.9674  -48.9219 O.2       17 UNK        -0.5000 
     99 N          -6.4221  -23.2824  -50.4422 N.am      18 UNK        -0.5000 
    100 CA        -6.2981  -22.2958  -51.5187 C.3       18 UNK         0.1400 
    101 CB        -6.2188  -23.0416  -52.8630 C.3       18 UNK        -0.1800 
    102 C         -5.1088  -21.3340  -51.3025 C.2       18 UNK         0.5000 
    103 O         -4.2753  -21.1747  -52.1944 O.2       18 UNK        -0.5000 
    104 N         -5.0309  -20.7265  -50.1118 N.am      19 UNK        -0.5000 
    105 CA        -4.0056  -19.7541  -49.7372 C.3       19 UNK         0.1400 
    106 CB        -4.0889  -19.4847  -48.2270 C.3       19 UNK        -0.1800 
    107 C         -4.1566  -18.4376  -50.5208 C.2       19 UNK         0.5000 
    108 O         -5.2755  -17.9335  -50.6409 O.2       19 UNK        -0.5000 
    109 N         -3.0154  -17.9057  -50.9804 N.am      20 UNK        -0.5000 
    110 CA        -2.8208  -16.6927  -51.7816 C.3       20 UNK         0.1400 
    111 CB        -3.3608  -15.4397  -51.0664 C.3       20 UNK        -0.1800 
    112 C         -3.3636  -16.7990  -53.2231 C.2       20 UNK         0.5000 
    113 O         -4.4765  -17.2762  -53.4459 O.2       20 UNK        -0.5000 
    114 N         -2.5574  -16.3153  -54.1797 N.am      21 UNK        -0.5000 
    115 CA        -2.8589  -16.1773  -55.6125 C.3       21 UNK         0.1400 
    116 CB        -3.9086  -15.0666  -55.8268 C.3       21 UNK        -0.1800 
    117 C         -3.2283  -17.4939  -56.3385 C.2       21 UNK         0.5000 
    118 O         -3.9922  -17.4676  -57.3059 O.2       21 UNK        -0.5000 
    119 N         -2.6755  -18.6205  -55.8730 N.am      22 UNK        -0.5000 
    120 CA        -2.7997  -19.9447  -56.5032 C.3       22 UNK         0.1400 
    121 C         -2.0205  -20.0627  -57.8465 C.2       22 UNK         0.5000 
    122 N         -2.4031  -20.9955  -58.7087 N.am      22 UNK        -0.7600 
    123 O         -1.0627  -19.3377  -58.1096 O.2       22 UNK        -0.5000 
    124 C124       -2.4424  -21.0913  -55.5174 C.3       23 UNK        -0.0398 
    125 S125       -0.8005  -20.9190  -54.7315 S.3       23 UNK        -0.2404 
    126 C126       -1.2887  -20.2850  -53.0994 C.3       23 UNK        -0.0205 
    127 H127        3.0360  -10.5242  -54.5712 H         1 UNK         0.0600 
    128 H128        2.7763   -9.3713  -53.2573 H         1 UNK         0.0600 
    129 H129        1.4201  -10.3064  -53.8935 H         1 UNK         0.0600 
    130 H130        0.8272  -11.9546  -52.5166 H         1 UNK         0.3000 
    131 H131        2.7505  -13.7993  -51.3890 H         1 UNK         0.0600 
    132 H132       -0.2688  -13.6904  -50.9073 H         1 UNK         0.0800 
    133 H133        0.7826  -15.0371  -50.5555 H         1 UNK         0.0800 
    134 H134        1.7849  -16.3332  -54.1206 H         1 UNK         0.0800 
    135 H135        2.5496  -15.7996  -52.6521 H         1 UNK         0.0800 
    136 H136       -0.2538  -17.9155  -53.9400 H         1 UNK         0.1150 
    137 H137        0.1586  -20.8605  -50.8561 H         1 UNK         0.1150 
    138 H138        2.5265  -17.2857  -50.7429 H         1 UNK         0.1150 
    139 H139        2.1452  -20.7029  -49.3869 H         1 UNK         0.0800 
    140 H140        3.1347  -19.2728  -49.3924 H         1 UNK         0.0800 
    141 H141       -0.6742  -20.0406  -48.8066 H         1 UNK         0.0800 
    142 H142       -0.9447  -19.5008  -47.1830 H         1 UNK         0.0800 
    143 H143        0.7874  -21.9166  -47.8915 H         1 UNK         0.0600 
    144 H144        0.5378  -20.5999  -45.4039 H         1 UNK         0.3000 
    145 H145        1.1074  -23.4573  -43.3037 H         1 UNK         0.0600 
    146 H146        2.8336  -21.8770  -42.4464 H         1 UNK         0.0600 
    147 H147        3.3447  -22.6393  -43.9452 H         1 UNK         0.0600 
    148 H148        2.7821  -20.9757  -43.9591 H         1 UNK         0.0600 
    149 H149        0.5381  -20.6607  -42.8364 H         1 UNK         0.3000 
    150 H150       -3.0006  -21.0904  -42.4743 H         1 UNK         0.0600 
    151 H151       -1.9919  -21.7677  -40.2818 H         1 UNK         0.0600 
    152 H152       -2.5068  -20.0877  -40.2699 H         1 UNK         0.0600 
    153 H153       -0.7972  -20.4831  -40.4311 H         1 UNK         0.0600 
    154 H154       -1.3768  -18.7890  -42.1531 H         1 UNK         0.3000 
    155 H155       -1.2109  -17.7992  -45.5910 H         1 UNK         0.0600 
    156 H156       -3.4156  -16.9620  -44.8149 H         1 UNK         0.0600 
    157 H157       -2.1822  -15.7238  -44.6243 H         1 UNK         0.0600 
    158 H158       -2.7514  -16.6267  -43.2214 H         1 UNK         0.0600 
    159 H159       -0.2047  -16.4764  -43.3432 H         1 UNK         0.3000 
    160 H160        2.9133  -18.2199  -43.0003 H         1 UNK         0.0600 
    161 H161        2.1063  -15.4414  -44.0139 H         1 UNK         0.0600 
    162 H162        3.2157  -16.5657  -44.7929 H         1 UNK         0.0600 
    163 H163        3.6439  -15.8439  -43.2504 H         1 UNK         0.0600 
    164 H164        1.4570  -16.0522  -41.6720 H         1 UNK         0.3000 
    165 H165        0.3723  -18.0450  -38.9467 H         1 UNK         0.0600 
    166 H166        1.6695  -16.4034  -37.6162 H         1 UNK         0.0600 
    167 H167        2.7531  -17.5739  -38.3513 H         1 UNK         0.0600 
    168 H168        2.6184  -15.9581  -39.0351 H         1 UNK         0.0600 
    169 H169        0.2832  -15.2286  -39.4534 H         1 UNK         0.3000 
    170 H170       -2.7786  -15.2315  -41.2894 H         1 UNK         0.0600 
    171 H171       -3.3957  -15.4647  -38.8743 H         1 UNK         0.0600 
    172 H172       -2.1135  -14.3418  -38.4370 H         1 UNK         0.0600 
    173 H173       -3.4763  -13.7966  -39.4153 H         1 UNK         0.0600 
    174 H174       -1.4282  -12.9877  -40.4974 H         1 UNK         0.3000 
    175 H175       -0.5512  -11.6768  -42.1016 H         1 UNK         0.0600 
    176 H176        2.1773  -13.0613  -42.3943 H         1 UNK         0.0600 
    177 H177        1.9136  -11.3234  -42.2582 H         1 UNK         0.0600 
    178 H178        1.5412  -12.3768  -40.9023 H         1 UNK         0.0600 
    179 H179        0.9890  -12.1945  -44.4163 H         1 UNK         0.3000 
    180 H180       -1.5465  -12.8754  -46.7516 H         1 UNK         0.0600 
    181 H181       -0.2197  -10.1424  -46.3810 H         1 UNK         0.0600 
    182 H182       -1.9457  -10.4453  -46.5151 H         1 UNK         0.0600 
    183 H183       -0.8936  -10.7673  -47.8852 H         1 UNK         0.0600 
    184 H184        0.3845  -13.5815  -47.4760 H         1 UNK         0.3000 
    185 H185        3.6832  -12.3707  -47.5336 H         1 UNK         0.0600 
    186 H186        2.6305  -15.1073  -46.6545 H         1 UNK         0.0600 
    187 H187        4.2589  -14.7492  -47.2299 H         1 UNK         0.0600 
    188 H188        3.7043  -14.0841  -45.7031 H         1 UNK         0.0600 
    189 H189        2.6546  -14.4273  -49.0626 H         1 UNK         0.3000 
    190 H190       -2.1192  -21.5074  -45.8053 H         1 UNK         0.3000 
    191 H191       -3.9375  -22.8756  -47.4785 H         1 UNK         0.0600 
    192 H192       -3.9185  -22.5456  -44.4316 H         1 UNK         0.0600 
    193 H193       -5.3007  -23.0754  -45.3777 H         1 UNK         0.0600 
    194 H194       -4.6652  -21.4525  -45.5915 H         1 UNK         0.0600 
    195 H195       -1.7490  -24.1476  -44.9282 H         1 UNK         0.3000 
    196 H196       -2.6333  -26.8544  -45.0740 H         1 UNK         0.0600 
    197 H197       -0.4996  -27.3449  -43.8931 H         1 UNK         0.0600 
    198 H198       -1.3089  -25.9595  -43.1755 H         1 UNK         0.0600 
    199 H199        0.0848  -25.7202  -44.2258 H         1 UNK         0.0600 
    200 H200       -0.0499  -25.0940  -46.8272 H         1 UNK         0.3000 
    201 H201        0.9306  -27.3537  -48.2791 H         1 UNK         0.0600 
    202 H202        2.2981  -25.3394  -47.8510 H         1 UNK         0.0600 
    203 H203        1.2054  -24.3488  -48.8138 H         1 UNK         0.0600 
    204 H204        2.1609  -25.6118  -49.5818 H         1 UNK         0.0600 
    205 H205       -1.3104  -24.6919  -49.2178 H         1 UNK         0.3000 
    206 H206       -1.6292  -25.7498  -51.9183 H         1 UNK         0.0600 
    207 H207       -2.9252  -23.3394  -50.5518 H         1 UNK         0.0600 
    208 H208       -2.8445  -23.6511  -52.2810 H         1 UNK         0.0600 
    209 H209       -1.3734  -23.3064  -51.3875 H         1 UNK         0.0600 
    210 H210       -3.1314  -26.5858  -49.0598 H         1 UNK         0.3000 
    211 H211       -4.9535  -27.6836  -48.4405 H         1 UNK         0.0600 
    212 H212       -5.4924  -28.2563  -51.4045 H         1 UNK         0.0600 
    213 H213       -6.2100  -29.0853  -50.0331 H         1 UNK         0.0600 
    214 H214       -4.4854  -29.2303  -50.3351 H         1 UNK         0.0600 
    215 H215       -5.2735  -25.3546  -47.9631 H         1 UNK         0.3000 
    216 H216       -6.6388  -23.7910  -47.2979 H         1 UNK         0.0600 
    217 H217       -9.0695  -23.8692  -47.5620 H         1 UNK         0.0600 
    218 H218       -8.4764  -25.4815  -47.1977 H         1 UNK         0.0600 
    219 H219       -8.9519  -25.0610  -48.8441 H         1 UNK         0.0600 
    220 H220       -6.0644  -24.2073  -50.6368 H         1 UNK         0.3000 
    221 H221       -7.2012  -21.6823  -51.5392 H         1 UNK         0.0600 
    222 H222       -5.3218  -23.6577  -52.9290 H         1 UNK         0.0600 
    223 H223       -7.0823  -23.6915  -53.0059 H         1 UNK         0.0600 
    224 H224       -6.1983  -22.3415  -53.6992 H         1 UNK         0.0600 
    225 H225       -5.7867  -20.8800  -49.4543 H         1 UNK         0.3000 
    226 H226       -3.0307  -20.1957  -49.9561 H         1 UNK         0.0600 
    227 H227       -3.9567  -20.3995  -47.6550 H         1 UNK         0.0600 
    228 H228       -3.3133  -18.7877  -47.9076 H         1 UNK         0.0600 
    229 H229       -5.0515  -19.0548  -47.9472 H         1 UNK         0.0600 
    230 H230       -2.1643  -18.4207  -50.8091 H         1 UNK         0.3000 
    231 H231       -1.7396  -16.5784  -51.8413 H         1 UNK         0.0600 
    232 H232       -2.9578  -15.3560  -50.0572 H         1 UNK         0.0600 
    233 H233       -4.4487  -15.4458  -50.9964 H         1 UNK         0.0600 
    234 H234       -3.0767  -14.5353  -51.6058 H         1 UNK         0.0600 
    235 H235       -1.6662  -15.9282  -53.8960 H         1 UNK         0.3000 
    236 H236       -1.9322  -15.8394  -56.0786 H         1 UNK         0.0600 
    237 H237       -4.0368  -14.8437  -56.8866 H         1 UNK         0.0600 
    238 H238       -4.8839  -15.3525  -55.4315 H         1 UNK         0.0600 
    239 H239       -3.6074  -14.1399  -55.3381 H         1 UNK         0.0600 
    240 H240       -2.0332  -18.5626  -55.0993 H         1 UNK         0.3000 
    241 H241       -3.8548  -20.0675  -56.7560 H         1 UNK         0.0600 
    242 H242       -1.9029  -21.0899  -59.5793 H         1 UNK         0.3800 
    243 H243       -3.1857  -21.6038  -58.5228 H         1 UNK         0.3800 
    244 H244       -3.2068  -21.1511  -54.7413 H         1 UNK         0.0800 
    245 H245       -2.4791  -22.0584  -56.0213 H         1 UNK         0.0800 
    246 H246       -1.5742  -21.1251  -52.4659 H         1 UNK         0.0800 
    247 H247       -2.1766  -19.6591  -53.1909 H         1 UNK         0.0800 
@<TRIPOS>BOND
     1    1    2 1    
     2    1  127 1    
     3    1  128 1    
     4    1  129 1    
     5    2    3 2    
     6    2    4 am   BACKBONE|DICT|INTERRES
     7    4    5 1    
     8    4  130 1    
     9    5    6 1    
    10    5   65 1    
    11    5  131 1    
    12    6    7 1    
    13    6  132 1    
    14    6  133 1    
    15    7    8 1    
    16    8    9 1    
    17    8  134 1    
    18    8  135 1    
    19    9   10 ar   
    20    9   14 ar   
    21   10   11 ar   
    22   10  136 1    
    23   11   12 ar   
    24   11  126 1    
    25   12   13 ar   
    26   12  137 1    
    27   13   14 ar   
    28   13   15 1    
    29   14  138 1    
    30   15   16 1    
    31   15  139 1    
    32   15  140 1    
    33   16   17 1    
    34   17   18 1    
    35   17  141 1    
    36   17  142 1    
    37   18   19 1    
    38   18   67 1    
    39   18  143 1    
    40   19   20 am   BACKBONE|DICT|INTERRES
    41   19  144 1    
    42   20   21 2    
    43   20   22 1    
    44   22   23 1    
    45   22   24 1    
    46   22  145 1    
    47   23  146 1    
    48   23  147 1    
    49   23  148 1    
    50   24   25 am   BACKBONE|DICT|INTERRES
    51   24  149 1    
    52   25   26 2    
    53   25   27 1    
    54   27   28 1    
    55   27   29 1    
    56   27  150 1    
    57   28  151 1    
    58   28  152 1    
    59   28  153 1    
    60   29   30 am   BACKBONE|DICT|INTERRES
    61   29  154 1    
    62   30   31 2    
    63   30   32 1    
    64   32   33 1    
    65   32   34 1    
    66   32  155 1    
    67   33  156 1    
    68   33  157 1    
    69   33  158 1    
    70   34   35 am   BACKBONE|DICT|INTERRES
    71   34  159 1    
    72   35   36 2    
    73   35   37 1    
    74   37   38 1    
    75   37   39 1    
    76   37  160 1    
    77   38  161 1    
    78   38  162 1    
    79   38  163 1    
    80   39   40 am   BACKBONE|DICT|INTERRES
    81   39  164 1    
    82   40   41 2    
    83   40   42 1    
    84   42   43 1    
    85   42   44 1    
    86   42  165 1    
    87   43  166 1    
    88   43  167 1    
    89   43  168 1    
    90   44   45 am   BACKBONE|DICT|INTERRES
    91   44  169 1    
    92   45   46 2    
    93   45   47 1    
    94   47   48 1    
    95   47   49 1    
    96   47  170 1    
    97   48  171 1    
    98   48  172 1    
    99   48  173 1    
   100   49   50 am   BACKBONE|DICT|INTERRES
   101   49  174 1    
   102   50   51 2    
   103   50   52 1    
   104   52   53 1    
   105   52   54 1    
   106   52  175 1    
   107   53  176 1    
   108   53  177 1    
   109   53  178 1    
   110   54   55 am   BACKBONE|DICT|INTERRES
   111   54  179 1    
   112   55   56 2    
   113   55   57 1    
   114   57   58 1    
   115   57   59 1    
   116   57  180 1    
   117   58  181 1    
   118   58  182 1    
   119   58  183 1    
   120   59   60 am   BACKBONE|DICT|INTERRES
   121   59  184 1    
   122   60   61 2    
   123   60   62 1    
   124   62   63 1    
   125   62   64 1    
   126   62  185 1    
   127   63  186 1    
   128   63  187 1    
   129   63  188 1    
   130   64   65 am   BACKBONE|DICT|INTERRES
   131   64  189 1    
   132   65   66 2    
   133   67   68 2    
   134   67   69 am   BACKBONE|DICT|INTERRES
   135   69   70 1    
   136   69  190 1    
   137   70   71 1    
   138   70   72 1    
   139   70  191 1    
   140   71  192 1    
   141   71  193 1    
   142   71  194 1    
   143   72   73 2    
   144   72   74 am   BACKBONE|DICT|INTERRES
   145   74   75 1    
   146   74  195 1    
   147   75   76 1    
   148   75   77 1    
   149   75  196 1    
   150   76  197 1    
   151   76  198 1    
   152   76  199 1    
   153   77   78 2    
   154   77   79 am   BACKBONE|DICT|INTERRES
   155   79   80 1    
   156   79  200 1    
   157   80   81 1    
   158   80   82 1    
   159   80  201 1    
   160   81  202 1    
   161   81  203 1    
   162   81  204 1    
   163   82   83 2    
   164   82   84 am   BACKBONE|DICT|INTERRES
   165   84   85 1    
   166   84  205 1    
   167   85   86 1    
   168   85   87 1    
   169   85  206 1    
   170   86  207 1    
   171   86  208 1    
   172   86  209 1    
   173   87   88 2    
   174   87   89 am   BACKBONE|DICT|INTERRES
   175   89   90 1    
   176   89  210 1    
   177   90   91 1    
   178   90   92 1    
   179   90  211 1    
   180   91  212 1    
   181   91  213 1    
   182   91  214 1    
   183   92   93 2    
   184   92   94 am   BACKBONE|DICT|INTERRES
   185   94   95 1    
   186   94  215 1    
   187   95   96 1    
   188   95   97 1    
   189   95  216 1    
   190   96  217 1    
   191   96  218 1    
   192   96  219 1    
   193   97   98 2    
   194   97   99 am   BACKBONE|DICT|INTERRES
   195   99  100 1    
   196   99  220 1    
   197  100  101 1    
   198  100  102 1    
   199  100  221 1    
   200  101  222 1    
   201  101  223 1    
   202  101  224 1    
   203  102  103 2    
   204  102  104 am   BACKBONE|DICT|INTERRES
   205  104  105 1    
   206  104  225 1    
   207  105  106 1    
   208  105  107 1    
   209  105  226 1    
   210  106  227 1    
   211  106  228 1    
   212  106  229 1    
   213  107  108 2    
   214  107  109 am   BACKBONE|DICT|INTERRES
   215  109  110 1    
   216  109  230 1    
   217  110  111 1    
   218  110  112 1    
   219  110  231 1    
   220  111  232 1    
   221  111  233 1    
   222  111  234 1    
   223  112  113 2    
   224  112  114 am   BACKBONE|DICT|INTERRES
   225  114  115 1    
   226  114  235 1    
   227  115  116 1    
   228  115  117 1    
   229  115  236 1    
   230  116  237 1    
   231  116  238 1    
   232  116  239 1    
   233  117  118 2    
   234  117  119 am   BACKBONE|DICT|INTERRES
   235  119  120 1    
   236  119  240 1    
   237  120  121 1    
   238  120  124 1    
   239  120  241 1    
   240  121  122 am   BACKBONE|DICT|INTERRES
   241  121  123 2    
   242  122  242 1    
   243  122  243 1    
   244  124  125 1    
   245  124  244 1    
   246  124  245 1    
   247  125  126 1    
   248  126  246 1    
   249  126  247 1    
@<TRIPOS>SUBSTRUCTURE
     1 UNK         1 GROUP             0       ****    0 ROOT    
