@<TRIPOS>MOLECULE
3R540
247   249    1
SMALL
USER_CHARGES


@<TRIPOS>ATOM
      1 CA          0.0609  -14.5020  -51.2340 C.3       0 UNK        -0.1800 
      2 C           0.7030  -13.9035  -49.9910 C.2       0 UNK         0.5000 
      3 O           0.1840  -14.0882  -48.8912 O.2       0 UNK        -0.5000 
      4 N           1.8318  -13.2003  -50.1652 N.am      1 UNK        -0.5000 
      5 CA          2.6267  -12.5363  -49.1205 C.3       1 UNK         0.1400 
      6 C6          3.3219  -13.5245  -48.1338 C.3       23 UNK        -0.0398 
      7 S7          4.2934  -14.8255  -48.9719 S.3       23 UNK        -0.2404 
      8 C8          3.2169  -16.2737  -48.7006 C.3       23 UNK        -0.0205 
      9 C9          3.2473  -17.2681  -49.8517 C.ar      23 UNK        -0.0193 
     10 C10         2.9932  -16.8463  -51.1604 C.ar      23 UNK        -0.1150 
     11 C11         2.9604  -17.7658  -52.2106 C.ar      23 UNK        -0.0193 
     12 C12         3.1690  -19.1210  -51.9429 C.ar      23 UNK        -0.1150 
     13 C13         3.4164  -19.5628  -50.6399 C.ar      23 UNK        -0.0193 
     14 C14         3.4691  -18.6250  -49.6006 C.ar      23 UNK        -0.1150 
     15 C15         3.6491  -21.0517  -50.3924 C.3       23 UNK        -0.0205 
     16 S16         2.9830  -21.6712  -48.8122 S.3       23 UNK        -0.2404 
     17 C17         1.1974  -21.3221  -48.9785 C.3       23 UNK        -0.0398 
     18 CA          0.3651  -22.3148  -48.1367 C.3       11 UNK         0.1400 
     19 N           0.5890  -22.1484  -46.6982 N.am      11 UNK        -0.5000 
     20 C           0.2413  -23.0554  -45.7770 C.2       10 UNK         0.5000 
     21 O          -0.3081  -24.1239  -46.0469 O.2       10 UNK        -0.5000 
     22 CA          0.5218  -22.6971  -44.3077 C.3       10 UNK         0.1400 
     23 CB          2.0127  -22.8695  -43.9809 C.3       10 UNK        -0.1800 
     24 N           0.0925  -21.3416  -43.9611 N.am      10 UNK        -0.5000 
     25 C          -1.1793  -20.9180  -43.9842 C.2       9 UNK         0.5000 
     26 O          -2.1315  -21.6342  -44.2916 O.2       9 UNK        -0.5000 
     27 CA         -1.4298  -19.4356  -43.6496 C.3       9 UNK         0.1400 
     28 CB         -1.3570  -19.1900  -42.1353 C.3       9 UNK        -0.1800 
     29 N          -0.5060  -18.5348  -44.3367 N.am      9 UNK        -0.5000 
     30 C          -0.4034  -18.4215  -45.6687 C.2       8 UNK         0.5000 
     31 O          -1.0934  -19.0466  -46.4714 O.2       8 UNK        -0.5000 
     32 CA          0.7018  -17.4947  -46.1928 C.3       8 UNK         0.1400 
     33 CB          0.2713  -16.0255  -46.0847 C.3       8 UNK        -0.1800 
     34 N           1.9662  -17.7040  -45.4868 N.am      8 UNK        -0.5000 
     35 C           2.6617  -18.8507  -45.5190 C.2       7 UNK         0.5000 
     36 O           2.3189  -19.8412  -46.1606 O.2       7 UNK        -0.5000 
     37 CA          3.9263  -18.9157  -44.6473 C.3       7 UNK         0.1400 
     38 CB          5.0884  -18.1735  -45.3253 C.3       7 UNK        -0.1800 
     39 N           3.7050  -18.3650  -43.3103 N.am      7 UNK        -0.5000 
     40 C           2.8576  -18.8781  -42.4055 C.2       6 UNK         0.5000 
     41 O           2.2095  -19.9088  -42.5798 O.2       6 UNK        -0.5000 
     42 CA          2.6645  -18.0730  -41.1076 C.3       6 UNK         0.1400 
     43 CB          3.7054  -18.4833  -40.0557 C.3       6 UNK        -0.1800 
     44 N           2.7328  -16.6254  -41.3237 N.am      6 UNK        -0.5000 
     45 C           1.8625  -15.9309  -42.0680 C.2       5 UNK         0.5000 
     46 O           0.9010  -16.4394  -42.6504 O.2       5 UNK        -0.5000 
     47 CA          2.1671  -14.4339  -42.2446 C.3       5 UNK         0.1400 
     48 CB          2.9351  -14.2007  -43.5558 C.3       5 UNK        -0.1800 
     49 N           0.9482  -13.6263  -42.2411 N.am      5 UNK        -0.5000 
     50 C           0.2167  -13.3781  -41.1435 C.2       4 UNK         0.5000 
     51 O           0.5146  -13.8011  -40.0251 O.2       4 UNK        -0.5000 
     52 CA         -1.0351  -12.4867  -41.2872 C.3       4 UNK         0.1400 
     53 CB         -0.7708  -11.0936  -40.6935 C.3       4 UNK        -0.1800 
     54 N          -1.4845  -12.3229  -42.6681 N.am      4 UNK        -0.5000 
     55 C          -2.1548  -13.2432  -43.3725 C.2       3 UNK         0.5000 
     56 O          -2.5352  -14.3168  -42.9054 O.2       3 UNK        -0.5000 
     57 CA         -2.4466  -12.9123  -44.8517 C.3       3 UNK         0.1400 
     58 CB         -3.9081  -12.4700  -45.0234 C.3       3 UNK        -0.1800 
     59 N          -1.5702  -11.8937  -45.4477 N.am      3 UNK        -0.5000 
     60 C          -0.2437  -12.0122  -45.5814 C.2       2 UNK         0.5000 
     61 O           0.4111  -12.9382  -45.0982 O.2       2 UNK        -0.5000 
     62 CA          0.4882  -10.9158  -46.3639 C.3       2 UNK         0.1400 
     63 CB          1.1288   -9.8947  -45.4112 C.3       2 UNK        -0.1800 
     64 N           1.5261  -11.5996  -47.1209 N.am      2 UNK        -0.5000 
     65 C           1.7716  -11.4482  -48.4256 C.2       1 UNK         0.5000 
     66 O           1.3222  -10.5177  -49.0987 O.2       1 UNK        -0.5000 
     67 C          -1.1346  -22.2749  -48.4951 C.2       11 UNK         0.5000 
     68 O          -1.5595  -23.0324  -49.3672 O.2       11 UNK        -0.5000 
     69 N          -1.9265  -21.4541  -47.7886 N.am      12 UNK        -0.5000 
     70 CA         -3.3849  -21.4400  -47.8980 C.3       12 UNK         0.1400 
     71 CB         -3.9680  -20.2044  -47.1991 C.3       12 UNK        -0.1800 
     72 C          -4.0344  -22.7289  -47.3745 C.2       12 UNK         0.5000 
     73 O          -4.9415  -23.2450  -48.0250 O.2       12 UNK        -0.5000 
     74 N          -3.5442  -23.2537  -46.2427 N.am      13 UNK        -0.5000 
     75 CA         -3.9795  -24.5312  -45.6747 C.3       13 UNK         0.1400 
     76 CB         -3.3544  -24.7311  -44.2861 C.3       13 UNK        -0.1800 
     77 C          -3.6684  -25.7214  -46.6002 C.2       13 UNK         0.5000 
     78 O          -4.5335  -26.5750  -46.7980 O.2       13 UNK        -0.5000 
     79 N          -2.4692  -25.7243  -47.2011 N.am      14 UNK        -0.5000 
     80 CA         -2.0408  -26.6996  -48.2083 C.3       14 UNK         0.1400 
     81 CB         -0.5572  -26.4750  -48.5364 C.3       14 UNK        -0.1800 
     82 C          -2.8942  -26.6578  -49.4924 C.2       14 UNK         0.5000 
     83 O          -3.1632  -27.7057  -50.0799 O.2       14 UNK        -0.5000 
     84 N          -3.3355  -25.4538  -49.8781 N.am      15 UNK        -0.5000 
     85 CA         -4.2416  -25.1980  -50.9988 C.3       15 UNK         0.1400 
     86 CB         -3.9672  -23.7821  -51.5283 C.3       15 UNK        -0.1800 
     87 C          -5.7340  -25.3697  -50.6401 C.2       15 UNK         0.5000 
     88 O          -6.5845  -25.0878  -51.4851 O.2       15 UNK        -0.5000 
     89 N          -6.0403  -25.7905  -49.4022 N.am      16 UNK        -0.5000 
     90 CA         -7.3805  -26.0021  -48.8393 C.3       16 UNK         0.1400 
     91 CB         -8.0545  -27.2203  -49.5037 C.3       16 UNK        -0.1800 
     92 C          -8.2685  -24.7371  -48.8665 C.2       16 UNK         0.5000 
     93 O          -9.4850  -24.8381  -49.0335 O.2       16 UNK        -0.5000 
     94 N          -7.6300  -23.5668  -48.7219 N.am      17 UNK        -0.5000 
     95 CA         -8.1879  -22.2116  -48.7616 C.3       17 UNK         0.1400 
     96 CB         -9.1819  -21.9910  -47.6030 C.3       17 UNK        -0.1800 
     97 C          -8.7714  -21.7893  -50.1291 C.2       17 UNK         0.5000 
     98 O          -9.4217  -20.7456  -50.2064 O.2       17 UNK        -0.5000 
     99 N          -8.5136  -22.5655  -51.1927 N.am      18 UNK        -0.5000 
    100 CA        -8.9199  -22.2463  -52.5661 C.3       18 UNK         0.1400 
    101 CB        -8.9856  -23.5470  -53.3811 C.3       18 UNK        -0.1800 
    102 C         -7.9751  -21.2323  -53.2438 C.2       18 UNK         0.5000 
    103 O         -8.3373  -20.6468  -54.2650 O.2       18 UNK        -0.5000 
    104 N         -6.7854  -21.0503  -52.6651 N.am      19 UNK        -0.5000 
    105 CA        -5.7101  -20.1613  -53.0828 C.3       19 UNK         0.1400 
    106 CB        -4.9677  -20.7856  -54.2825 C.3       19 UNK        -0.1800 
    107 C         -4.7845  -19.9685  -51.8681 C.2       19 UNK         0.5000 
    108 O         -5.0670  -20.5150  -50.7990 O.2       19 UNK        -0.5000 
    109 N         -3.6765  -19.2443  -52.0549 N.am      20 UNK        -0.5000 
    110 CA        -2.5605  -19.1564  -51.1081 C.3       20 UNK         0.1400 
    111 CB        -2.2488  -17.6743  -50.8327 C.3       20 UNK        -0.1800 
    112 C         -1.3552  -19.9134  -51.6983 C.2       20 UNK         0.5000 
    113 O         -0.2314  -19.4169  -51.6576 O.2       20 UNK        -0.5000 
    114 N         -1.6369  -21.0672  -52.3241 N.am      21 UNK        -0.5000 
    115 CA        -0.8256  -21.8080  -53.2992 C.3       21 UNK         0.1400 
    116 CB         0.5485  -22.2319  -52.7493 C.3       21 UNK        -0.1800 
    117 C         -0.7226  -21.0454  -54.6340 C.2       21 UNK         0.5000 
    118 O         -1.1543  -21.5670  -55.6625 O.2       21 UNK        -0.5000 
    119 N         -0.2259  -19.8051  -54.5829 N.am      22 UNK        -0.5000 
    120 CA        -0.4248  -18.7839  -55.6190 C.3       22 UNK         0.1400 
    121 C         -1.8526  -18.1646  -55.5592 C.2       22 UNK         0.5000 
    122 N         -2.3389  -17.6135  -56.6628 N.am      22 UNK        -0.7600 
    123 O         -2.5194  -18.1600  -54.5250 O.2       22 UNK        -0.5000 
    124 C124        0.6798  -17.6946  -55.5826 C.3       23 UNK        -0.0398 
    125 S125        0.9511  -16.9499  -53.9323 S.3       23 UNK        -0.2404 
    126 C126        2.7151  -17.2954  -53.6348 C.3       23 UNK        -0.0205 
    127 H127        0.5883  -14.2141  -52.1437 H         1 UNK         0.0600 
    128 H128       -0.9744  -14.1726  -51.3208 H         1 UNK         0.0600 
    129 H129        0.0689  -15.5901  -51.1684 H         1 UNK         0.0600 
    130 H130        2.1803  -13.0698  -51.1038 H         1 UNK         0.3000 
    131 H131        3.4177  -11.9997  -49.6464 H         1 UNK         0.0600 
    132 H132        2.5980  -13.9979  -47.4717 H         1 UNK         0.0800 
    133 H133        4.0074  -12.9770  -47.4847 H         1 UNK         0.0800 
    134 H134        3.5114  -16.7497  -47.7649 H         1 UNK         0.0800 
    135 H135        2.1817  -15.9611  -48.5735 H         1 UNK         0.0800 
    136 H136        2.8160  -15.8001  -51.3633 H         1 UNK         0.1150 
    137 H137        3.1381  -19.8343  -52.7542 H         1 UNK         0.1150 
    138 H138        3.6614  -18.9545  -48.5895 H         1 UNK         0.1150 
    139 H139        3.2211  -21.6458  -51.2007 H         1 UNK         0.0800 
    140 H140        4.7235  -21.2376  -50.4107 H         1 UNK         0.0800 
    141 H141        0.9288  -21.3884  -50.0322 H         1 UNK         0.0800 
    142 H142        1.0019  -20.2918  -48.6754 H         1 UNK         0.0800 
    143 H143        0.7051  -23.3194  -48.3985 H         1 UNK         0.0600 
    144 H144        1.0789  -21.3042  -46.4118 H         1 UNK         0.3000 
    145 H145       -0.0432  -23.3935  -43.6847 H         1 UNK         0.0600 
    146 H146        2.3550  -23.8743  -44.2316 H         1 UNK         0.0600 
    147 H147        2.6310  -22.1626  -44.5354 H         1 UNK         0.0600 
    148 H148        2.2025  -22.7169  -42.9184 H         1 UNK         0.0600 
    149 H149        0.8207  -20.6996  -43.6603 H         1 UNK         0.3000 
    150 H150       -2.4390  -19.1873  -43.9844 H         1 UNK         0.0600 
    151 H151       -1.5900  -18.1527  -41.8930 H         1 UNK         0.0600 
    152 H152       -0.3666  -19.4108  -41.7374 H         1 UNK         0.0600 
    153 H153       -2.0724  -19.8185  -41.6037 H         1 UNK         0.0600 
    154 H154        0.0883  -17.9542  -43.7532 H         1 UNK         0.3000 
    155 H155        0.8633  -17.7277  -47.2476 H         1 UNK         0.0600 
    156 H156       -0.6264  -15.8389  -46.6751 H         1 UNK         0.0600 
    157 H157        1.0439  -15.3566  -46.4575 H         1 UNK         0.0600 
    158 H158        0.0497  -15.7361  -45.0573 H         1 UNK         0.0600 
    159 H159        2.2763  -16.9618  -44.8791 H         1 UNK         0.3000 
    160 H160        4.2051  -19.9661  -44.5398 H         1 UNK         0.0600 
    161 H161        5.2737  -18.5704  -46.3246 H         1 UNK         0.0600 
    162 H162        6.0118  -18.2846  -44.7566 H         1 UNK         0.0600 
    163 H163        4.8843  -17.1070  -45.4291 H         1 UNK         0.0600 
    164 H164        4.2011  -17.5183  -43.0764 H         1 UNK         0.3000 
    165 H165        1.6724  -18.3079  -40.7165 H         1 UNK         0.0600 
    166 H166        3.5287  -17.9760  -39.1070 H         1 UNK         0.0600 
    167 H167        3.6616  -19.5560  -39.8621 H         1 UNK         0.0600 
    168 H168        4.7206  -18.2492  -40.3787 H         1 UNK         0.0600 
    169 H169        3.4989  -16.1396  -40.8797 H         1 UNK         0.3000 
    170 H170        2.7970  -14.0992  -41.4175 H         1 UNK         0.0600 
    171 H171        3.1335  -13.1406  -43.7151 H         1 UNK         0.0600 
    172 H172        3.8977  -14.7132  -43.5423 H         1 UNK         0.0600 
    173 H173        2.3818  -14.5698  -44.4194 H         1 UNK         0.0600 
    174 H174        0.6218  -13.3023  -43.1458 H         1 UNK         0.3000 
    175 H175       -1.8370  -12.9549  -40.7125 H         1 UNK         0.0600 
    176 H176        0.0217  -10.5712  -41.2309 H         1 UNK         0.0600 
    177 H177       -1.6666  -10.4732  -40.7280 H         1 UNK         0.0600 
    178 H178       -0.4671  -11.1641  -39.6481 H         1 UNK         0.0600 
    179 H179       -1.2135  -11.4712  -43.1363 H         1 UNK         0.3000 
    180 H180       -2.3019  -13.8361  -45.4162 H         1 UNK         0.0600 
    181 H181       -4.1597  -12.3359  -46.0757 H         1 UNK         0.0600 
    182 H182       -4.1063  -11.5302  -44.5066 H         1 UNK         0.0600 
    183 H183       -4.5938  -13.2170  -44.6209 H         1 UNK         0.0600 
    184 H184       -2.0322  -11.0922  -45.8528 H         1 UNK         0.3000 
    185 H185       -0.2171  -10.4142  -47.0301 H         1 UNK         0.0600 
    186 H186        1.8151  -10.3718  -44.7101 H         1 UNK         0.0600 
    187 H187        1.6876   -9.1397  -45.9644 H         1 UNK         0.0600 
    188 H188        0.3684   -9.3752  -44.8270 H         1 UNK         0.0600 
    189 H189        1.8669  -12.4270  -46.6492 H         1 UNK         0.3000 
    190 H190       -1.5151  -20.8082  -47.1200 H         1 UNK         0.3000 
    191 H191       -3.6311  -21.3784  -48.9557 H         1 UNK         0.0600 
    192 H192       -3.7195  -20.1866  -46.1377 H         1 UNK         0.0600 
    193 H193       -5.0552  -20.1849  -47.2854 H         1 UNK         0.0600 
    194 H194       -3.5918  -19.2852  -47.6483 H         1 UNK         0.0600 
    195 H195       -2.8364  -22.7412  -45.7240 H         1 UNK         0.3000 
    196 H196       -5.0636  -24.4851  -45.5511 H         1 UNK         0.0600 
    197 H197       -3.6834  -25.6711  -43.8416 H         1 UNK         0.0600 
    198 H198       -3.6450  -23.9306  -43.6056 H         1 UNK         0.0600 
    199 H199       -2.2657  -24.7522  -44.3303 H         1 UNK         0.0600 
    200 H200       -1.7936  -25.0113  -46.9391 H         1 UNK         0.3000 
    201 H201       -2.1469  -27.6948  -47.7720 H         1 UNK         0.0600 
    202 H202        0.0615  -26.5536  -47.6423 H         1 UNK         0.0600 
    203 H203       -0.3868  -25.4921  -48.9758 H         1 UNK         0.0600 
    204 H204       -0.1978  -27.2191  -49.2482 H         1 UNK         0.0600 
    205 H205       -3.0230  -24.6384  -49.3637 H         1 UNK         0.3000 
    206 H206       -4.0228  -25.9052  -51.8011 H         1 UNK         0.0600 
    207 H207       -4.5875  -23.5547  -52.3956 H         1 UNK         0.0600 
    208 H208       -4.1708  -23.0295  -50.7671 H         1 UNK         0.0600 
    209 H209       -2.9266  -23.6771  -51.8330 H         1 UNK         0.0600 
    210 H210       -5.2761  -25.9576  -48.7592 H         1 UNK         0.3000 
    211 H211       -7.2313  -26.2412  -47.7856 H         1 UNK         0.0600 
    212 H212       -8.2877  -27.0315  -50.5520 H         1 UNK         0.0600 
    213 H213       -8.9883  -27.4749  -49.0011 H         1 UNK         0.0600 
    214 H214       -7.4123  -28.0998  -49.4559 H         1 UNK         0.0600 
    215 H215       -6.6211  -23.5979  -48.5752 H         1 UNK         0.3000 
    216 H216       -7.3393  -21.5471  -48.5916 H         1 UNK         0.0600 
    217 H217       -9.4701  -20.9419  -47.5278 H         1 UNK         0.0600 
    218 H218       -8.7409  -22.2727  -46.6468 H         1 UNK         0.0600 
    219 H219      -10.0957  -22.5702  -47.7361 H         1 UNK         0.0600 
    220 H220       -7.9716  -23.4127  -51.0664 H         1 UNK         0.3000 
    221 H221       -9.9199  -21.8080  -52.5480 H         1 UNK         0.0600 
    222 H222       -8.0016  -24.0044  -53.4894 H         1 UNK         0.0600 
    223 H223       -9.6453  -24.2764  -52.9106 H         1 UNK         0.0600 
    224 H224       -9.3701  -23.3591  -54.3843 H         1 UNK         0.0600 
    225 H225       -6.5976  -21.5156  -51.7855 H         1 UNK         0.3000 
    226 H226       -6.1257  -19.1908  -53.3600 H         1 UNK         0.0600 
    227 H227       -5.6455  -20.9730  -55.1152 H         1 UNK         0.0600 
    228 H228       -4.1865  -20.1276  -54.6582 H         1 UNK         0.0600 
    229 H229       -4.4983  -21.7334  -54.0187 H         1 UNK         0.0600 
    230 H230       -3.4838  -18.8472  -52.9727 H         1 UNK         0.3000 
    231 H231       -2.8056  -19.6284  -50.1574 H         1 UNK         0.0600 
    232 H232       -1.9413  -17.1548  -51.7416 H         1 UNK         0.0600 
    233 H233       -3.1190  -17.1576  -50.4282 H         1 UNK         0.0600 
    234 H234       -1.4428  -17.5715  -50.1046 H         1 UNK         0.0600 
    235 H235       -2.5981  -21.3692  -52.2749 H         1 UNK         0.3000 
    236 H236       -1.3803  -22.7242  -53.5065 H         1 UNK         0.0600 
    237 H237        1.1862  -21.3776  -52.5278 H         1 UNK         0.0600 
    238 H238        0.4396  -22.8234  -51.8405 H         1 UNK         0.0600 
    239 H239        1.0794  -22.8490  -53.4748 H         1 UNK         0.0600 
    240 H240        0.0451  -19.4477  -53.6715 H         1 UNK         0.3000 
    241 H241       -0.3461  -19.2816  -56.5877 H         1 UNK         0.0600 
    242 H242       -3.2580  -17.2004  -56.6346 H         1 UNK         0.3800 
    243 H243       -1.8194  -17.6015  -57.5269 H         1 UNK         0.3800 
    244 H244        1.6083  -18.1316  -55.9488 H         1 UNK         0.0800 
    245 H245        0.4533  -16.8912  -56.2854 H         1 UNK         0.0800 
    246 H246        3.2909  -16.3892  -53.8277 H         1 UNK         0.0800 
    247 H247        3.0909  -18.0449  -54.3316 H         1 UNK         0.0800 
@<TRIPOS>BOND
     1    1    2 1    
     2    1  127 1    
     3    1  128 1    
     4    1  129 1    
     5    2    3 2    
     6    2    4 am   BACKBONE|DICT|INTERRES
     7    4    5 1    
     8    4  130 1    
     9    5    6 1    
    10    5   65 1    
    11    5  131 1    
    12    6    7 1    
    13    6  132 1    
    14    6  133 1    
    15    7    8 1    
    16    8    9 1    
    17    8  134 1    
    18    8  135 1    
    19    9   10 ar   
    20    9   14 ar   
    21   10   11 ar   
    22   10  136 1    
    23   11   12 ar   
    24   11  126 1    
    25   12   13 ar   
    26   12  137 1    
    27   13   14 ar   
    28   13   15 1    
    29   14  138 1    
    30   15   16 1    
    31   15  139 1    
    32   15  140 1    
    33   16   17 1    
    34   17   18 1    
    35   17  141 1    
    36   17  142 1    
    37   18   19 1    
    38   18   67 1    
    39   18  143 1    
    40   19   20 am   BACKBONE|DICT|INTERRES
    41   19  144 1    
    42   20   21 2    
    43   20   22 1    
    44   22   23 1    
    45   22   24 1    
    46   22  145 1    
    47   23  146 1    
    48   23  147 1    
    49   23  148 1    
    50   24   25 am   BACKBONE|DICT|INTERRES
    51   24  149 1    
    52   25   26 2    
    53   25   27 1    
    54   27   28 1    
    55   27   29 1    
    56   27  150 1    
    57   28  151 1    
    58   28  152 1    
    59   28  153 1    
    60   29   30 am   BACKBONE|DICT|INTERRES
    61   29  154 1    
    62   30   31 2    
    63   30   32 1    
    64   32   33 1    
    65   32   34 1    
    66   32  155 1    
    67   33  156 1    
    68   33  157 1    
    69   33  158 1    
    70   34   35 am   BACKBONE|DICT|INTERRES
    71   34  159 1    
    72   35   36 2    
    73   35   37 1    
    74   37   38 1    
    75   37   39 1    
    76   37  160 1    
    77   38  161 1    
    78   38  162 1    
    79   38  163 1    
    80   39   40 am   BACKBONE|DICT|INTERRES
    81   39  164 1    
    82   40   41 2    
    83   40   42 1    
    84   42   43 1    
    85   42   44 1    
    86   42  165 1    
    87   43  166 1    
    88   43  167 1    
    89   43  168 1    
    90   44   45 am   BACKBONE|DICT|INTERRES
    91   44  169 1    
    92   45   46 2    
    93   45   47 1    
    94   47   48 1    
    95   47   49 1    
    96   47  170 1    
    97   48  171 1    
    98   48  172 1    
    99   48  173 1    
   100   49   50 am   BACKBONE|DICT|INTERRES
   101   49  174 1    
   102   50   51 2    
   103   50   52 1    
   104   52   53 1    
   105   52   54 1    
   106   52  175 1    
   107   53  176 1    
   108   53  177 1    
   109   53  178 1    
   110   54   55 am   BACKBONE|DICT|INTERRES
   111   54  179 1    
   112   55   56 2    
   113   55   57 1    
   114   57   58 1    
   115   57   59 1    
   116   57  180 1    
   117   58  181 1    
   118   58  182 1    
   119   58  183 1    
   120   59   60 am   BACKBONE|DICT|INTERRES
   121   59  184 1    
   122   60   61 2    
   123   60   62 1    
   124   62   63 1    
   125   62   64 1    
   126   62  185 1    
   127   63  186 1    
   128   63  187 1    
   129   63  188 1    
   130   64   65 am   BACKBONE|DICT|INTERRES
   131   64  189 1    
   132   65   66 2    
   133   67   68 2    
   134   67   69 am   BACKBONE|DICT|INTERRES
   135   69   70 1    
   136   69  190 1    
   137   70   71 1    
   138   70   72 1    
   139   70  191 1    
   140   71  192 1    
   141   71  193 1    
   142   71  194 1    
   143   72   73 2    
   144   72   74 am   BACKBONE|DICT|INTERRES
   145   74   75 1    
   146   74  195 1    
   147   75   76 1    
   148   75   77 1    
   149   75  196 1    
   150   76  197 1    
   151   76  198 1    
   152   76  199 1    
   153   77   78 2    
   154   77   79 am   BACKBONE|DICT|INTERRES
   155   79   80 1    
   156   79  200 1    
   157   80   81 1    
   158   80   82 1    
   159   80  201 1    
   160   81  202 1    
   161   81  203 1    
   162   81  204 1    
   163   82   83 2    
   164   82   84 am   BACKBONE|DICT|INTERRES
   165   84   85 1    
   166   84  205 1    
   167   85   86 1    
   168   85   87 1    
   169   85  206 1    
   170   86  207 1    
   171   86  208 1    
   172   86  209 1    
   173   87   88 2    
   174   87   89 am   BACKBONE|DICT|INTERRES
   175   89   90 1    
   176   89  210 1    
   177   90   91 1    
   178   90   92 1    
   179   90  211 1    
   180   91  212 1    
   181   91  213 1    
   182   91  214 1    
   183   92   93 2    
   184   92   94 am   BACKBONE|DICT|INTERRES
   185   94   95 1    
   186   94  215 1    
   187   95   96 1    
   188   95   97 1    
   189   95  216 1    
   190   96  217 1    
   191   96  218 1    
   192   96  219 1    
   193   97   98 2    
   194   97   99 am   BACKBONE|DICT|INTERRES
   195   99  100 1    
   196   99  220 1    
   197  100  101 1    
   198  100  102 1    
   199  100  221 1    
   200  101  222 1    
   201  101  223 1    
   202  101  224 1    
   203  102  103 2    
   204  102  104 am   BACKBONE|DICT|INTERRES
   205  104  105 1    
   206  104  225 1    
   207  105  106 1    
   208  105  107 1    
   209  105  226 1    
   210  106  227 1    
   211  106  228 1    
   212  106  229 1    
   213  107  108 2    
   214  107  109 am   BACKBONE|DICT|INTERRES
   215  109  110 1    
   216  109  230 1    
   217  110  111 1    
   218  110  112 1    
   219  110  231 1    
   220  111  232 1    
   221  111  233 1    
   222  111  234 1    
   223  112  113 2    
   224  112  114 am   BACKBONE|DICT|INTERRES
   225  114  115 1    
   226  114  235 1    
   227  115  116 1    
   228  115  117 1    
   229  115  236 1    
   230  116  237 1    
   231  116  238 1    
   232  116  239 1    
   233  117  118 2    
   234  117  119 am   BACKBONE|DICT|INTERRES
   235  119  120 1    
   236  119  240 1    
   237  120  121 1    
   238  120  124 1    
   239  120  241 1    
   240  121  122 am   BACKBONE|DICT|INTERRES
   241  121  123 2    
   242  122  242 1    
   243  122  243 1    
   244  124  125 1    
   245  124  244 1    
   246  124  245 1    
   247  125  126 1    
   248  126  246 1    
   249  126  247 1    
@<TRIPOS>SUBSTRUCTURE
     1 UNK         1 GROUP             0       ****    0 ROOT    
