@<TRIPOS>MOLECULE
3R540
247   249    1
SMALL
USER_CHARGES


@<TRIPOS>ATOM
      1 CA          0.1008  -11.9864  -41.6824 C.3       0 UNK        -0.1800 
      2 C          -0.1088  -12.0033  -43.1892 C.2       0 UNK         0.5000 
      3 O          -0.4186  -10.9672  -43.7781 O.2       0 UNK        -0.5000 
      4 N           0.0661  -13.1739  -43.8115 N.am      1 UNK        -0.5000 
      5 CA          0.0394  -13.3473  -45.2668 C.3       1 UNK         0.1400 
      6 C6         -0.5253  -14.7206  -45.6947 C.3       23 UNK        -0.0398 
      7 S7         -2.2881  -14.9208  -45.2741 S.3       23 UNK        -0.2404 
      8 C8         -2.4363  -16.7340  -45.2639 C.3       23 UNK        -0.0205 
      9 C9         -2.5216  -17.3274  -46.6636 C.ar      23 UNK        -0.0193 
     10 C10        -3.7570  -17.7339  -47.1800 C.ar      23 UNK        -0.1150 
     11 C11        -3.8348  -18.3411  -48.4367 C.ar      23 UNK        -0.0193 
     12 C12        -2.6728  -18.5028  -49.1934 C.ar      23 UNK        -0.1150 
     13 C13        -1.4325  -18.1080  -48.6895 C.ar      23 UNK        -0.0193 
     14 C14        -1.3613  -17.5341  -47.4177 C.ar      23 UNK        -0.1150 
     15 C15        -0.1739  -18.2960  -49.5233 C.3       23 UNK        -0.0205 
     16 S16         0.7861  -19.7600  -49.0160 S.3       23 UNK        -0.2404 
     17 C17        -0.3092  -21.1323  -49.5213 C.3       23 UNK        -0.0398 
     18 CA         -0.7968  -21.9882  -48.3266 C.3       11 UNK         0.1400 
     19 N          -1.4254  -21.1901  -47.2651 N.am      11 UNK        -0.5000 
     20 C          -1.7454  -21.6623  -46.0532 C.2       10 UNK         0.5000 
     21 O          -1.5293  -22.8198  -45.6915 O.2       10 UNK        -0.5000 
     22 CA         -2.4831  -20.7009  -45.1097 C.3       10 UNK         0.1400 
     23 CB         -3.8750  -21.2460  -44.7532 C.3       10 UNK        -0.1800 
     24 N          -1.7364  -20.4324  -43.8840 N.am      10 UNK        -0.5000 
     25 C          -0.5726  -19.7739  -43.8273 C.2       9 UNK         0.5000 
     26 O           0.0275  -19.3449  -44.8141 O.2       9 UNK        -0.5000 
     27 CA         -0.0222  -19.4771  -42.4217 C.3       9 UNK         0.1400 
     28 CB          1.4684  -19.8358  -42.3081 C.3       9 UNK        -0.1800 
     29 N          -0.1954  -18.0604  -42.1070 N.am      9 UNK        -0.5000 
     30 C          -1.3665  -17.4668  -41.8401 C.2       8 UNK         0.5000 
     31 O          -2.4342  -18.0759  -41.7596 O.2       8 UNK        -0.5000 
     32 CA         -1.3162  -15.9453  -41.5986 C.3       8 UNK         0.1400 
     33 CB         -2.6774  -15.3546  -41.1914 C.3       8 UNK        -0.1800 
     34 N          -0.3310  -15.6384  -40.5625 N.am      8 UNK        -0.5000 
     35 C           0.9454  -15.3150  -40.7898 C.2       7 UNK         0.5000 
     36 O           1.4143  -15.1365  -41.9168 O.2       7 UNK        -0.5000 
     37 CA          1.8432  -15.2188  -39.5511 C.3       7 UNK         0.1400 
     38 CB          2.1616  -16.6227  -39.0025 C.3       7 UNK        -0.1800 
     39 N           3.0874  -14.5368  -39.8894 N.am      7 UNK        -0.5000 
     40 C           3.8591  -13.8726  -39.0207 C.2       6 UNK         0.5000 
     41 O           3.5722  -13.7308  -37.8309 O.2       6 UNK        -0.5000 
     42 CA          5.1843  -13.2836  -39.5429 C.3       6 UNK         0.1400 
     43 CB          6.3739  -14.1127  -39.0335 C.3       6 UNK        -0.1800 
     44 N           5.2635  -13.2127  -41.0010 N.am      6 UNK        -0.5000 
     45 C           4.6823  -12.2847  -41.7668 C.2       5 UNK         0.5000 
     46 O           3.9775  -11.3787  -41.3216 O.2       5 UNK        -0.5000 
     47 CA          4.9173  -12.3864  -43.2856 C.3       5 UNK         0.1400 
     48 CB          6.2687  -11.7696  -43.6903 C.3       5 UNK        -0.1800 
     49 N           4.7574  -13.7364  -43.8381 N.am      5 UNK        -0.5000 
     50 C           5.4911  -14.8436  -43.6552 C.2       4 UNK         0.5000 
     51 O           6.4776  -14.8996  -42.9200 O.2       4 UNK        -0.5000 
     52 CA          5.0444  -16.1059  -44.4124 C.3       4 UNK         0.1400 
     53 CB          4.0176  -16.8951  -43.5857 C.3       4 UNK        -0.1800 
     54 N           4.4533  -15.7788  -45.7118 N.am      4 UNK        -0.5000 
     55 C           4.9674  -16.1225  -46.9004 C.2       3 UNK         0.5000 
     56 O           6.0006  -16.7792  -47.0367 O.2       3 UNK        -0.5000 
     57 CA          4.2019  -15.6621  -48.1593 C.3       3 UNK         0.1400 
     58 CB          3.2531  -16.7704  -48.6404 C.3       3 UNK        -0.1800 
     59 N           3.4307  -14.4330  -47.9630 N.am      3 UNK        -0.5000 
     60 C           3.9605  -13.2214  -47.7464 C.2       2 UNK         0.5000 
     61 O           5.1702  -12.9932  -47.7706 O.2       2 UNK        -0.5000 
     62 CA          2.9832  -12.0693  -47.4269 C.3       2 UNK         0.1400 
     63 CB          2.7516  -11.2064  -48.6769 C.3       2 UNK        -0.1800 
     64 N           1.6774  -12.4624  -46.8757 N.am      2 UNK        -0.5000 
     65 C           1.4810  -13.1973  -45.7729 C.2       1 UNK         0.5000 
     66 O           2.3849  -13.7765  -45.1692 O.2       1 UNK        -0.5000 
     67 C          -1.7305  -23.1152  -48.8180 C.2       11 UNK         0.5000 
     68 O          -1.2535  -24.1901  -49.1806 O.2       11 UNK        -0.5000 
     69 N          -3.0485  -22.8692  -48.7541 N.am      12 UNK        -0.5000 
     70 CA         -4.1260  -23.8042  -49.0912 C.3       12 UNK         0.1400 
     71 CB         -5.4544  -23.0296  -49.1241 C.3       12 UNK        -0.1800 
     72 C          -4.2301  -25.0319  -48.1575 C.2       12 UNK         0.5000 
     73 O          -5.0113  -25.9392  -48.4441 O.2       12 UNK        -0.5000 
     74 N          -3.4575  -25.0559  -47.0612 N.am      13 UNK        -0.5000 
     75 CA         -3.2937  -26.2310  -46.2051 C.3       13 UNK         0.1400 
     76 CB         -2.7830  -25.7834  -44.8272 C.3       13 UNK        -0.1800 
     77 C          -2.3410  -27.2794  -46.8178 C.2       13 UNK         0.5000 
     78 O          -2.4136  -28.4465  -46.4306 O.2       13 UNK        -0.5000 
     79 N          -1.4664  -26.8544  -47.7417 N.am      14 UNK        -0.5000 
     80 CA         -0.4798  -27.6980  -48.4164 C.3       14 UNK         0.1400 
     81 CB          0.9264  -27.1322  -48.1577 C.3       14 UNK        -0.1800 
     82 C          -0.7638  -27.7830  -49.9242 C.2       14 UNK         0.5000 
     83 O          -0.7902  -28.8836  -50.4772 O.2       14 UNK        -0.5000 
     84 N          -0.9730  -26.6253  -50.5614 N.am      15 UNK        -0.5000 
     85 CA         -1.3333  -26.4943  -51.9709 C.3       15 UNK         0.1400 
     86 CB         -0.8399  -25.1229  -52.4661 C.3       15 UNK        -0.1800 
     87 C          -2.8549  -26.6189  -52.1654 C.2       15 UNK         0.5000 
     88 O          -3.6125  -26.5936  -51.1939 O.2       15 UNK        -0.5000 
     89 N          -3.2854  -26.7054  -53.4295 N.am      16 UNK        -0.5000 
     90 CA         -4.6858  -26.5364  -53.8215 C.3       16 UNK         0.1400 
     91 CB         -4.8447  -26.9561  -55.2909 C.3       16 UNK        -0.1800 
     92 C          -5.1223  -25.0710  -53.6385 C.2       16 UNK         0.5000 
     93 O          -4.2903  -24.1721  -53.7747 O.2       16 UNK        -0.5000 
     94 N          -6.4168  -24.8396  -53.3857 N.am      17 UNK        -0.5000 
     95 CA         -6.9867  -23.5047  -53.1618 C.3       17 UNK         0.1400 
     96 CB         -8.4646  -23.6392  -52.7699 C.3       17 UNK        -0.1800 
     97 C          -6.8292  -22.5463  -54.3599 C.2       17 UNK         0.5000 
     98 O          -6.6839  -21.3392  -54.1575 O.2       17 UNK        -0.5000 
     99 N          -6.8329  -23.1006  -55.5797 N.am      18 UNK        -0.5000 
    100 CA        -6.5882  -22.3706  -56.8238 C.3       18 UNK         0.1400 
    101 CB        -7.0688  -23.2193  -58.0104 C.3       18 UNK        -0.1800 
    102 C         -5.1078  -21.9834  -57.0007 C.2       18 UNK         0.5000 
    103 O         -4.8239  -20.8972  -57.5044 O.2       18 UNK        -0.5000 
    104 N         -4.1945  -22.8625  -56.5634 N.am      19 UNK        -0.5000 
    105 CA        -2.7458  -22.6417  -56.5880 C.3       19 UNK         0.1400 
    106 CB        -2.0211  -23.9900  -56.4553 C.3       19 UNK        -0.1800 
    107 C         -2.2997  -21.6641  -55.4864 C.2       19 UNK         0.5000 
    108 O         -1.4357  -20.8207  -55.7265 O.2       19 UNK        -0.5000 
    109 N         -2.9377  -21.7704  -54.3133 N.am      20 UNK        -0.5000 
    110 CA        -2.8159  -20.8482  -53.1843 C.3       20 UNK         0.1400 
    111 CB        -3.4890  -21.4971  -51.9665 C.3       20 UNK        -0.1800 
    112 C         -3.4330  -19.4612  -53.4635 C.2       20 UNK         0.5000 
    113 O         -3.0839  -18.5007  -52.7789 O.2       20 UNK        -0.5000 
    114 N         -4.3268  -19.3941  -54.4617 N.am      21 UNK        -0.5000 
    115 CA        -5.0655  -18.2239  -54.9421 C.3       21 UNK         0.1400 
    116 CB        -4.1072  -17.1416  -55.4822 C.3       21 UNK        -0.1800 
    117 C         -6.0850  -17.6855  -53.9171 C.2       21 UNK         0.5000 
    118 O         -6.3277  -16.4777  -53.8681 O.2       21 UNK        -0.5000 
    119 N         -6.6817  -18.5981  -53.1409 N.am      22 UNK        -0.5000 
    120 CA        -7.7541  -18.3182  -52.1701 C.3       22 UNK         0.1400 
    121 C         -9.1022  -19.0011  -52.5403 C.2       22 UNK         0.5000 
    122 N         -9.1602  -19.8829  -53.5314 N.am      22 UNK        -0.7600 
    123 O        -10.1259  -18.7077  -51.9289 O.2       22 UNK        -0.5000 
    124 C124       -7.3367  -18.6727  -50.7198 C.3       23 UNK        -0.0398 
    125 S125       -5.9163  -17.6864  -50.1350 S.3       23 UNK        -0.2404 
    126 C126       -5.1607  -18.8568  -48.9711 C.3       23 UNK        -0.0205 
    127 H127       -0.5917  -12.6703  -41.1925 H         1 UNK         0.0600 
    128 H128       -0.0670  -10.9878  -41.2788 H         1 UNK         0.0600 
    129 H129        1.1208  -12.2826  -41.4364 H         1 UNK         0.0600 
    130 H130        0.4350  -13.9580  -43.2833 H         1 UNK         0.3000 
    131 H131       -0.5762  -12.5703  -45.7252 H         1 UNK         0.0600 
    132 H132       -0.4341  -14.8462  -46.7751 H         1 UNK         0.0800 
    133 H133        0.0511  -15.5266  -45.2358 H         1 UNK         0.0800 
    134 H134       -1.5866  -17.1651  -44.7377 H         1 UNK         0.0800 
    135 H135       -3.3189  -17.0090  -44.6843 H         1 UNK         0.0800 
    136 H136       -4.6552  -17.6006  -46.5932 H         1 UNK         0.1150 
    137 H137       -2.7362  -18.9367  -50.1795 H         1 UNK         0.1150 
    138 H138       -0.3981  -17.2568  -47.0139 H         1 UNK         0.1150 
    139 H139       -0.4215  -18.3724  -50.5835 H         1 UNK         0.0800 
    140 H140        0.4534  -17.4100  -49.4256 H         1 UNK         0.0800 
    141 H141        0.2505  -21.7561  -50.2208 H         1 UNK         0.0800 
    142 H142       -1.1517  -20.7379  -50.0884 H         1 UNK         0.0800 
    143 H143        0.0793  -22.4715  -47.8884 H         1 UNK         0.0600 
    144 H144       -1.5714  -20.2109  -47.4712 H         1 UNK         0.3000 
    145 H145       -2.6250  -19.7536  -45.6232 H         1 UNK         0.0600 
    146 H146       -4.4356  -20.5306  -44.1510 H         1 UNK         0.0600 
    147 H147       -4.4606  -21.4410  -45.6528 H         1 UNK         0.0600 
    148 H148       -3.8120  -22.1804  -44.1938 H         1 UNK         0.0600 
    149 H149       -2.1696  -20.7316  -43.0226 H         1 UNK         0.3000 
    150 H150       -0.5700  -20.0708  -41.6866 H         1 UNK         0.0600 
    151 H151        2.0780  -19.2562  -43.0017 H         1 UNK         0.0600 
    152 H152        1.6323  -20.8909  -42.5303 H         1 UNK         0.0600 
    153 H153        1.8426  -19.6526  -41.3006 H         1 UNK         0.0600 
    154 H154        0.6279  -17.4798  -42.1843 H         1 UNK         0.3000 
    155 H155       -1.0280  -15.4820  -42.5429 H         1 UNK         0.0600 
    156 H156       -3.0452  -15.7886  -40.2609 H         1 UNK         0.0600 
    157 H157       -3.4276  -15.5376  -41.9619 H         1 UNK         0.0600 
    158 H158       -2.6125  -14.2750  -41.0559 H         1 UNK         0.0600 
    159 H159       -0.6304  -15.7984  -39.6108 H         1 UNK         0.3000 
    160 H160        1.3062  -14.6418  -38.7952 H         1 UNK         0.0600 
    161 H161        2.6999  -17.2255  -39.7352 H         1 UNK         0.0600 
    162 H162        1.2519  -17.1629  -38.7378 H         1 UNK         0.0600 
    163 H163        2.7741  -16.5669  -38.1025 H         1 UNK         0.0600 
    164 H164        3.3404  -14.5665  -40.8683 H         1 UNK         0.3000 
    165 H165        5.2746  -12.2730  -39.1390 H         1 UNK         0.0600 
    166 H166        6.3772  -14.1677  -37.9440 H         1 UNK         0.0600 
    167 H167        6.3431  -15.1343  -39.4146 H         1 UNK         0.0600 
    168 H168        7.3224  -13.6697  -39.3379 H         1 UNK         0.0600 
    169 H169        5.8255  -13.9182  -41.4711 H         1 UNK         0.3000 
    170 H170        4.1350  -11.7903  -43.7587 H         1 UNK         0.0600 
    171 H171        6.3338  -10.7305  -43.3654 H         1 UNK         0.0600 
    172 H172        7.1107  -12.3020  -43.2473 H         1 UNK         0.0600 
    173 H173        6.3963  -11.7811  -44.7729 H         1 UNK         0.0600 
    174 H174        3.9111  -13.8341  -44.3977 H         1 UNK         0.3000 
    175 H175        5.9295  -16.7331  -44.5367 H         1 UNK         0.0600 
    176 H176        3.8012  -17.8557  -44.0527 H         1 UNK         0.0600 
    177 H177        4.3861  -17.0962  -42.5789 H         1 UNK         0.0600 
    178 H178        3.0772  -16.3526  -43.4937 H         1 UNK         0.0600 
    179 H179        3.6181  -15.2033  -45.6935 H         1 UNK         0.3000 
    180 H180        4.9388  -15.4781  -48.9439 H         1 UNK         0.0600 
    181 H181        2.7687  -16.4949  -49.5772 H         1 UNK         0.0600 
    182 H182        2.4752  -16.9818  -47.9054 H         1 UNK         0.0600 
    183 H183        3.7945  -17.7004  -48.8188 H         1 UNK         0.0600 
    184 H184        2.4268  -14.5251  -47.9355 H         1 UNK         0.3000 
    185 H185        3.4712  -11.4478  -46.6732 H         1 UNK         0.0600 
    186 H186        2.1666  -10.3172  -48.4413 H         1 UNK         0.0600 
    187 H187        3.6977  -10.8661  -49.1004 H         1 UNK         0.0600 
    188 H188        2.2245  -11.7606  -49.4545 H         1 UNK         0.0600 
    189 H189        0.8742  -12.0450  -47.3240 H         1 UNK         0.3000 
    190 H190       -3.3390  -21.9683  -48.4061 H         1 UNK         0.3000 
    191 H191       -3.9313  -24.1836  -50.0958 H         1 UNK         0.0600 
    192 H192       -5.4240  -22.2181  -49.8500 H         1 UNK         0.0600 
    193 H193       -6.2812  -23.6812  -49.4102 H         1 UNK         0.0600 
    194 H194       -5.6945  -22.6023  -48.1498 H         1 UNK         0.0600 
    195 H195       -2.8586  -24.2656  -46.8590 H         1 UNK         0.3000 
    196 H196       -4.2674  -26.7054  -46.0650 H         1 UNK         0.0600 
    197 H197       -2.7425  -26.6255  -44.1352 H         1 UNK         0.0600 
    198 H198       -3.4368  -25.0305  -44.3865 H         1 UNK         0.0600 
    199 H199       -1.7786  -25.3629  -44.8874 H         1 UNK         0.0600 
    200 H200       -1.5034  -25.8859  -48.0368 H         1 UNK         0.3000 
    201 H201       -0.5075  -28.7158  -48.0219 H         1 UNK         0.0600 
    202 H202        1.6868  -27.7271  -48.6652 H         1 UNK         0.0600 
    203 H203        1.0215  -26.1044  -48.5105 H         1 UNK         0.0600 
    204 H204        1.1623  -27.1421  -47.0935 H         1 UNK         0.0600 
    205 H205       -0.9894  -25.7604  -50.0266 H         1 UNK         0.3000 
    206 H206       -0.8401  -27.2779  -52.5497 H         1 UNK         0.0600 
    207 H207        0.2270  -24.9963  -52.2817 H         1 UNK         0.0600 
    208 H208       -0.9966  -25.0084  -53.5384 H         1 UNK         0.0600 
    209 H209       -1.3638  -24.3040  -51.9717 H         1 UNK         0.0600 
    210 H210       -2.6082  -26.6967  -54.1773 H         1 UNK         0.3000 
    211 H211       -5.3109  -27.1773  -53.1963 H         1 UNK         0.0600 
    212 H212       -4.2389  -26.3393  -55.9563 H         1 UNK         0.0600 
    213 H213       -5.8824  -26.8672  -55.6148 H         1 UNK         0.0600 
    214 H214       -4.5491  -27.9952  -55.4372 H         1 UNK         0.0600 
    215 H215       -7.0506  -25.6214  -53.3010 H         1 UNK         0.3000 
    216 H216       -6.4564  -23.0592  -52.3183 H         1 UNK         0.0600 
    217 H217       -8.9036  -22.6633  -52.5586 H         1 UNK         0.0600 
    218 H218       -8.5806  -24.2451  -51.8711 H         1 UNK         0.0600 
    219 H219       -9.0525  -24.0996  -53.5649 H         1 UNK         0.0600 
    220 H220       -6.9771  -24.0966  -55.6534 H         1 UNK         0.3000 
    221 H221       -7.1743  -21.4489  -56.8051 H         1 UNK         0.0600 
    222 H222       -6.5322  -24.1669  -58.0735 H         1 UNK         0.0600 
    223 H223       -8.1333  -23.4407  -57.9306 H         1 UNK         0.0600 
    224 H224       -6.9174  -22.6925  -58.9535 H         1 UNK         0.0600 
    225 H225       -4.5130  -23.7016  -56.1023 H         1 UNK         0.3000 
    226 H226       -2.4758  -22.2053  -57.5521 H         1 UNK         0.0600 
    227 H227       -0.9390  -23.8550  -56.4731 H         1 UNK         0.0600 
    228 H228       -2.2735  -24.4947  -55.5233 H         1 UNK         0.0600 
    229 H229       -2.2792  -24.6576  -57.2774 H         1 UNK         0.0600 
    230 H230       -3.5683  -22.5590  -54.1814 H         1 UNK         0.3000 
    231 H231       -1.7554  -20.7074  -52.9659 H         1 UNK         0.0600 
    232 H232       -4.5546  -21.6470  -52.1366 H         1 UNK         0.0600 
    233 H233       -3.3870  -20.8795  -51.0769 H         1 UNK         0.0600 
    234 H234       -3.0465  -22.4674  -51.7428 H         1 UNK         0.0600 
    235 H235       -4.5542  -20.2616  -54.9266 H         1 UNK         0.3000 
    236 H236       -5.6579  -18.5790  -55.7866 H         1 UNK         0.0600 
    237 H237       -3.4067  -17.5615  -56.2043 H         1 UNK         0.0600 
    238 H238       -4.6588  -16.3496  -55.9897 H         1 UNK         0.0600 
    239 H239       -3.5290  -16.6757  -54.6839 H         1 UNK         0.0600 
    240 H240       -6.4535  -19.5754  -53.2887 H         1 UNK         0.3000 
    241 H241       -7.9802  -17.2506  -52.1827 H         1 UNK         0.0600 
    242 H242       -8.3197  -20.1813  -54.0095 H         1 UNK         0.3800 
    243 H243      -10.0471  -20.2975  -53.7688 H         1 UNK         0.3800 
    244 H244       -8.1604  -18.4979  -50.0254 H         1 UNK         0.0800 
    245 H245       -7.0990  -19.7357  -50.6528 H         1 UNK         0.0800 
    246 H246       -4.9993  -19.8117  -49.4717 H         1 UNK         0.0800 
    247 H247       -5.8542  -19.0501  -48.1511 H         1 UNK         0.0800 
@<TRIPOS>BOND
     1    1    2 1    
     2    1  127 1    
     3    1  128 1    
     4    1  129 1    
     5    2    3 2    
     6    2    4 am   BACKBONE|DICT|INTERRES
     7    4    5 1    
     8    4  130 1    
     9    5    6 1    
    10    5   65 1    
    11    5  131 1    
    12    6    7 1    
    13    6  132 1    
    14    6  133 1    
    15    7    8 1    
    16    8    9 1    
    17    8  134 1    
    18    8  135 1    
    19    9   10 ar   
    20    9   14 ar   
    21   10   11 ar   
    22   10  136 1    
    23   11   12 ar   
    24   11  126 1    
    25   12   13 ar   
    26   12  137 1    
    27   13   14 ar   
    28   13   15 1    
    29   14  138 1    
    30   15   16 1    
    31   15  139 1    
    32   15  140 1    
    33   16   17 1    
    34   17   18 1    
    35   17  141 1    
    36   17  142 1    
    37   18   19 1    
    38   18   67 1    
    39   18  143 1    
    40   19   20 am   BACKBONE|DICT|INTERRES
    41   19  144 1    
    42   20   21 2    
    43   20   22 1    
    44   22   23 1    
    45   22   24 1    
    46   22  145 1    
    47   23  146 1    
    48   23  147 1    
    49   23  148 1    
    50   24   25 am   BACKBONE|DICT|INTERRES
    51   24  149 1    
    52   25   26 2    
    53   25   27 1    
    54   27   28 1    
    55   27   29 1    
    56   27  150 1    
    57   28  151 1    
    58   28  152 1    
    59   28  153 1    
    60   29   30 am   BACKBONE|DICT|INTERRES
    61   29  154 1    
    62   30   31 2    
    63   30   32 1    
    64   32   33 1    
    65   32   34 1    
    66   32  155 1    
    67   33  156 1    
    68   33  157 1    
    69   33  158 1    
    70   34   35 am   BACKBONE|DICT|INTERRES
    71   34  159 1    
    72   35   36 2    
    73   35   37 1    
    74   37   38 1    
    75   37   39 1    
    76   37  160 1    
    77   38  161 1    
    78   38  162 1    
    79   38  163 1    
    80   39   40 am   BACKBONE|DICT|INTERRES
    81   39  164 1    
    82   40   41 2    
    83   40   42 1    
    84   42   43 1    
    85   42   44 1    
    86   42  165 1    
    87   43  166 1    
    88   43  167 1    
    89   43  168 1    
    90   44   45 am   BACKBONE|DICT|INTERRES
    91   44  169 1    
    92   45   46 2    
    93   45   47 1    
    94   47   48 1    
    95   47   49 1    
    96   47  170 1    
    97   48  171 1    
    98   48  172 1    
    99   48  173 1    
   100   49   50 am   BACKBONE|DICT|INTERRES
   101   49  174 1    
   102   50   51 2    
   103   50   52 1    
   104   52   53 1    
   105   52   54 1    
   106   52  175 1    
   107   53  176 1    
   108   53  177 1    
   109   53  178 1    
   110   54   55 am   BACKBONE|DICT|INTERRES
   111   54  179 1    
   112   55   56 2    
   113   55   57 1    
   114   57   58 1    
   115   57   59 1    
   116   57  180 1    
   117   58  181 1    
   118   58  182 1    
   119   58  183 1    
   120   59   60 am   BACKBONE|DICT|INTERRES
   121   59  184 1    
   122   60   61 2    
   123   60   62 1    
   124   62   63 1    
   125   62   64 1    
   126   62  185 1    
   127   63  186 1    
   128   63  187 1    
   129   63  188 1    
   130   64   65 am   BACKBONE|DICT|INTERRES
   131   64  189 1    
   132   65   66 2    
   133   67   68 2    
   134   67   69 am   BACKBONE|DICT|INTERRES
   135   69   70 1    
   136   69  190 1    
   137   70   71 1    
   138   70   72 1    
   139   70  191 1    
   140   71  192 1    
   141   71  193 1    
   142   71  194 1    
   143   72   73 2    
   144   72   74 am   BACKBONE|DICT|INTERRES
   145   74   75 1    
   146   74  195 1    
   147   75   76 1    
   148   75   77 1    
   149   75  196 1    
   150   76  197 1    
   151   76  198 1    
   152   76  199 1    
   153   77   78 2    
   154   77   79 am   BACKBONE|DICT|INTERRES
   155   79   80 1    
   156   79  200 1    
   157   80   81 1    
   158   80   82 1    
   159   80  201 1    
   160   81  202 1    
   161   81  203 1    
   162   81  204 1    
   163   82   83 2    
   164   82   84 am   BACKBONE|DICT|INTERRES
   165   84   85 1    
   166   84  205 1    
   167   85   86 1    
   168   85   87 1    
   169   85  206 1    
   170   86  207 1    
   171   86  208 1    
   172   86  209 1    
   173   87   88 2    
   174   87   89 am   BACKBONE|DICT|INTERRES
   175   89   90 1    
   176   89  210 1    
   177   90   91 1    
   178   90   92 1    
   179   90  211 1    
   180   91  212 1    
   181   91  213 1    
   182   91  214 1    
   183   92   93 2    
   184   92   94 am   BACKBONE|DICT|INTERRES
   185   94   95 1    
   186   94  215 1    
   187   95   96 1    
   188   95   97 1    
   189   95  216 1    
   190   96  217 1    
   191   96  218 1    
   192   96  219 1    
   193   97   98 2    
   194   97   99 am   BACKBONE|DICT|INTERRES
   195   99  100 1    
   196   99  220 1    
   197  100  101 1    
   198  100  102 1    
   199  100  221 1    
   200  101  222 1    
   201  101  223 1    
   202  101  224 1    
   203  102  103 2    
   204  102  104 am   BACKBONE|DICT|INTERRES
   205  104  105 1    
   206  104  225 1    
   207  105  106 1    
   208  105  107 1    
   209  105  226 1    
   210  106  227 1    
   211  106  228 1    
   212  106  229 1    
   213  107  108 2    
   214  107  109 am   BACKBONE|DICT|INTERRES
   215  109  110 1    
   216  109  230 1    
   217  110  111 1    
   218  110  112 1    
   219  110  231 1    
   220  111  232 1    
   221  111  233 1    
   222  111  234 1    
   223  112  113 2    
   224  112  114 am   BACKBONE|DICT|INTERRES
   225  114  115 1    
   226  114  235 1    
   227  115  116 1    
   228  115  117 1    
   229  115  236 1    
   230  116  237 1    
   231  116  238 1    
   232  116  239 1    
   233  117  118 2    
   234  117  119 am   BACKBONE|DICT|INTERRES
   235  119  120 1    
   236  119  240 1    
   237  120  121 1    
   238  120  124 1    
   239  120  241 1    
   240  121  122 am   BACKBONE|DICT|INTERRES
   241  121  123 2    
   242  122  242 1    
   243  122  243 1    
   244  124  125 1    
   245  124  244 1    
   246  124  245 1    
   247  125  126 1    
   248  126  246 1    
   249  126  247 1    
@<TRIPOS>SUBSTRUCTURE
     1 UNK         1 GROUP             0       ****    0 ROOT    
