@<TRIPOS>MOLECULE
3R540
247   249    1
SMALL
USER_CHARGES


@<TRIPOS>ATOM
      1 CA          0.6732  -16.4935  -47.5923 C.3       0 UNK        -0.1800 
      2 C           0.7906  -15.1765  -46.8475 C.2       0 UNK         0.5000 
      3 O           1.8550  -14.8643  -46.3140 O.2       0 UNK        -0.5000 
      4 N          -0.2977  -14.3952  -46.8018 N.am      1 UNK        -0.5000 
      5 CA         -0.3719  -13.1188  -46.0762 C.3       1 UNK         0.1400 
      6 C6         -1.8238  -12.5889  -45.9487 C.3       23 UNK        -0.0398 
      7 S7         -2.5766  -11.9876  -47.5042 S.3       23 UNK        -0.2404 
      8 C8         -3.9000  -13.2028  -47.8087 C.3       23 UNK        -0.0205 
      9 C9         -3.3624  -14.5484  -48.2731 C.ar      23 UNK        -0.0193 
     10 C10        -2.5773  -14.6285  -49.4269 C.ar      23 UNK        -0.1150 
     11 C11        -2.0837  -15.8578  -49.8682 C.ar      23 UNK        -0.0193 
     12 C12        -2.3898  -17.0157  -49.1480 C.ar      23 UNK        -0.1150 
     13 C13        -3.1937  -16.9556  -48.0058 C.ar      23 UNK        -0.0193 
     14 C14        -3.6698  -15.7159  -47.5680 C.ar      23 UNK        -0.1150 
     15 C15        -3.5396  -18.2269  -47.2435 C.3       23 UNK        -0.0205 
     16 S16        -4.5313  -19.3706  -48.2573 S.3       23 UNK        -0.2404 
     17 C17        -4.9068  -20.6850  -47.0510 C.3       23 UNK        -0.0398 
     18 CA         -3.9591  -21.9033  -47.1846 C.3       11 UNK         0.1400 
     19 N          -2.5863  -21.5507  -46.8333 N.am      11 UNK        -0.5000 
     20 C          -1.4881  -21.9232  -47.4995 C.2       10 UNK         0.5000 
     21 O          -1.5027  -22.6264  -48.5116 O.2       10 UNK        -0.5000 
     22 CA         -0.1406  -21.4225  -46.9316 C.3       10 UNK         0.1400 
     23 CB          0.3113  -20.1565  -47.6713 C.3       10 UNK        -0.1800 
     24 N          -0.1681  -21.1501  -45.4908 N.am      10 UNK        -0.5000 
     25 C          -0.4186  -22.0732  -44.5516 C.2       9 UNK         0.5000 
     26 O          -0.6394  -23.2590  -44.8044 O.2       9 UNK        -0.5000 
     27 CA         -0.5050  -21.5874  -43.0937 C.3       9 UNK         0.1400 
     28 CB          0.8926  -21.5536  -42.4594 C.3       9 UNK        -0.1800 
     29 N          -1.1437  -20.2791  -42.9214 N.am      9 UNK        -0.5000 
     30 C          -2.3503  -19.9058  -43.3676 C.2       8 UNK         0.5000 
     31 O          -3.0628  -20.6185  -44.0713 O.2       8 UNK        -0.5000 
     32 CA         -2.8424  -18.4904  -43.0087 C.3       8 UNK         0.1400 
     33 CB         -3.4053  -18.4376  -41.5762 C.3       8 UNK        -0.1800 
     34 N          -1.8449  -17.4423  -43.2530 N.am      8 UNK        -0.5000 
     35 C          -0.6756  -17.2429  -42.6317 C.2       7 UNK         0.5000 
     36 O          -0.2946  -17.8693  -41.6399 O.2       7 UNK        -0.5000 
     37 CA          0.2536  -16.2043  -43.2787 C.3       7 UNK         0.1400 
     38 CB          0.3171  -14.9257  -42.4327 C.3       7 UNK        -0.1800 
     39 N           1.6036  -16.7327  -43.4876 N.am      7 UNK        -0.5000 
     40 C           1.9053  -17.8326  -44.1989 C.2       6 UNK         0.5000 
     41 O           1.0611  -18.5186  -44.7807 O.2       6 UNK        -0.5000 
     42 CA          3.3906  -18.2376  -44.2858 C.3       6 UNK         0.1400 
     43 CB          3.7799  -18.6717  -45.7090 C.3       6 UNK        -0.1800 
     44 N           4.2801  -17.1509  -43.8750 N.am      6 UNK        -0.5000 
     45 C           5.0517  -17.1453  -42.7803 C.2       5 UNK         0.5000 
     46 O           5.1060  -18.0732  -41.9727 O.2       5 UNK        -0.5000 
     47 CA          5.9080  -15.8846  -42.5422 C.3       5 UNK         0.1400 
     48 CB          7.3476  -16.1155  -43.0262 C.3       5 UNK        -0.1800 
     49 N           5.3776  -14.6879  -43.1993 N.am      5 UNK        -0.5000 
     50 C           4.2425  -14.0618  -42.8689 C.2       4 UNK         0.5000 
     51 O           3.5194  -14.4219  -41.9410 O.2       4 UNK        -0.5000 
     52 CA          3.8116  -12.8718  -43.7457 C.3       4 UNK         0.1400 
     53 CB          4.4924  -11.5648  -43.2993 C.3       4 UNK        -0.1800 
     54 N           3.9692  -13.1057  -45.1865 N.am      4 UNK        -0.5000 
     55 C           5.0858  -13.2045  -45.9233 C.2       3 UNK         0.5000 
     56 O           6.2246  -13.1457  -45.4589 O.2       3 UNK        -0.5000 
     57 CA          4.8966  -13.4344  -47.4337 C.3       3 UNK         0.1400 
     58 CB          5.0091  -14.9311  -47.7661 C.3       3 UNK        -0.1800 
     59 N           3.6062  -12.9293  -47.9080 N.am      3 UNK        -0.5000 
     60 C           3.3618  -11.6478  -48.2192 C.2       2 UNK         0.5000 
     61 O           4.2237  -10.7682  -48.2148 O.2       2 UNK        -0.5000 
     62 CA          1.9111  -11.2813  -48.5902 C.3       2 UNK         0.1400 
     63 CB          1.7004  -11.3859  -50.1084 C.3       2 UNK        -0.1800 
     64 N           0.9218  -12.1218  -47.9163 N.am      2 UNK        -0.5000 
     65 C           0.6104  -12.0513  -46.6137 C.2       1 UNK         0.5000 
     66 O           1.0931  -11.2258  -45.8383 O.2       1 UNK        -0.5000 
     67 C          -4.4555  -23.0564  -46.2925 C.2       11 UNK         0.5000 
     68 O          -5.0883  -23.9837  -46.7944 O.2       11 UNK        -0.5000 
     69 N          -4.1858  -22.9674  -44.9844 N.am      12 UNK        -0.5000 
     70 CA         -4.7230  -23.8624  -43.9633 C.3       12 UNK         0.1400 
     71 CB         -4.6838  -23.1451  -42.6044 C.3       12 UNK        -0.1800 
     72 C          -3.9910  -25.2105  -43.8737 C.2       12 UNK         0.5000 
     73 O          -4.6475  -26.2308  -43.6610 O.2       12 UNK        -0.5000 
     74 N          -2.6579  -25.1935  -44.0026 N.am      13 UNK        -0.5000 
     75 CA         -1.8040  -26.3648  -43.8067 C.3       13 UNK         0.1400 
     76 CB         -0.6825  -26.0255  -42.8097 C.3       13 UNK        -0.1800 
     77 C          -1.2259  -26.8601  -45.1376 C.2       13 UNK         0.5000 
     78 O          -1.3247  -28.0525  -45.4303 O.2       13 UNK        -0.5000 
     79 N          -0.6332  -25.9482  -45.9217 N.am      14 UNK        -0.5000 
     80 CA          0.0159  -26.2832  -47.1927 C.3       14 UNK         0.1400 
     81 CB          1.0195  -25.1841  -47.5655 C.3       14 UNK        -0.1800 
     82 C          -0.9846  -26.5049  -48.3412 C.2       14 UNK         0.5000 
     83 O          -0.6580  -27.2192  -49.2889 O.2       14 UNK        -0.5000 
     84 N          -2.1647  -25.8731  -48.2496 N.am      15 UNK        -0.5000 
     85 CA         -3.3180  -25.9118  -49.1632 C.3       15 UNK         0.1400 
     86 CB         -3.8935  -27.3364  -49.2615 C.3       15 UNK        -0.1800 
     87 C          -3.0937  -25.3157  -50.5683 C.2       15 UNK         0.5000 
     88 O          -4.0525  -24.8309  -51.1700 O.2       15 UNK        -0.5000 
     89 N          -1.8552  -25.3474  -51.0721 N.am      16 UNK        -0.5000 
     90 CA         -1.4557  -24.9301  -52.4155 C.3       16 UNK         0.1400 
     91 CB          0.0574  -25.1392  -52.5756 C.3       16 UNK        -0.1800 
     92 C          -1.8417  -23.4847  -52.7733 C.2       16 UNK         0.5000 
     93 O          -2.2783  -23.2415  -53.8978 O.2       16 UNK        -0.5000 
     94 N          -1.7129  -22.5597  -51.8121 N.am      17 UNK        -0.5000 
     95 CA         -2.0455  -21.1498  -52.0168 C.3       17 UNK         0.1400 
     96 CB         -1.3308  -20.2946  -50.9676 C.3       17 UNK        -0.1800 
     97 C          -3.5605  -20.8851  -52.0044 C.2       17 UNK         0.5000 
     98 O          -4.0004  -19.9179  -52.6236 O.2       17 UNK        -0.5000 
     99 N          -4.3402  -21.7471  -51.3358 N.am      18 UNK        -0.5000 
    100 CA        -5.8028  -21.7240  -51.3974 C.3       18 UNK         0.1400 
    101 CB        -6.4017  -22.4894  -50.2078 C.3       18 UNK        -0.1800 
    102 C         -6.3069  -22.3081  -52.7260 C.2       18 UNK         0.5000 
    103 O         -7.2378  -21.7619  -53.3186 O.2       18 UNK        -0.5000 
    104 N         -5.6670  -23.3982  -53.1727 N.am      19 UNK        -0.5000 
    105 CA        -5.9496  -24.0743  -54.4366 C.3       19 UNK         0.1400 
    106 CB        -5.1790  -25.4026  -54.4860 C.3       19 UNK        -0.1800 
    107 C         -5.6281  -23.2069  -55.6676 C.2       19 UNK         0.5000 
    108 O         -6.4002  -23.2175  -56.6276 O.2       19 UNK        -0.5000 
    109 N         -4.5131  -22.4672  -55.6176 N.am      20 UNK        -0.5000 
    110 CA        -4.0522  -21.5975  -56.6920 C.3       20 UNK         0.1400 
    111 CB        -3.2235  -22.4219  -57.6965 C.3       20 UNK        -0.1800 
    112 C         -3.2459  -20.4217  -56.1045 C.2       20 UNK         0.5000 
    113 O         -2.0398  -20.5663  -55.9089 O.2       20 UNK        -0.5000 
    114 N         -3.8476  -19.2598  -55.8183 N.am      21 UNK        -0.5000 
    115 CA        -5.2740  -18.9207  -55.8751 C.3       21 UNK         0.1400 
    116 CB        -5.6482  -18.4990  -57.3128 C.3       21 UNK        -0.1800 
    117 C         -5.6208  -17.7883  -54.8805 C.2       21 UNK         0.5000 
    118 O         -6.7315  -17.2579  -54.9337 O.2       21 UNK        -0.5000 
    119 N         -4.6621  -17.3950  -54.0329 N.am      22 UNK        -0.5000 
    120 CA        -4.7519  -16.2649  -53.0948 C.3       22 UNK         0.1400 
    121 C         -5.3997  -16.6103  -51.7246 C.2       22 UNK         0.5000 
    122 N         -5.4614  -17.8724  -51.3245 N.am      22 UNK        -0.7600 
    123 O         -5.8761  -15.7177  -51.0289 O.2       22 UNK        -0.5000 
    124 C124       -3.3737  -15.5706  -52.9250 C.3       23 UNK        -0.0398 
    125 S125       -2.0148  -16.7282  -52.5193 S.3       23 UNK        -0.2404 
    126 C126       -1.1988  -15.9256  -51.1047 C.3       23 UNK        -0.0205 
    127 H127        0.6854  -16.3258  -48.6678 H         1 UNK         0.0600 
    128 H128       -0.2501  -17.0019  -47.3194 H         1 UNK         0.0600 
    129 H129        1.5030  -17.1524  -47.3408 H         1 UNK         0.0600 
    130 H130       -1.1405  -14.6795  -47.2839 H         1 UNK         0.3000 
    131 H131       -0.0372  -13.3357  -45.0600 H         1 UNK         0.0600 
    132 H132       -2.4582  -13.3614  -45.5121 H         1 UNK         0.0800 
    133 H133       -1.8472  -11.7634  -45.2353 H         1 UNK         0.0800 
    134 H134       -4.5103  -13.3078  -46.9103 H         1 UNK         0.0800 
    135 H135       -4.5617  -12.8113  -48.5824 H         1 UNK         0.0800 
    136 H136       -2.3478  -13.7272  -49.9781 H         1 UNK         0.1150 
    137 H137       -2.0124  -17.9700  -49.4801 H         1 UNK         0.1150 
    138 H138       -4.2905  -15.6609  -46.6848 H         1 UNK         0.1150 
    139 H139       -2.6198  -18.7181  -46.9276 H         1 UNK         0.0800 
    140 H140       -4.0925  -17.9871  -46.3343 H         1 UNK         0.0800 
    141 H141       -5.9436  -20.9838  -47.2128 H         1 UNK         0.0800 
    142 H142       -4.8771  -20.2724  -46.0414 H         1 UNK         0.0800 
    143 H143       -3.9946  -22.2528  -48.2186 H         1 UNK         0.0600 
    144 H144       -2.4730  -21.0186  -45.9793 H         1 UNK         0.3000 
    145 H145        0.6101  -22.1938  -47.1003 H         1 UNK         0.0600 
    146 H146        0.4935  -20.3669  -48.7238 H         1 UNK         0.0600 
    147 H147        1.2412  -19.7656  -47.2620 H         1 UNK         0.0600 
    148 H148       -0.4373  -19.3673  -47.6148 H         1 UNK         0.0600 
    149 H149        0.0450  -20.2001  -45.1993 H         1 UNK         0.3000 
    150 H150       -1.1092  -22.3139  -42.5471 H         1 UNK         0.0600 
    151 H151        1.5333  -20.8136  -42.9402 H         1 UNK         0.0600 
    152 H152        1.3857  -22.5229  -42.5454 H         1 UNK         0.0600 
    153 H153        0.8383  -21.3102  -41.3982 H         1 UNK         0.0600 
    154 H154       -0.6319  -19.5929  -42.3737 H         1 UNK         0.3000 
    155 H155       -3.6688  -18.2697  -43.6863 H         1 UNK         0.0600 
    156 H156       -2.6547  -18.6912  -40.8275 H         1 UNK         0.0600 
    157 H157       -4.2284  -19.1438  -41.4592 H         1 UNK         0.0600 
    158 H158       -3.7921  -17.4460  -41.3414 H         1 UNK         0.0600 
    159 H159       -2.0342  -16.8767  -44.0678 H         1 UNK         0.3000 
    160 H160       -0.1492  -15.9423  -44.2571 H         1 UNK         0.0600 
    161 H161        0.7635  -15.1130  -41.4552 H         1 UNK         0.0600 
    162 H162       -0.6797  -14.5152  -42.2667 H         1 UNK         0.0600 
    163 H163        0.9055  -14.1549  -42.9282 H         1 UNK         0.0600 
    164 H164        2.3508  -16.2516  -43.0072 H         1 UNK         0.3000 
    165 H165        3.5133  -19.1001  -43.6282 H         1 UNK         0.0600 
    166 H166        4.8339  -18.9447  -45.7616 H         1 UNK         0.0600 
    167 H167        3.2088  -19.5454  -46.0229 H         1 UNK         0.0600 
    168 H168        3.6043  -17.8779  -46.4352 H         1 UNK         0.0600 
    169 H169        4.2893  -16.3340  -44.4687 H         1 UNK         0.3000 
    170 H170        5.9312  -15.6999  -41.4663 H         1 UNK         0.0600 
    171 H171        7.9825  -15.2594  -42.7975 H         1 UNK         0.0600 
    172 H172        7.3869  -16.2842  -44.1032 H         1 UNK         0.0600 
    173 H173        7.7896  -16.9862  -42.5400 H         1 UNK         0.0600 
    174 H174        5.9135  -14.3038  -43.9727 H         1 UNK         0.3000 
    175 H175        2.7394  -12.7424  -43.5931 H         1 UNK         0.0600 
    176 H176        4.2612  -11.3452  -42.2563 H         1 UNK         0.0600 
    177 H177        5.5779  -11.6157  -43.3864 H         1 UNK         0.0600 
    178 H178        4.1464  -10.7193  -43.8941 H         1 UNK         0.0600 
    179 H179        3.1004  -13.2881  -45.6751 H         1 UNK         0.3000 
    180 H180        5.7011  -12.9106  -47.9542 H         1 UNK         0.0600 
    181 H181        4.2431  -15.5197  -47.2611 H         1 UNK         0.0600 
    182 H182        5.9785  -15.3264  -47.4599 H         1 UNK         0.0600 
    183 H183        4.9122  -15.1049  -48.8378 H         1 UNK         0.0600 
    184 H184        2.8355  -13.5830  -47.8896 H         1 UNK         0.3000 
    185 H185        1.7428  -10.2443  -48.2918 H         1 UNK         0.0600 
    186 H186        2.4055  -10.7498  -50.6450 H         1 UNK         0.0600 
    187 H187        1.8410  -12.4068  -50.4660 H         1 UNK         0.0600 
    188 H188        0.6968  -11.0664  -50.3899 H         1 UNK         0.0600 
    189 H189        0.4638  -12.8255  -48.4762 H         1 UNK         0.3000 
    190 H190       -3.6915  -22.1456  -44.6414 H         1 UNK         0.3000 
    191 H191       -5.7690  -24.0686  -44.2015 H         1 UNK         0.0600 
    192 H192       -5.2600  -22.2200  -42.6305 H         1 UNK         0.0600 
    193 H193       -5.1086  -23.7709  -41.8185 H         1 UNK         0.0600 
    194 H194       -3.6640  -22.8941  -42.3101 H         1 UNK         0.0600 
    195 H195       -2.1855  -24.3252  -44.2299 H         1 UNK         0.3000 
    196 H196       -2.3764  -27.1887  -43.3753 H         1 UNK         0.0600 
    197 H197       -0.0522  -26.8960  -42.6240 H         1 UNK         0.0600 
    198 H198       -1.0935  -25.7122  -41.8499 H         1 UNK         0.0600 
    199 H199       -0.0352  -25.2266  -43.1709 H         1 UNK         0.0600 
    200 H200       -0.5744  -24.9843  -45.6036 H         1 UNK         0.3000 
    201 H201        0.5766  -27.2108  -47.0578 H         1 UNK         0.0600 
    202 H202        1.6488  -25.5027  -48.3973 H         1 UNK         0.0600 
    203 H203        1.6779  -24.9397  -46.7316 H         1 UNK         0.0600 
    204 H204        0.5119  -24.2750  -47.8789 H         1 UNK         0.0600 
    205 H205       -2.2888  -25.2792  -47.4428 H         1 UNK         0.3000 
    206 H206       -4.0817  -25.2886  -48.7023 H         1 UNK         0.0600 
    207 H207       -4.1370  -27.7309  -48.2750 H         1 UNK         0.0600 
    208 H208       -4.8115  -27.3452  -49.8505 H         1 UNK         0.0600 
    209 H209       -3.1959  -28.0262  -49.7371 H         1 UNK         0.0600 
    210 H210       -1.1549  -25.8298  -50.5188 H         1 UNK         0.3000 
    211 H211       -1.9662  -25.5880  -53.1214 H         1 UNK         0.0600 
    212 H212        0.6233  -24.5413  -51.8600 H         1 UNK         0.0600 
    213 H213        0.3881  -24.8566  -53.5760 H         1 UNK         0.0600 
    214 H214        0.3288  -26.1846  -52.4273 H         1 UNK         0.0600 
    215 H215       -1.3956  -22.8332  -50.8902 H         1 UNK         0.3000 
    216 H216       -1.6686  -20.8483  -52.9969 H         1 UNK         0.0600 
    217 H217       -1.3900  -19.2420  -51.2358 H         1 UNK         0.0600 
    218 H218       -0.2736  -20.5498  -50.9048 H         1 UNK         0.0600 
    219 H219       -1.7776  -20.4071  -49.9806 H         1 UNK         0.0600 
    220 H220       -3.9121  -22.5515  -50.8990 H         1 UNK         0.3000 
    221 H221       -6.1455  -20.6895  -51.3332 H         1 UNK         0.0600 
    222 H222       -6.0688  -23.5261  -50.1718 H         1 UNK         0.0600 
    223 H223       -6.1341  -22.0186  -49.2661 H         1 UNK         0.0600 
    224 H224       -7.4910  -22.4988  -50.2613 H         1 UNK         0.0600 
    225 H225       -4.9498  -23.8124  -52.5849 H         1 UNK         0.3000 
    226 H226       -7.0175  -24.3014  -54.4599 H         1 UNK         0.0600 
    227 H227       -5.4092  -25.9531  -55.3989 H         1 UNK         0.0600 
    228 H228       -4.1009  -25.2442  -54.4618 H         1 UNK         0.0600 
    229 H229       -5.4415  -26.0429  -53.6436 H         1 UNK         0.0600 
    230 H230       -3.8886  -22.5538  -54.8199 H         1 UNK         0.3000 
    231 H231       -4.9118  -21.2076  -57.2332 H         1 UNK         0.0600 
    232 H232       -2.3834  -22.9209  -57.2115 H         1 UNK         0.0600 
    233 H233       -2.8203  -21.7856  -58.4851 H         1 UNK         0.0600 
    234 H234       -3.8324  -23.1876  -58.1772 H         1 UNK         0.0600 
    235 H235       -3.2596  -18.5067  -55.4950 H         1 UNK         0.3000 
    236 H236       -5.8653  -19.7894  -55.5789 H         1 UNK         0.0600 
    237 H237       -5.3689  -19.2388  -58.0604 H         1 UNK         0.0600 
    238 H238       -6.7237  -18.3436  -57.4057 H         1 UNK         0.0600 
    239 H239       -5.1599  -17.5633  -57.5882 H         1 UNK         0.0600 
    240 H240       -3.8420  -17.9740  -53.9194 H         1 UNK         0.3000 
    241 H241       -5.4142  -15.5206  -53.5412 H         1 UNK         0.0600 
    242 H242       -5.8482  -18.0846  -50.4198 H         1 UNK         0.3800 
    243 H243       -5.0075  -18.6012  -51.8703 H         1 UNK         0.3800 
    244 H244       -3.4306  -14.7731  -52.1829 H         1 UNK         0.0800 
    245 H245       -3.1070  -15.0758  -53.8595 H         1 UNK         0.0800 
    246 H246       -0.8660  -14.9298  -51.4017 H         1 UNK         0.0800 
    247 H247       -0.2963  -16.4888  -50.8656 H         1 UNK         0.0800 
@<TRIPOS>BOND
     1    1    2 1    
     2    1  127 1    
     3    1  128 1    
     4    1  129 1    
     5    2    3 2    
     6    2    4 am   BACKBONE|DICT|INTERRES
     7    4    5 1    
     8    4  130 1    
     9    5    6 1    
    10    5   65 1    
    11    5  131 1    
    12    6    7 1    
    13    6  132 1    
    14    6  133 1    
    15    7    8 1    
    16    8    9 1    
    17    8  134 1    
    18    8  135 1    
    19    9   10 ar   
    20    9   14 ar   
    21   10   11 ar   
    22   10  136 1    
    23   11   12 ar   
    24   11  126 1    
    25   12   13 ar   
    26   12  137 1    
    27   13   14 ar   
    28   13   15 1    
    29   14  138 1    
    30   15   16 1    
    31   15  139 1    
    32   15  140 1    
    33   16   17 1    
    34   17   18 1    
    35   17  141 1    
    36   17  142 1    
    37   18   19 1    
    38   18   67 1    
    39   18  143 1    
    40   19   20 am   BACKBONE|DICT|INTERRES
    41   19  144 1    
    42   20   21 2    
    43   20   22 1    
    44   22   23 1    
    45   22   24 1    
    46   22  145 1    
    47   23  146 1    
    48   23  147 1    
    49   23  148 1    
    50   24   25 am   BACKBONE|DICT|INTERRES
    51   24  149 1    
    52   25   26 2    
    53   25   27 1    
    54   27   28 1    
    55   27   29 1    
    56   27  150 1    
    57   28  151 1    
    58   28  152 1    
    59   28  153 1    
    60   29   30 am   BACKBONE|DICT|INTERRES
    61   29  154 1    
    62   30   31 2    
    63   30   32 1    
    64   32   33 1    
    65   32   34 1    
    66   32  155 1    
    67   33  156 1    
    68   33  157 1    
    69   33  158 1    
    70   34   35 am   BACKBONE|DICT|INTERRES
    71   34  159 1    
    72   35   36 2    
    73   35   37 1    
    74   37   38 1    
    75   37   39 1    
    76   37  160 1    
    77   38  161 1    
    78   38  162 1    
    79   38  163 1    
    80   39   40 am   BACKBONE|DICT|INTERRES
    81   39  164 1    
    82   40   41 2    
    83   40   42 1    
    84   42   43 1    
    85   42   44 1    
    86   42  165 1    
    87   43  166 1    
    88   43  167 1    
    89   43  168 1    
    90   44   45 am   BACKBONE|DICT|INTERRES
    91   44  169 1    
    92   45   46 2    
    93   45   47 1    
    94   47   48 1    
    95   47   49 1    
    96   47  170 1    
    97   48  171 1    
    98   48  172 1    
    99   48  173 1    
   100   49   50 am   BACKBONE|DICT|INTERRES
   101   49  174 1    
   102   50   51 2    
   103   50   52 1    
   104   52   53 1    
   105   52   54 1    
   106   52  175 1    
   107   53  176 1    
   108   53  177 1    
   109   53  178 1    
   110   54   55 am   BACKBONE|DICT|INTERRES
   111   54  179 1    
   112   55   56 2    
   113   55   57 1    
   114   57   58 1    
   115   57   59 1    
   116   57  180 1    
   117   58  181 1    
   118   58  182 1    
   119   58  183 1    
   120   59   60 am   BACKBONE|DICT|INTERRES
   121   59  184 1    
   122   60   61 2    
   123   60   62 1    
   124   62   63 1    
   125   62   64 1    
   126   62  185 1    
   127   63  186 1    
   128   63  187 1    
   129   63  188 1    
   130   64   65 am   BACKBONE|DICT|INTERRES
   131   64  189 1    
   132   65   66 2    
   133   67   68 2    
   134   67   69 am   BACKBONE|DICT|INTERRES
   135   69   70 1    
   136   69  190 1    
   137   70   71 1    
   138   70   72 1    
   139   70  191 1    
   140   71  192 1    
   141   71  193 1    
   142   71  194 1    
   143   72   73 2    
   144   72   74 am   BACKBONE|DICT|INTERRES
   145   74   75 1    
   146   74  195 1    
   147   75   76 1    
   148   75   77 1    
   149   75  196 1    
   150   76  197 1    
   151   76  198 1    
   152   76  199 1    
   153   77   78 2    
   154   77   79 am   BACKBONE|DICT|INTERRES
   155   79   80 1    
   156   79  200 1    
   157   80   81 1    
   158   80   82 1    
   159   80  201 1    
   160   81  202 1    
   161   81  203 1    
   162   81  204 1    
   163   82   83 2    
   164   82   84 am   BACKBONE|DICT|INTERRES
   165   84   85 1    
   166   84  205 1    
   167   85   86 1    
   168   85   87 1    
   169   85  206 1    
   170   86  207 1    
   171   86  208 1    
   172   86  209 1    
   173   87   88 2    
   174   87   89 am   BACKBONE|DICT|INTERRES
   175   89   90 1    
   176   89  210 1    
   177   90   91 1    
   178   90   92 1    
   179   90  211 1    
   180   91  212 1    
   181   91  213 1    
   182   91  214 1    
   183   92   93 2    
   184   92   94 am   BACKBONE|DICT|INTERRES
   185   94   95 1    
   186   94  215 1    
   187   95   96 1    
   188   95   97 1    
   189   95  216 1    
   190   96  217 1    
   191   96  218 1    
   192   96  219 1    
   193   97   98 2    
   194   97   99 am   BACKBONE|DICT|INTERRES
   195   99  100 1    
   196   99  220 1    
   197  100  101 1    
   198  100  102 1    
   199  100  221 1    
   200  101  222 1    
   201  101  223 1    
   202  101  224 1    
   203  102  103 2    
   204  102  104 am   BACKBONE|DICT|INTERRES
   205  104  105 1    
   206  104  225 1    
   207  105  106 1    
   208  105  107 1    
   209  105  226 1    
   210  106  227 1    
   211  106  228 1    
   212  106  229 1    
   213  107  108 2    
   214  107  109 am   BACKBONE|DICT|INTERRES
   215  109  110 1    
   216  109  230 1    
   217  110  111 1    
   218  110  112 1    
   219  110  231 1    
   220  111  232 1    
   221  111  233 1    
   222  111  234 1    
   223  112  113 2    
   224  112  114 am   BACKBONE|DICT|INTERRES
   225  114  115 1    
   226  114  235 1    
   227  115  116 1    
   228  115  117 1    
   229  115  236 1    
   230  116  237 1    
   231  116  238 1    
   232  116  239 1    
   233  117  118 2    
   234  117  119 am   BACKBONE|DICT|INTERRES
   235  119  120 1    
   236  119  240 1    
   237  120  121 1    
   238  120  124 1    
   239  120  241 1    
   240  121  122 am   BACKBONE|DICT|INTERRES
   241  121  123 2    
   242  122  242 1    
   243  122  243 1    
   244  124  125 1    
   245  124  244 1    
   246  124  245 1    
   247  125  126 1    
   248  126  246 1    
   249  126  247 1    
@<TRIPOS>SUBSTRUCTURE
     1 UNK         1 GROUP             0       ****    0 ROOT    
