@<TRIPOS>MOLECULE
3R540
247   249    1
SMALL
USER_CHARGES


@<TRIPOS>ATOM
      1 CA         -0.2880  -12.2651  -42.2954 C.3       0 UNK        -0.1800 
      2 C          -1.4831  -11.8657  -43.1484 C.2       0 UNK         0.5000 
      3 O          -1.8783  -10.7002  -43.1427 O.2       0 UNK        -0.5000 
      4 N          -2.0656  -12.8311  -43.8708 N.am      1 UNK        -0.5000 
      5 CA         -3.2516  -12.6454  -44.7171 C.3       1 UNK         0.1400 
      6 C6         -3.8995  -14.0097  -45.0567 C.3       23 UNK        -0.0398 
      7 S7         -5.6568  -13.8746  -45.5350 S.3       23 UNK        -0.2404 
      8 C8         -5.5845  -14.1752  -47.3333 C.3       23 UNK        -0.0205 
      9 C9         -5.0620  -15.5656  -47.6666 C.ar      23 UNK        -0.0193 
     10 C10        -3.8874  -15.7216  -48.4097 C.ar      23 UNK        -0.1150 
     11 C11        -3.3915  -16.9982  -48.6901 C.ar      23 UNK        -0.0193 
     12 C12        -4.0782  -18.1225  -48.2239 C.ar      23 UNK        -0.1150 
     13 C13        -5.2460  -17.9769  -47.4697 C.ar      23 UNK        -0.0193 
     14 C14        -5.7428  -16.6981  -47.2111 C.ar      23 UNK        -0.1150 
     15 C15        -5.9549  -19.1975  -46.9054 C.3       23 UNK        -0.0205 
     16 S16        -5.5877  -19.4583  -45.1349 S.3       23 UNK        -0.2404 
     17 C17        -3.7642  -19.5865  -45.1039 C.3       23 UNK        -0.0398 
     18 CA         -3.2318  -20.8863  -45.7544 C.3       11 UNK         0.1400 
     19 N          -1.8763  -20.7219  -46.2861 N.am      11 UNK        -0.5000 
     20 C          -1.2858  -21.5980  -47.1095 C.2       10 UNK         0.5000 
     21 O          -1.8495  -22.6022  -47.5387 O.2       10 UNK        -0.5000 
     22 CA          0.1902  -21.3481  -47.4705 C.3       10 UNK         0.1400 
     23 CB          0.3192  -20.3566  -48.6345 C.3       10 UNK        -0.1800 
     24 N           0.9797  -20.8826  -46.3301 N.am      10 UNK        -0.5000 
     25 C           1.2021  -21.6077  -45.2251 C.2       9 UNK         0.5000 
     26 O           0.8174  -22.7675  -45.0854 O.2       9 UNK        -0.5000 
     27 CA          1.9287  -20.9121  -44.0615 C.3       9 UNK         0.1400 
     28 CB          3.4475  -20.9185  -44.2875 C.3       9 UNK        -0.1800 
     29 N           1.4637  -19.5420  -43.8412 N.am      9 UNK        -0.5000 
     30 C           0.2169  -19.2050  -43.4799 C.2       8 UNK         0.5000 
     31 O          -0.6751  -20.0236  -43.2559 O.2       8 UNK        -0.5000 
     32 CA         -0.1048  -17.6990  -43.4183 C.3       8 UNK         0.1400 
     33 CB          0.4353  -17.0658  -42.1279 C.3       8 UNK        -0.1800 
     34 N           0.4088  -16.9714  -44.5804 N.am      8 UNK        -0.5000 
     35 C           0.0097  -17.1978  -45.8401 C.2       7 UNK         0.5000 
     36 O          -0.8688  -18.0025  -46.1470 O.2       7 UNK        -0.5000 
     37 CA          0.7484  -16.4331  -46.9483 C.3       7 UNK         0.1400 
     38 CB          0.1673  -15.0252  -47.1206 C.3       7 UNK        -0.1800 
     39 N           2.1902  -16.3611  -46.7112 N.am      7 UNK        -0.5000 
     40 C           3.0035  -17.4268  -46.7439 C.2       6 UNK         0.5000 
     41 O           2.6306  -18.5619  -47.0388 O.2       6 UNK        -0.5000 
     42 CA          4.4620  -17.1997  -46.3123 C.3       6 UNK         0.1400 
     43 CB          5.3096  -16.6649  -47.4761 C.3       6 UNK        -0.1800 
     44 N           4.5572  -16.3000  -45.1611 N.am      6 UNK        -0.5000 
     45 C           4.1379  -16.6253  -43.9290 C.2       5 UNK         0.5000 
     46 O           3.6625  -17.7227  -43.6434 O.2       5 UNK        -0.5000 
     47 CA          4.2319  -15.5503  -42.8316 C.3       5 UNK         0.1400 
     48 CB          5.5430  -15.7002  -42.0461 C.3       5 UNK        -0.1800 
     49 N           4.1289  -14.1821  -43.3345 N.am      5 UNK        -0.5000 
     50 C           3.0549  -13.6532  -43.9352 C.2       4 UNK         0.5000 
     51 O           2.0118  -14.2803  -44.1404 O.2       4 UNK        -0.5000 
     52 CA          3.1686  -12.1791  -44.3881 C.3       4 UNK         0.1400 
     53 CB          4.5837  -11.5786  -44.2267 C.3       4 UNK        -0.1800 
     54 N           2.7034  -11.9521  -45.7581 N.am      4 UNK        -0.5000 
     55 C           3.0632  -12.6061  -46.8695 C.2       3 UNK         0.5000 
     56 O           3.7797  -13.6087  -46.8690 O.2       3 UNK        -0.5000 
     57 CA          2.5210  -12.0367  -48.2017 C.3       3 UNK         0.1400 
     58 CB          3.0043  -12.8435  -49.4210 C.3       3 UNK        -0.1800 
     59 N           1.0582  -11.9619  -48.2480 N.am      3 UNK        -0.5000 
     60 C           0.2739  -11.1155  -47.5693 C.2       2 UNK         0.5000 
     61 O           0.7040  -10.2471  -46.8086 O.2       2 UNK        -0.5000 
     62 CA         -1.2423  -11.2972  -47.7180 C.3       2 UNK         0.1400 
     63 CB         -1.6762  -12.0904  -48.9706 C.3       2 UNK        -0.1800 
     64 N          -1.7226  -11.9646  -46.5146 N.am      2 UNK        -0.5000 
     65 C          -2.9476  -11.8306  -45.9953 C.2       1 UNK         0.5000 
     66 O          -3.8161  -11.1026  -46.4783 O.2       1 UNK        -0.5000 
     67 C          -3.3483  -22.1046  -44.8122 C.2       11 UNK         0.5000 
     68 O          -4.3375  -22.8337  -44.8887 O.2       11 UNK        -0.5000 
     69 N          -2.3211  -22.3348  -43.9806 N.am      12 UNK        -0.5000 
     70 CA         -2.2064  -23.5064  -43.1089 C.3       12 UNK         0.1400 
     71 CB         -1.0601  -23.2950  -42.1084 C.3       12 UNK        -0.1800 
     72 C          -2.0221  -24.8214  -43.8932 C.2       12 UNK         0.5000 
     73 O          -2.6102  -25.8364  -43.5178 O.2       12 UNK        -0.5000 
     74 N          -1.2359  -24.7759  -44.9790 N.am      13 UNK        -0.5000 
     75 CA         -1.0492  -25.8762  -45.9303 C.3       13 UNK         0.1400 
     76 CB          0.1292  -25.5455  -46.8587 C.3       13 UNK        -0.1800 
     77 C          -2.3176  -26.1826  -46.7524 C.2       13 UNK         0.5000 
     78 O          -2.5122  -27.3271  -47.1654 O.2       13 UNK        -0.5000 
     79 N          -3.1580  -25.1584  -46.9550 N.am      14 UNK        -0.5000 
     80 CA         -4.4619  -25.1813  -47.6136 C.3       14 UNK         0.1400 
     81 CB         -5.4831  -25.9659  -46.7601 C.3       14 UNK        -0.1800 
     82 C          -4.3442  -25.6603  -49.0719 C.2       14 UNK         0.5000 
     83 O          -3.6242  -25.0333  -49.8494 O.2       14 UNK        -0.5000 
     84 N          -5.0236  -26.7600  -49.4231 N.am      15 UNK        -0.5000 
     85 CA         -5.0826  -27.3448  -50.7667 C.3       15 UNK         0.1400 
     86 CB         -6.0336  -28.5510  -50.7390 C.3       15 UNK        -0.1800 
     87 C          -3.7196  -27.7484  -51.3668 C.2       15 UNK         0.5000 
     88 O          -3.6091  -27.8350  -52.5899 O.2       15 UNK        -0.5000 
     89 N          -2.7070  -27.9669  -50.5151 N.am      16 UNK        -0.5000 
     90 CA         -1.3306  -28.2440  -50.9289 C.3       16 UNK         0.1400 
     91 CB         -0.5405  -28.7851  -49.7287 C.3       16 UNK        -0.1800 
     92 C          -0.6225  -27.0181  -51.5424 C.2       16 UNK         0.5000 
     93 O           0.2487  -27.1969  -52.3944 O.2       16 UNK        -0.5000 
     94 N          -1.0076  -25.8079  -51.1129 N.am      17 UNK        -0.5000 
     95 CA         -0.5069  -24.5377  -51.6462 C.3       17 UNK         0.1400 
     96 CB         -0.1886  -23.5981  -50.4755 C.3       17 UNK        -0.1800 
     97 C          -1.5214  -23.8725  -52.5940 C.2       17 UNK         0.5000 
     98 O          -1.1029  -23.1423  -53.4938 O.2       17 UNK        -0.5000 
     99 N          -2.8165  -24.1421  -52.3623 N.am      18 UNK        -0.5000 
    100 CA        -4.0125  -23.6008  -53.0086 C.3       18 UNK         0.1400 
    101 CB        -4.0256  -23.8871  -54.5225 C.3       18 UNK        -0.1800 
    102 C         -4.1761  -22.1032  -52.7064 C.2       18 UNK         0.5000 
    103 O         -3.4127  -21.2911  -53.2228 O.2       18 UNK        -0.5000 
    104 N         -5.1797  -21.7438  -51.8954 N.am      19 UNK        -0.5000 
    105 CA        -5.4386  -20.3738  -51.4236 C.3       19 UNK         0.1400 
    106 CB        -6.6012  -20.4100  -50.4200 C.3       19 UNK        -0.1800 
    107 C         -5.7124  -19.3298  -52.5309 C.2       19 UNK         0.5000 
    108 O         -5.6037  -18.1320  -52.2726 O.2       19 UNK        -0.5000 
    109 N         -6.0520  -19.7920  -53.7414 N.am      20 UNK        -0.5000 
    110 CA        -6.1875  -18.9631  -54.9392 C.3       20 UNK         0.1400 
    111 CB        -7.0435  -19.7210  -55.9661 C.3       20 UNK        -0.1800 
    112 C         -4.8317  -18.5653  -55.5628 C.2       20 UNK         0.5000 
    113 O         -4.7832  -17.5789  -56.2992 O.2       20 UNK        -0.5000 
    114 N         -3.7720  -19.3377  -55.2859 N.am      21 UNK        -0.5000 
    115 CA        -2.4263  -19.1562  -55.8339 C.3       21 UNK         0.1400 
    116 CB        -1.9886  -20.4647  -56.5118 C.3       21 UNK        -0.1800 
    117 C         -1.4103  -18.7593  -54.7495 C.2       21 UNK         0.5000 
    118 O         -0.5116  -17.9658  -55.0321 O.2       21 UNK        -0.5000 
    119 N         -1.5701  -19.3125  -53.5403 N.am      22 UNK        -0.5000 
    120 CA        -0.6938  -19.1455  -52.3709 C.3       22 UNK         0.1400 
    121 C          0.7277  -19.7461  -52.5846 C.2       22 UNK         0.5000 
    122 N          0.8433  -20.9124  -53.2094 N.am      22 UNK        -0.7600 
    123 O          1.7337  -19.1699  -52.1797 O.2       22 UNK        -0.5000 
    124 C124       -0.6857  -17.6932  -51.8147 C.3       23 UNK        -0.0398 
    125 S125       -2.3420  -17.1688  -51.2502 S.3       23 UNK        -0.2404 
    126 C126       -2.0892  -17.1668  -49.4526 C.3       23 UNK        -0.0205 
    127 H127        0.0595  -13.2714  -42.5296 H         1 UNK         0.0600 
    128 H128       -0.5566  -12.2350  -41.2395 H         1 UNK         0.0600 
    129 H129        0.5363  -11.5716  -42.4550 H         1 UNK         0.0600 
    130 H130       -1.6977  -13.7703  -43.8208 H         1 UNK         0.3000 
    131 H131       -3.9708  -12.0678  -44.1318 H         1 UNK         0.0600 
    132 H132       -3.3243  -14.5416  -45.8158 H         1 UNK         0.0800 
    133 H133       -3.8801  -14.6539  -44.1765 H         1 UNK         0.0800 
    134 H134       -6.5865  -14.0654  -47.7500 H         1 UNK         0.0800 
    135 H135       -4.9712  -13.4039  -47.8019 H         1 UNK         0.0800 
    136 H136       -3.3509  -14.8516  -48.7611 H         1 UNK         0.1150 
    137 H137       -3.6857  -19.1098  -48.4226 H         1 UNK         0.1150 
    138 H138       -6.6426  -16.5821  -46.6231 H         1 UNK         0.1150 
    139 H139       -7.0324  -19.0754  -47.0247 H         1 UNK         0.0800 
    140 H140       -5.6934  -20.0905  -47.4725 H         1 UNK         0.0800 
    141 H141       -3.4203  -19.4965  -44.0719 H         1 UNK         0.0800 
    142 H142       -3.3614  -18.7099  -45.6102 H         1 UNK         0.0800 
    143 H143       -3.8549  -21.1106  -46.6211 H         1 UNK         0.0600 
    144 H144       -1.3733  -19.8817  -46.0151 H         1 UNK         0.3000 
    145 H145        0.6090  -22.3015  -47.7977 H         1 UNK         0.0600 
    146 H146        1.3341  -20.3488  -49.0325 H         1 UNK         0.0600 
    147 H147        0.0820  -19.3424  -48.3200 H         1 UNK         0.0600 
    148 H148       -0.3513  -20.6186  -49.4531 H         1 UNK         0.0600 
    149 H149        1.3812  -19.9524  -46.4003 H         1 UNK         0.3000 
    150 H150        1.7199  -21.4816  -43.1538 H         1 UNK         0.0600 
    151 H151        3.8154  -21.9333  -44.4437 H         1 UNK         0.0600 
    152 H152        3.9753  -20.5107  -43.4252 H         1 UNK         0.0600 
    153 H153        3.7275  -20.3286  -45.1605 H         1 UNK         0.0600 
    154 H154        2.1579  -18.8080  -43.9566 H         1 UNK         0.3000 
    155 H155       -1.1917  -17.5922  -43.4169 H         1 UNK         0.0600 
    156 H156       -0.0107  -17.5353  -41.2504 H         1 UNK         0.0600 
    157 H157        0.2046  -16.0013  -42.0816 H         1 UNK         0.0600 
    158 H158        1.5154  -17.1793  -42.0435 H         1 UNK         0.0600 
    159 H159        1.1221  -16.2714  -44.4136 H         1 UNK         0.3000 
    160 H160        0.5895  -16.9777  -47.8808 H         1 UNK         0.0600 
    161 H161        0.4360  -14.3686  -46.2933 H         1 UNK         0.0600 
    162 H162       -0.9216  -15.0491  -47.1814 H         1 UNK         0.0600 
    163 H163        0.5342  -14.5827  -48.0442 H         1 UNK         0.0600 
    164 H164        2.5782  -15.4627  -46.4490 H         1 UNK         0.3000 
    165 H165        4.8747  -18.1672  -46.0182 H         1 UNK         0.0600 
    166 H166        6.3494  -16.5304  -47.1781 H         1 UNK         0.0600 
    167 H167        5.2994  -17.3630  -48.3140 H         1 UNK         0.0600 
    168 H168        4.9399  -15.7091  -47.8464 H         1 UNK         0.0600 
    169 H169        4.8832  -15.3600  -45.3389 H         1 UNK         0.3000 
    170 H170        3.4022  -15.7112  -42.1411 H         1 UNK         0.0600 
    171 H171        6.4139  -15.5214  -42.6781 H         1 UNK         0.0600 
    172 H172        5.5847  -15.0022  -41.2097 H         1 UNK         0.0600 
    173 H173        5.6379  -16.7055  -41.6331 H         1 UNK         0.0600 
    174 H174        4.9450  -13.5995  -43.2178 H         1 UNK         0.3000 
    175 H175        2.4979  -11.6134  -43.7422 H         1 UNK         0.0600 
    176 H176        5.3225  -12.1091  -44.8291 H         1 UNK         0.0600 
    177 H177        4.5987  -10.5337  -44.5374 H         1 UNK         0.0600 
    178 H178        4.9134  -11.6004  -43.1872 H         1 UNK         0.0600 
    179 H179        2.0547  -11.1791  -45.8820 H         1 UNK         0.3000 
    180 H180        2.9166  -11.0236  -48.2971 H         1 UNK         0.0600 
    181 H181        2.6633  -12.3933  -50.3535 H         1 UNK         0.0600 
    182 H182        2.6440  -13.8727  -49.3926 H         1 UNK         0.0600 
    183 H183        4.0938  -12.8788  -49.4604 H         1 UNK         0.0600 
    184 H184        0.6073  -12.6390  -48.8445 H         1 UNK         0.3000 
    185 H185       -1.6710  -10.2944  -47.7771 H         1 UNK         0.0600 
    186 H186       -2.7612  -12.0841  -49.0760 H         1 UNK         0.0600 
    187 H187       -1.2662  -11.6477  -49.8793 H         1 UNK         0.0600 
    188 H188       -1.3609  -13.1330  -48.9309 H         1 UNK         0.0600 
    189 H189       -1.0430  -12.5170  -46.0122 H         1 UNK         0.3000 
    190 H190       -1.5676  -21.6553  -43.9346 H         1 UNK         0.3000 
    191 H191       -3.1354  -23.5891  -42.5408 H         1 UNK         0.0600 
    192 H192       -1.2146  -22.3925  -41.5166 H         1 UNK         0.0600 
    193 H193       -0.0966  -23.2047  -42.6092 H         1 UNK         0.0600 
    194 H194       -0.9905  -24.1328  -41.4136 H         1 UNK         0.0600 
    195 H195       -0.7155  -23.9230  -45.1646 H         1 UNK         0.3000 
    196 H196       -0.7967  -26.7743  -45.3632 H         1 UNK         0.0600 
    197 H197        1.0391  -25.3549  -46.2896 H         1 UNK         0.0600 
    198 H198       -0.0753  -24.6651  -47.4671 H         1 UNK         0.0600 
    199 H199        0.3398  -26.3711  -47.5378 H         1 UNK         0.0600 
    200 H200       -2.8329  -24.2373  -46.6849 H         1 UNK         0.3000 
    201 H201       -4.7967  -24.1441  -47.6607 H         1 UNK         0.0600 
    202 H202       -5.5520  -25.5407  -45.7583 H         1 UNK         0.0600 
    203 H203       -5.2125  -27.0166  -46.6506 H         1 UNK         0.0600 
    204 H204       -6.4822  -25.9181  -47.1949 H         1 UNK         0.0600 
    205 H205       -5.5618  -27.2303  -48.7099 H         1 UNK         0.3000 
    206 H206       -5.5099  -26.5897  -51.4296 H         1 UNK         0.0600 
    207 H207       -5.6755  -29.3284  -50.0629 H         1 UNK         0.0600 
    208 H208       -7.0336  -28.2592  -50.4174 H         1 UNK         0.0600 
    209 H209       -6.1309  -28.9969  -51.7299 H         1 UNK         0.0600 
    210 H210       -2.8767  -27.8745  -49.5217 H         1 UNK         0.3000 
    211 H211       -1.3559  -29.0239  -51.6930 H         1 UNK         0.0600 
    212 H212       -0.4988  -28.0605  -48.9166 H         1 UNK         0.0600 
    213 H213        0.4860  -29.0232  -50.0105 H         1 UNK         0.0600 
    214 H214       -0.9910  -29.6981  -49.3391 H         1 UNK         0.0600 
    215 H215       -1.7576  -25.7467  -50.4345 H         1 UNK         0.3000 
    216 H216        0.4155  -24.6959  -52.2086 H         1 UNK         0.0600 
    217 H217        0.2125  -22.6494  -50.8335 H         1 UNK         0.0600 
    218 H218        0.5546  -24.0351  -49.8090 H         1 UNK         0.0600 
    219 H219       -1.0817  -23.3798  -49.8906 H         1 UNK         0.0600 
    220 H220       -3.0205  -24.6697  -51.5176 H         1 UNK         0.3000 
    221 H221       -4.8576  -24.1319  -52.5683 H         1 UNK         0.0600 
    222 H222       -3.2245  -23.3670  -55.0480 H         1 UNK         0.0600 
    223 H223       -3.9175  -24.9537  -54.7203 H         1 UNK         0.0600 
    224 H224       -4.9668  -23.5658  -54.9695 H         1 UNK         0.0600 
    225 H225       -5.7812  -22.4615  -51.5179 H         1 UNK         0.3000 
    226 H226       -4.5438  -20.0400  -50.8934 H         1 UNK         0.0600 
    227 H227       -6.3902  -21.0893  -49.5943 H         1 UNK         0.0600 
    228 H228       -6.7779  -19.4225  -49.9910 H         1 UNK         0.0600 
    229 H229       -7.5290  -20.7339  -50.8930 H         1 UNK         0.0600 
    230 H230       -6.1392  -20.7895  -53.8648 H         1 UNK         0.3000 
    231 H231       -6.7118  -18.0428  -54.6731 H         1 UNK         0.0600 
    232 H232       -7.1951  -19.1233  -56.8659 H         1 UNK         0.0600 
    233 H233       -8.0292  -19.9543  -55.5631 H         1 UNK         0.0600 
    234 H234       -6.5733  -20.6573  -56.2696 H         1 UNK         0.0600 
    235 H235       -3.8785  -20.0968  -54.6205 H         1 UNK         0.3000 
    236 H236       -2.4232  -18.3683  -56.5898 H         1 UNK         0.0600 
    237 H237       -1.9580  -21.2942  -55.8036 H         1 UNK         0.0600 
    238 H238       -2.6695  -20.7377  -57.3180 H         1 UNK         0.0600 
    239 H239       -0.9925  -20.3664  -56.9450 H         1 UNK         0.0600 
    240 H240       -2.3068  -20.0067  -53.4228 H         1 UNK         0.3000 
    241 H241       -1.1322  -19.7735  -51.5950 H         1 UNK         0.0600 
    242 H242        0.0284  -21.4436  -53.4989 H         1 UNK         0.3800 
    243 H243        1.7615  -21.2991  -53.3556 H         1 UNK         0.3800 
    244 H244       -0.3338  -16.9901  -52.5700 H         1 UNK         0.0800 
    245 H245        0.0134  -17.6054  -50.9814 H         1 UNK         0.0800 
    246 H246       -1.6132  -18.0995  -49.1534 H         1 UNK         0.0800 
    247 H247       -1.3989  -16.3644  -49.1944 H         1 UNK         0.0800 
@<TRIPOS>BOND
     1    1    2 1    
     2    1  127 1    
     3    1  128 1    
     4    1  129 1    
     5    2    3 2    
     6    2    4 am   BACKBONE|DICT|INTERRES
     7    4    5 1    
     8    4  130 1    
     9    5    6 1    
    10    5   65 1    
    11    5  131 1    
    12    6    7 1    
    13    6  132 1    
    14    6  133 1    
    15    7    8 1    
    16    8    9 1    
    17    8  134 1    
    18    8  135 1    
    19    9   10 ar   
    20    9   14 ar   
    21   10   11 ar   
    22   10  136 1    
    23   11   12 ar   
    24   11  126 1    
    25   12   13 ar   
    26   12  137 1    
    27   13   14 ar   
    28   13   15 1    
    29   14  138 1    
    30   15   16 1    
    31   15  139 1    
    32   15  140 1    
    33   16   17 1    
    34   17   18 1    
    35   17  141 1    
    36   17  142 1    
    37   18   19 1    
    38   18   67 1    
    39   18  143 1    
    40   19   20 am   BACKBONE|DICT|INTERRES
    41   19  144 1    
    42   20   21 2    
    43   20   22 1    
    44   22   23 1    
    45   22   24 1    
    46   22  145 1    
    47   23  146 1    
    48   23  147 1    
    49   23  148 1    
    50   24   25 am   BACKBONE|DICT|INTERRES
    51   24  149 1    
    52   25   26 2    
    53   25   27 1    
    54   27   28 1    
    55   27   29 1    
    56   27  150 1    
    57   28  151 1    
    58   28  152 1    
    59   28  153 1    
    60   29   30 am   BACKBONE|DICT|INTERRES
    61   29  154 1    
    62   30   31 2    
    63   30   32 1    
    64   32   33 1    
    65   32   34 1    
    66   32  155 1    
    67   33  156 1    
    68   33  157 1    
    69   33  158 1    
    70   34   35 am   BACKBONE|DICT|INTERRES
    71   34  159 1    
    72   35   36 2    
    73   35   37 1    
    74   37   38 1    
    75   37   39 1    
    76   37  160 1    
    77   38  161 1    
    78   38  162 1    
    79   38  163 1    
    80   39   40 am   BACKBONE|DICT|INTERRES
    81   39  164 1    
    82   40   41 2    
    83   40   42 1    
    84   42   43 1    
    85   42   44 1    
    86   42  165 1    
    87   43  166 1    
    88   43  167 1    
    89   43  168 1    
    90   44   45 am   BACKBONE|DICT|INTERRES
    91   44  169 1    
    92   45   46 2    
    93   45   47 1    
    94   47   48 1    
    95   47   49 1    
    96   47  170 1    
    97   48  171 1    
    98   48  172 1    
    99   48  173 1    
   100   49   50 am   BACKBONE|DICT|INTERRES
   101   49  174 1    
   102   50   51 2    
   103   50   52 1    
   104   52   53 1    
   105   52   54 1    
   106   52  175 1    
   107   53  176 1    
   108   53  177 1    
   109   53  178 1    
   110   54   55 am   BACKBONE|DICT|INTERRES
   111   54  179 1    
   112   55   56 2    
   113   55   57 1    
   114   57   58 1    
   115   57   59 1    
   116   57  180 1    
   117   58  181 1    
   118   58  182 1    
   119   58  183 1    
   120   59   60 am   BACKBONE|DICT|INTERRES
   121   59  184 1    
   122   60   61 2    
   123   60   62 1    
   124   62   63 1    
   125   62   64 1    
   126   62  185 1    
   127   63  186 1    
   128   63  187 1    
   129   63  188 1    
   130   64   65 am   BACKBONE|DICT|INTERRES
   131   64  189 1    
   132   65   66 2    
   133   67   68 2    
   134   67   69 am   BACKBONE|DICT|INTERRES
   135   69   70 1    
   136   69  190 1    
   137   70   71 1    
   138   70   72 1    
   139   70  191 1    
   140   71  192 1    
   141   71  193 1    
   142   71  194 1    
   143   72   73 2    
   144   72   74 am   BACKBONE|DICT|INTERRES
   145   74   75 1    
   146   74  195 1    
   147   75   76 1    
   148   75   77 1    
   149   75  196 1    
   150   76  197 1    
   151   76  198 1    
   152   76  199 1    
   153   77   78 2    
   154   77   79 am   BACKBONE|DICT|INTERRES
   155   79   80 1    
   156   79  200 1    
   157   80   81 1    
   158   80   82 1    
   159   80  201 1    
   160   81  202 1    
   161   81  203 1    
   162   81  204 1    
   163   82   83 2    
   164   82   84 am   BACKBONE|DICT|INTERRES
   165   84   85 1    
   166   84  205 1    
   167   85   86 1    
   168   85   87 1    
   169   85  206 1    
   170   86  207 1    
   171   86  208 1    
   172   86  209 1    
   173   87   88 2    
   174   87   89 am   BACKBONE|DICT|INTERRES
   175   89   90 1    
   176   89  210 1    
   177   90   91 1    
   178   90   92 1    
   179   90  211 1    
   180   91  212 1    
   181   91  213 1    
   182   91  214 1    
   183   92   93 2    
   184   92   94 am   BACKBONE|DICT|INTERRES
   185   94   95 1    
   186   94  215 1    
   187   95   96 1    
   188   95   97 1    
   189   95  216 1    
   190   96  217 1    
   191   96  218 1    
   192   96  219 1    
   193   97   98 2    
   194   97   99 am   BACKBONE|DICT|INTERRES
   195   99  100 1    
   196   99  220 1    
   197  100  101 1    
   198  100  102 1    
   199  100  221 1    
   200  101  222 1    
   201  101  223 1    
   202  101  224 1    
   203  102  103 2    
   204  102  104 am   BACKBONE|DICT|INTERRES
   205  104  105 1    
   206  104  225 1    
   207  105  106 1    
   208  105  107 1    
   209  105  226 1    
   210  106  227 1    
   211  106  228 1    
   212  106  229 1    
   213  107  108 2    
   214  107  109 am   BACKBONE|DICT|INTERRES
   215  109  110 1    
   216  109  230 1    
   217  110  111 1    
   218  110  112 1    
   219  110  231 1    
   220  111  232 1    
   221  111  233 1    
   222  111  234 1    
   223  112  113 2    
   224  112  114 am   BACKBONE|DICT|INTERRES
   225  114  115 1    
   226  114  235 1    
   227  115  116 1    
   228  115  117 1    
   229  115  236 1    
   230  116  237 1    
   231  116  238 1    
   232  116  239 1    
   233  117  118 2    
   234  117  119 am   BACKBONE|DICT|INTERRES
   235  119  120 1    
   236  119  240 1    
   237  120  121 1    
   238  120  124 1    
   239  120  241 1    
   240  121  122 am   BACKBONE|DICT|INTERRES
   241  121  123 2    
   242  122  242 1    
   243  122  243 1    
   244  124  125 1    
   245  124  244 1    
   246  124  245 1    
   247  125  126 1    
   248  126  246 1    
   249  126  247 1    
@<TRIPOS>SUBSTRUCTURE
     1 UNK         1 GROUP             0       ****    0 ROOT    
