@<TRIPOS>MOLECULE
3R540
247   249    1
SMALL
USER_CHARGES


@<TRIPOS>ATOM
      1 CA         -5.1013  -14.4410  -50.5547 C.3       0 UNK        -0.1800 
      2 C          -4.1437  -13.8529  -49.5279 C.2       0 UNK         0.5000 
      3 O          -4.4985  -12.9114  -48.8197 O.2       0 UNK        -0.5000 
      4 N          -2.9361  -14.4186  -49.4300 N.am      1 UNK        -0.5000 
      5 CA         -1.8620  -14.0225  -48.5071 C.3       1 UNK         0.1400 
      6 C6         -0.4640  -14.2074  -49.1521 C.3       23 UNK        -0.0398 
      7 S7         -0.2026  -15.8855  -49.8111 S.3       23 UNK        -0.2404 
      8 C8          1.6029  -16.0566  -49.7311 C.3       23 UNK        -0.0205 
      9 C9          2.0178  -17.4568  -50.1551 C.ar      23 UNK        -0.0193 
     10 C10         1.8269  -17.8740  -51.4756 C.ar      23 UNK        -0.1150 
     11 C11         2.1511  -19.1761  -51.8629 C.ar      23 UNK        -0.0193 
     12 C12         2.7157  -20.0499  -50.9314 C.ar      23 UNK        -0.1150 
     13 C13         2.9245  -19.6419  -49.6115 C.ar      23 UNK        -0.0193 
     14 C14         2.5683  -18.3452  -49.2271 C.ar      23 UNK        -0.1150 
     15 C15         3.5389  -20.5986  -48.6006 C.3       23 UNK        -0.0205 
     16 S16         2.5622  -22.1200  -48.3663 S.3       23 UNK        -0.2404 
     17 C17         0.9090  -21.4629  -47.9694 C.3       23 UNK        -0.0398 
     18 CA          0.1334  -22.4082  -47.0249 C.3       11 UNK         0.1400 
     19 N           0.7180  -22.4636  -45.6806 N.am      11 UNK        -0.5000 
     20 C           0.4022  -23.3556  -44.7330 C.2       10 UNK         0.5000 
     21 O          -0.3650  -24.2996  -44.9376 O.2       10 UNK        -0.5000 
     22 CA          0.9474  -23.1004  -43.3095 C.3       10 UNK         0.1400 
     23 CB          1.4273  -24.3954  -42.6239 C.3       10 UNK        -0.1800 
     24 N           1.9474  -22.0237  -43.2235 N.am      10 UNK        -0.5000 
     25 C           3.2153  -22.0325  -43.6614 C.2       9 UNK         0.5000 
     26 O           3.7538  -23.0122  -44.1762 O.2       9 UNK        -0.5000 
     27 CA          4.0192  -20.7194  -43.5436 C.3       9 UNK         0.1400 
     28 CB          4.2744  -20.1272  -44.9348 C.3       9 UNK        -0.1800 
     29 N           3.3778  -19.6886  -42.7240 N.am      9 UNK        -0.5000 
     30 C           3.4396  -19.6306  -41.3872 C.2       8 UNK         0.5000 
     31 O           4.0198  -20.4644  -40.6912 O.2       8 UNK        -0.5000 
     32 CA          2.7187  -18.4449  -40.7162 C.3       8 UNK         0.1400 
     33 CB          3.6045  -17.1899  -40.7316 C.3       8 UNK        -0.1800 
     34 N           1.4350  -18.1333  -41.3455 N.am      8 UNK        -0.5000 
     35 C           0.3676  -18.9437  -41.3307 C.2       7 UNK         0.5000 
     36 O           0.3353  -20.0282  -40.7493 O.2       7 UNK        -0.5000 
     37 CA         -0.8486  -18.4916  -42.1545 C.3       7 UNK         0.1400 
     38 CB         -1.6948  -17.4652  -41.3892 C.3       7 UNK        -0.1800 
     39 N          -0.4507  -17.9604  -43.4607 N.am      7 UNK        -0.5000 
     40 C           0.0328  -18.7265  -44.4484 C.2       6 UNK         0.5000 
     41 O           0.0980  -19.9517  -44.3784 O.2       6 UNK        -0.5000 
     42 CA          0.5521  -18.0349  -45.7185 C.3       6 UNK         0.1400 
     43 CB         -0.4647  -18.1284  -46.8617 C.3       6 UNK        -0.1800 
     44 N           0.9404  -16.6445  -45.4956 N.am      6 UNK        -0.5000 
     45 C           2.0588  -16.2925  -44.8475 C.2       5 UNK         0.5000 
     46 O           2.8699  -17.1020  -44.3953 O.2       5 UNK        -0.5000 
     47 CA          2.2647  -14.7874  -44.6124 C.3       5 UNK         0.1400 
     48 CB          2.7002  -14.0877  -45.9086 C.3       5 UNK        -0.1800 
     49 N           1.0646  -14.1352  -44.0824 N.am      5 UNK        -0.5000 
     50 C           0.5117  -14.4101  -42.8920 C.2       4 UNK         0.5000 
     51 O           0.9522  -15.2726  -42.1306 O.2       4 UNK        -0.5000 
     52 CA         -0.7472  -13.6168  -42.4908 C.3       4 UNK         0.1400 
     53 CB         -0.7385  -13.2255  -41.0024 C.3       4 UNK        -0.1800 
     54 N          -0.9163  -12.4117  -43.3102 N.am      4 UNK        -0.5000 
     55 C          -2.0472  -11.8967  -43.8141 C.2       3 UNK         0.5000 
     56 O          -2.0200  -10.8844  -44.5131 O.2       3 UNK        -0.5000 
     57 CA         -3.3967  -12.6067  -43.5786 C.3       3 UNK         0.1400 
     58 CB         -4.5965  -11.6497  -43.7021 C.3       3 UNK        -0.1800 
     59 N          -3.5195  -13.6452  -44.5940 N.am      3 UNK        -0.5000 
     60 C          -3.6930  -14.9502  -44.3629 C.2       2 UNK         0.5000 
     61 O          -3.9315  -15.4121  -43.2482 O.2       2 UNK        -0.5000 
     62 CA         -3.5408  -15.9143  -45.5590 C.3       2 UNK         0.1400 
     63 CB         -4.8216  -16.7322  -45.7882 C.3       2 UNK        -0.1800 
     64 N          -3.1670  -15.2673  -46.8215 N.am      2 UNK        -0.5000 
     65 C          -1.9879  -14.7016  -47.1200 C.2       1 UNK         0.5000 
     66 O          -1.0352  -14.6892  -46.3371 O.2       1 UNK        -0.5000 
     67 C          -1.3724  -22.0658  -46.9908 C.2       11 UNK         0.5000 
     68 O          -2.0908  -22.4571  -47.9064 O.2       11 UNK        -0.5000 
     69 N          -1.8447  -21.4292  -45.9078 N.am      12 UNK        -0.5000 
     70 CA         -3.2639  -21.2017  -45.6115 C.3       12 UNK         0.1400 
     71 CB         -3.3818  -20.2138  -44.4419 C.3       12 UNK        -0.1800 
     72 C          -4.0577  -22.4965  -45.3136 C.2       12 UNK         0.5000 
     73 O          -5.2828  -22.4417  -45.2007 O.2       12 UNK        -0.5000 
     74 N          -3.3580  -23.6309  -45.1828 N.am      13 UNK        -0.5000 
     75 CA         -3.9310  -24.9709  -45.1937 C.3       13 UNK         0.1400 
     76 CB         -3.4822  -25.7351  -43.9371 C.3       13 UNK        -0.1800 
     77 C          -3.4962  -25.7003  -46.4752 C.2       13 UNK         0.5000 
     78 O          -4.3508  -26.1948  -47.2110 O.2       13 UNK        -0.5000 
     79 N          -2.1786  -25.7509  -46.7257 N.am      14 UNK        -0.5000 
     80 CA         -1.5652  -26.5665  -47.7784 C.3       14 UNK         0.1400 
     81 CB         -0.0492  -26.6381  -47.5373 C.3       14 UNK        -0.1800 
     82 C          -1.8648  -26.1237  -49.2257 C.2       14 UNK         0.5000 
     83 O          -1.8176  -26.9668  -50.1225 O.2       14 UNK        -0.5000 
     84 N          -2.1607  -24.8357  -49.4385 N.am      15 UNK        -0.5000 
     85 CA         -2.4482  -24.2380  -50.7451 C.3       15 UNK         0.1400 
     86 CB         -1.2961  -23.2923  -51.1345 C.3       15 UNK        -0.1800 
     87 C          -3.8116  -23.5210  -50.7443 C.2       15 UNK         0.5000 
     88 O          -4.0173  -22.6056  -51.5433 O.2       15 UNK        -0.5000 
     89 N          -4.7225  -23.9441  -49.8531 N.am      16 UNK        -0.5000 
     90 CA         -6.0614  -23.3888  -49.6322 C.3       16 UNK         0.1400 
     91 CB         -6.9801  -23.6761  -50.8418 C.3       16 UNK        -0.1800 
     92 C          -5.9882  -21.9002  -49.2341 C.2       16 UNK         0.5000 
     93 O          -5.5166  -21.5993  -48.1412 O.2       16 UNK        -0.5000 
     94 N          -6.4278  -20.9917  -50.1136 N.am      17 UNK        -0.5000 
     95 CA         -6.3240  -19.5426  -49.9169 C.3       17 UNK         0.1400 
     96 CB         -7.2811  -18.8440  -50.8958 C.3       17 UNK        -0.1800 
     97 C          -4.8909  -18.9957  -50.0913 C.2       17 UNK         0.5000 
     98 O          -4.6320  -17.8615  -49.6846 O.2       17 UNK        -0.5000 
     99 N          -4.0079  -19.7937  -50.7125 N.am      18 UNK        -0.5000 
    100 CA        -2.6682  -19.4427  -51.1848 C.3       18 UNK         0.1400 
    101 CB        -1.7303  -19.1438  -49.9980 C.3       18 UNK        -0.1800 
    102 C         -2.7107  -18.3342  -52.2613 C.2       18 UNK         0.5000 
    103 O         -3.7514  -18.1393  -52.8963 O.2       18 UNK        -0.5000 
    104 N         -1.5769  -17.6580  -52.4924 N.am      19 UNK        -0.5000 
    105 CA        -1.3657  -16.6299  -53.5180 C.3       19 UNK         0.1400 
    106 CB        -2.1198  -15.3312  -53.1498 C.3       19 UNK        -0.1800 
    107 C         -1.6938  -17.1665  -54.9278 C.2       19 UNK         0.5000 
    108 O         -0.9329  -17.9759  -55.4574 O.2       19 UNK        -0.5000 
    109 N         -2.8326  -16.7452  -55.4922 N.am      20 UNK        -0.5000 
    110 CA        -3.3555  -17.2050  -56.7790 C.3       20 UNK         0.1400 
    111 CB        -4.5027  -16.2761  -57.2053 C.3       20 UNK        -0.1800 
    112 C         -3.8250  -18.6753  -56.7763 C.2       20 UNK         0.5000 
    113 O         -3.8998  -19.2770  -57.8482 O.2       20 UNK        -0.5000 
    114 N         -4.1350  -19.2320  -55.5954 N.am      21 UNK        -0.5000 
    115 CA        -4.5624  -20.6242  -55.4292 C.3       21 UNK         0.1400 
    116 CB        -5.3786  -20.7554  -54.1339 C.3       21 UNK        -0.1800 
    117 C         -3.3936  -21.6311  -55.4461 C.2       21 UNK         0.5000 
    118 O         -3.6466  -22.8323  -55.5516 O.2       21 UNK        -0.5000 
    119 N         -2.1479  -21.1459  -55.3448 N.am      22 UNK        -0.5000 
    120 CA        -0.9241  -21.9554  -55.4481 C.3       22 UNK         0.1400 
    121 C         -0.7393  -22.5817  -56.8592 C.2       22 UNK         0.5000 
    122 N         -0.2710  -23.8200  -56.9390 N.am      22 UNK        -0.7600 
    123 O         -0.9713  -21.9408  -57.8818 O.2       22 UNK        -0.5000 
    124 C124        0.3351  -21.1413  -55.0642 C.3       23 UNK        -0.0398 
    125 S125        0.3049  -20.5782  -53.3335 S.3       23 UNK        -0.2404 
    126 C126        1.8685  -19.6536  -53.2758 C.3       23 UNK        -0.0205 
    127 H127       -5.3211  -13.7061  -51.3288 H         1 UNK         0.0600 
    128 H128       -4.6858  -15.3285  -51.0334 H         1 UNK         0.0600 
    129 H129       -6.0376  -14.7264  -50.0752 H         1 UNK         0.0600 
    130 H130       -2.7152  -15.2157  -50.0116 H         1 UNK         0.3000 
    131 H131       -1.9658  -12.9543  -48.3064 H         1 UNK         0.0600 
    132 H132        0.3302  -13.9527  -48.4497 H         1 UNK         0.0800 
    133 H133       -0.3551  -13.5086  -49.9824 H         1 UNK         0.0800 
    134 H134        1.9423  -15.8439  -48.7162 H         1 UNK         0.0800 
    135 H135        2.0713  -15.3198  -50.3850 H         1 UNK         0.0800 
    136 H136        1.4023  -17.1886  -52.1935 H         1 UNK         0.1150 
    137 H137        2.9723  -21.0574  -51.2278 H         1 UNK         0.1150 
    138 H138        2.7183  -18.0259  -48.2053 H         1 UNK         0.1150 
    139 H139        4.5403  -20.8719  -48.9352 H         1 UNK         0.0800 
    140 H140        3.6642  -20.1027  -47.6411 H         1 UNK         0.0800 
    141 H141        0.3804  -21.3272  -48.9148 H         1 UNK         0.0800 
    142 H142        1.0099  -20.4738  -47.5256 H         1 UNK         0.0800 
    143 H143        0.1958  -23.4119  -47.4465 H         1 UNK         0.0600 
    144 H144        1.2964  -21.6834  -45.4059 H         1 UNK         0.3000 
    145 H145        0.0924  -22.7358  -42.7383 H         1 UNK         0.0600 
    146 H146        1.8012  -24.1956  -41.6198 H         1 UNK         0.0600 
    147 H147        0.6092  -25.1104  -42.5284 H         1 UNK         0.0600 
    148 H148        2.2195  -24.8874  -43.1883 H         1 UNK         0.0600 
    149 H149        1.5969  -21.1512  -42.8503 H         1 UNK         0.3000 
    150 H150        4.9859  -20.9713  -43.1025 H         1 UNK         0.0600 
    151 H151        4.7720  -20.8473  -45.5859 H         1 UNK         0.0600 
    152 H152        4.9118  -19.2445  -44.8786 H         1 UNK         0.0600 
    153 H153        3.3395  -19.8340  -45.4102 H         1 UNK         0.0600 
    154 H154        2.9353  -18.9232  -43.2197 H         1 UNK         0.3000 
    155 H155        2.5285  -18.7155  -39.6755 H         1 UNK         0.0600 
    156 H156        3.8072  -16.8520  -41.7487 H         1 UNK         0.0600 
    157 H157        4.5642  -17.3820  -40.2503 H         1 UNK         0.0600 
    158 H158        3.1300  -16.3670  -40.1966 H         1 UNK         0.0600 
    159 H159        1.3630  -17.2344  -41.8116 H         1 UNK         0.3000 
    160 H160       -1.4713  -19.3721  -42.3155 H         1 UNK         0.0600 
    161 H161       -2.6078  -17.2310  -41.9341 H         1 UNK         0.0600 
    162 H162       -1.1564  -16.5356  -41.2123 H         1 UNK         0.0600 
    163 H163       -1.9941  -17.8574  -40.4165 H         1 UNK         0.0600 
    164 H164       -0.4344  -16.9584  -43.5690 H         1 UNK         0.3000 
    165 H165        1.4379  -18.5887  -46.0326 H         1 UNK         0.0600 
    166 H166        0.0054  -17.8821  -47.8105 H         1 UNK         0.0600 
    167 H167       -0.8692  -19.1327  -46.9627 H         1 UNK         0.0600 
    168 H168       -1.3091  -17.4616  -46.7236 H         1 UNK         0.0600 
    169 H169        0.3008  -15.9208  -45.8161 H         1 UNK         0.3000 
    170 H170        3.0638  -14.6731  -43.8769 H         1 UNK         0.0600 
    171 H171        3.5924  -14.5567  -46.3257 H         1 UNK         0.0600 
    172 H172        1.9212  -14.1284  -46.6698 H         1 UNK         0.0600 
    173 H173        2.9385  -13.0392  -45.7291 H         1 UNK         0.0600 
    174 H174        0.5906  -13.4907  -44.6991 H         1 UNK         0.3000 
    175 H175       -1.5668  -14.3126  -42.6499 H         1 UNK         0.0600 
    176 H176        0.0984  -12.5668  -40.7682 H         1 UNK         0.0600 
    177 H177       -1.6574  -12.7110  -40.7216 H         1 UNK         0.0600 
    178 H178       -0.6548  -14.1043  -40.3617 H         1 UNK         0.0600 
    179 H179       -0.0587  -11.9094  -43.4900 H         1 UNK         0.3000 
    180 H180       -3.4126  -13.0193  -42.5687 H         1 UNK         0.0600 
    181 H181       -5.5320  -12.1681  -43.4911 H         1 UNK         0.0600 
    182 H182       -4.6747  -11.2187  -44.7011 H         1 UNK         0.0600 
    183 H183       -4.5133  -10.8263  -42.9918 H         1 UNK         0.0600 
    184 H184       -3.3089  -13.3577  -45.5389 H         1 UNK         0.3000 
    185 H185       -2.7484  -16.6084  -45.2792 H         1 UNK         0.0600 
    186 H186       -5.1108  -17.2734  -44.8864 H         1 UNK         0.0600 
    187 H187       -5.6591  -16.0945  -46.0731 H         1 UNK         0.0600 
    188 H188       -4.6795  -17.4730  -46.5760 H         1 UNK         0.0600 
    189 H189       -3.8864  -15.2308  -47.5293 H         1 UNK         0.3000 
    190 H190       -1.1792  -21.1085  -45.2103 H         1 UNK         0.3000 
    191 H191       -3.7132  -20.7356  -46.4897 H         1 UNK         0.0600 
    192 H192       -2.9471  -20.6269  -43.5321 H         1 UNK         0.0600 
    193 H193       -4.4260  -19.9812  -44.2295 H         1 UNK         0.0600 
    194 H194       -2.8850  -19.2706  -44.6663 H         1 UNK         0.0600 
    195 H195       -2.3499  -23.5808  -45.2496 H         1 UNK         0.3000 
    196 H196       -5.0222  -24.9292  -45.1916 H         1 UNK         0.0600 
    197 H197       -3.8823  -26.7497  -43.9346 H         1 UNK         0.0600 
    198 H198       -3.8398  -25.2425  -43.0329 H         1 UNK         0.0600 
    199 H199       -2.3965  -25.8095  -43.8669 H         1 UNK         0.0600 
    200 H200       -1.5360  -25.3190  -46.0676 H         1 UNK         0.3000 
    201 H201       -1.9619  -27.5784  -47.6720 H         1 UNK         0.0600 
    202 H202        0.1752  -27.0237  -46.5426 H         1 UNK         0.0600 
    203 H203        0.4242  -25.6618  -47.6313 H         1 UNK         0.0600 
    204 H204        0.4296  -27.3026  -48.2577 H         1 UNK         0.0600 
    205 H205       -2.1915  -24.1849  -48.6576 H         1 UNK         0.3000 
    206 H206       -2.5185  -25.0116  -51.5117 H         1 UNK         0.0600 
    207 H207       -0.3349  -23.8057  -51.1102 H         1 UNK         0.0600 
    208 H208       -1.4315  -22.9074  -52.1458 H         1 UNK         0.0600 
    209 H209       -1.2351  -22.4344  -50.4651 H         1 UNK         0.0600 
    210 H210       -4.4475  -24.6828  -49.2196 H         1 UNK         0.3000 
    211 H211       -6.4758  -23.9152  -48.7710 H         1 UNK         0.0600 
    212 H212       -6.6164  -23.2192  -51.7626 H         1 UNK         0.0600 
    213 H213       -7.9905  -23.3061  -50.6632 H         1 UNK         0.0600 
    214 H214       -7.0600  -24.7486  -51.0195 H         1 UNK         0.0600 
    215 H215       -6.7844  -21.3088  -51.0030 H         1 UNK         0.3000 
    216 H216       -6.6432  -19.3046  -48.9000 H         1 UNK         0.0600 
    217 H217       -7.2659  -17.7628  -50.7516 H         1 UNK         0.0600 
    218 H218       -8.3091  -19.1762  -50.7506 H         1 UNK         0.0600 
    219 H219       -7.0057  -19.0382  -51.9330 H         1 UNK         0.0600 
    220 H220       -4.3188  -20.7183  -50.9931 H         1 UNK         0.3000 
    221 H221       -2.2915  -20.3339  -51.6875 H         1 UNK         0.0600 
    222 H222       -0.6894  -19.0739  -50.3143 H         1 UNK         0.0600 
    223 H223       -1.9939  -18.2110  -49.5002 H         1 UNK         0.0600 
    224 H224       -1.7832  -19.9388  -49.2550 H         1 UNK         0.0600 
    225 H225       -0.7624  -17.9025  -51.9474 H         1 UNK         0.3000 
    226 H226       -0.3008  -16.3980  -53.5231 H         1 UNK         0.0600 
    227 H227       -1.7584  -14.9263  -52.2055 H         1 UNK         0.0600 
    228 H228       -1.9635  -14.5595  -53.9045 H         1 UNK         0.0600 
    229 H229       -3.1942  -15.4857  -53.0495 H         1 UNK         0.0600 
    230 H230       -3.4206  -16.1161  -54.9653 H         1 UNK         0.3000 
    231 H231       -2.5554  -17.1206  -57.5175 H         1 UNK         0.0600 
    232 H232       -4.1646  -15.2430  -57.2886 H         1 UNK         0.0600 
    233 H233       -5.3281  -16.3043  -56.4928 H         1 UNK         0.0600 
    234 H234       -4.8997  -16.5658  -58.1792 H         1 UNK         0.0600 
    235 H235       -4.0422  -18.6828  -54.7445 H         1 UNK         0.3000 
    236 H236       -5.2220  -20.8850  -56.2595 H         1 UNK         0.0600 
    237 H237       -5.7893  -21.7605  -54.0303 H         1 UNK         0.0600 
    238 H238       -4.7647  -20.5673  -53.2554 H         1 UNK         0.0600 
    239 H239       -6.2150  -20.0570  -54.1188 H         1 UNK         0.0600 
    240 H240       -2.0151  -20.1453  -55.2944 H         1 UNK         0.3000 
    241 H241       -1.0240  -22.7740  -54.7324 H         1 UNK         0.0600 
    242 H242       -0.1312  -24.2323  -57.8487 H         1 UNK         0.3800 
    243 H243       -0.0657  -24.3641  -56.1151 H         1 UNK         0.3800 
    244 H244        0.4476  -20.2759  -55.7195 H         1 UNK         0.0800 
    245 H245        1.2340  -21.7465  -55.1966 H         1 UNK         0.0800 
    246 H246        2.6859  -20.2890  -53.6202 H         1 UNK         0.0800 
    247 H247        1.8155  -18.8087  -53.9644 H         1 UNK         0.0800 
@<TRIPOS>BOND
     1    1    2 1    
     2    1  127 1    
     3    1  128 1    
     4    1  129 1    
     5    2    3 2    
     6    2    4 am   BACKBONE|DICT|INTERRES
     7    4    5 1    
     8    4  130 1    
     9    5    6 1    
    10    5   65 1    
    11    5  131 1    
    12    6    7 1    
    13    6  132 1    
    14    6  133 1    
    15    7    8 1    
    16    8    9 1    
    17    8  134 1    
    18    8  135 1    
    19    9   10 ar   
    20    9   14 ar   
    21   10   11 ar   
    22   10  136 1    
    23   11   12 ar   
    24   11  126 1    
    25   12   13 ar   
    26   12  137 1    
    27   13   14 ar   
    28   13   15 1    
    29   14  138 1    
    30   15   16 1    
    31   15  139 1    
    32   15  140 1    
    33   16   17 1    
    34   17   18 1    
    35   17  141 1    
    36   17  142 1    
    37   18   19 1    
    38   18   67 1    
    39   18  143 1    
    40   19   20 am   BACKBONE|DICT|INTERRES
    41   19  144 1    
    42   20   21 2    
    43   20   22 1    
    44   22   23 1    
    45   22   24 1    
    46   22  145 1    
    47   23  146 1    
    48   23  147 1    
    49   23  148 1    
    50   24   25 am   BACKBONE|DICT|INTERRES
    51   24  149 1    
    52   25   26 2    
    53   25   27 1    
    54   27   28 1    
    55   27   29 1    
    56   27  150 1    
    57   28  151 1    
    58   28  152 1    
    59   28  153 1    
    60   29   30 am   BACKBONE|DICT|INTERRES
    61   29  154 1    
    62   30   31 2    
    63   30   32 1    
    64   32   33 1    
    65   32   34 1    
    66   32  155 1    
    67   33  156 1    
    68   33  157 1    
    69   33  158 1    
    70   34   35 am   BACKBONE|DICT|INTERRES
    71   34  159 1    
    72   35   36 2    
    73   35   37 1    
    74   37   38 1    
    75   37   39 1    
    76   37  160 1    
    77   38  161 1    
    78   38  162 1    
    79   38  163 1    
    80   39   40 am   BACKBONE|DICT|INTERRES
    81   39  164 1    
    82   40   41 2    
    83   40   42 1    
    84   42   43 1    
    85   42   44 1    
    86   42  165 1    
    87   43  166 1    
    88   43  167 1    
    89   43  168 1    
    90   44   45 am   BACKBONE|DICT|INTERRES
    91   44  169 1    
    92   45   46 2    
    93   45   47 1    
    94   47   48 1    
    95   47   49 1    
    96   47  170 1    
    97   48  171 1    
    98   48  172 1    
    99   48  173 1    
   100   49   50 am   BACKBONE|DICT|INTERRES
   101   49  174 1    
   102   50   51 2    
   103   50   52 1    
   104   52   53 1    
   105   52   54 1    
   106   52  175 1    
   107   53  176 1    
   108   53  177 1    
   109   53  178 1    
   110   54   55 am   BACKBONE|DICT|INTERRES
   111   54  179 1    
   112   55   56 2    
   113   55   57 1    
   114   57   58 1    
   115   57   59 1    
   116   57  180 1    
   117   58  181 1    
   118   58  182 1    
   119   58  183 1    
   120   59   60 am   BACKBONE|DICT|INTERRES
   121   59  184 1    
   122   60   61 2    
   123   60   62 1    
   124   62   63 1    
   125   62   64 1    
   126   62  185 1    
   127   63  186 1    
   128   63  187 1    
   129   63  188 1    
   130   64   65 am   BACKBONE|DICT|INTERRES
   131   64  189 1    
   132   65   66 2    
   133   67   68 2    
   134   67   69 am   BACKBONE|DICT|INTERRES
   135   69   70 1    
   136   69  190 1    
   137   70   71 1    
   138   70   72 1    
   139   70  191 1    
   140   71  192 1    
   141   71  193 1    
   142   71  194 1    
   143   72   73 2    
   144   72   74 am   BACKBONE|DICT|INTERRES
   145   74   75 1    
   146   74  195 1    
   147   75   76 1    
   148   75   77 1    
   149   75  196 1    
   150   76  197 1    
   151   76  198 1    
   152   76  199 1    
   153   77   78 2    
   154   77   79 am   BACKBONE|DICT|INTERRES
   155   79   80 1    
   156   79  200 1    
   157   80   81 1    
   158   80   82 1    
   159   80  201 1    
   160   81  202 1    
   161   81  203 1    
   162   81  204 1    
   163   82   83 2    
   164   82   84 am   BACKBONE|DICT|INTERRES
   165   84   85 1    
   166   84  205 1    
   167   85   86 1    
   168   85   87 1    
   169   85  206 1    
   170   86  207 1    
   171   86  208 1    
   172   86  209 1    
   173   87   88 2    
   174   87   89 am   BACKBONE|DICT|INTERRES
   175   89   90 1    
   176   89  210 1    
   177   90   91 1    
   178   90   92 1    
   179   90  211 1    
   180   91  212 1    
   181   91  213 1    
   182   91  214 1    
   183   92   93 2    
   184   92   94 am   BACKBONE|DICT|INTERRES
   185   94   95 1    
   186   94  215 1    
   187   95   96 1    
   188   95   97 1    
   189   95  216 1    
   190   96  217 1    
   191   96  218 1    
   192   96  219 1    
   193   97   98 2    
   194   97   99 am   BACKBONE|DICT|INTERRES
   195   99  100 1    
   196   99  220 1    
   197  100  101 1    
   198  100  102 1    
   199  100  221 1    
   200  101  222 1    
   201  101  223 1    
   202  101  224 1    
   203  102  103 2    
   204  102  104 am   BACKBONE|DICT|INTERRES
   205  104  105 1    
   206  104  225 1    
   207  105  106 1    
   208  105  107 1    
   209  105  226 1    
   210  106  227 1    
   211  106  228 1    
   212  106  229 1    
   213  107  108 2    
   214  107  109 am   BACKBONE|DICT|INTERRES
   215  109  110 1    
   216  109  230 1    
   217  110  111 1    
   218  110  112 1    
   219  110  231 1    
   220  111  232 1    
   221  111  233 1    
   222  111  234 1    
   223  112  113 2    
   224  112  114 am   BACKBONE|DICT|INTERRES
   225  114  115 1    
   226  114  235 1    
   227  115  116 1    
   228  115  117 1    
   229  115  236 1    
   230  116  237 1    
   231  116  238 1    
   232  116  239 1    
   233  117  118 2    
   234  117  119 am   BACKBONE|DICT|INTERRES
   235  119  120 1    
   236  119  240 1    
   237  120  121 1    
   238  120  124 1    
   239  120  241 1    
   240  121  122 am   BACKBONE|DICT|INTERRES
   241  121  123 2    
   242  122  242 1    
   243  122  243 1    
   244  124  125 1    
   245  124  244 1    
   246  124  245 1    
   247  125  126 1    
   248  126  246 1    
   249  126  247 1    
@<TRIPOS>SUBSTRUCTURE
     1 UNK         1 GROUP             0       ****    0 ROOT    
