@<TRIPOS>MOLECULE
3R540
247   249    1
SMALL
USER_CHARGES


@<TRIPOS>ATOM
      1 CA         -1.8578  -12.1724  -53.1693 C.3       0 UNK        -0.1800 
      2 C          -1.1783  -12.7131  -51.9192 C.2       0 UNK         0.5000 
      3 O          -1.7412  -12.6268  -50.8281 O.2       0 UNK        -0.5000 
      4 N           0.0242  -13.2839  -52.0772 N.am      1 UNK        -0.5000 
      5 CA          0.8383  -13.8614  -50.9965 C.3       1 UNK         0.1400 
      6 C6          2.2837  -14.1404  -51.4902 C.3       23 UNK        -0.0398 
      7 S7          3.5204  -14.1989  -50.1452 S.3       23 UNK        -0.2404 
      8 C8          4.4732  -15.7068  -50.5450 C.3       23 UNK        -0.0205 
      9 C9          3.6065  -16.9579  -50.6017 C.ar      23 UNK        -0.0193 
     10 C10         3.5143  -17.7016  -51.7817 C.ar      23 UNK        -0.1150 
     11 C11         2.6577  -18.8058  -51.8648 C.ar      23 UNK        -0.0193 
     12 C12         1.9088  -19.1762  -50.7435 C.ar      23 UNK        -0.1150 
     13 C13         2.0018  -18.4458  -49.5561 C.ar      23 UNK        -0.0193 
     14 C14         2.8679  -17.3534  -49.4853 C.ar      23 UNK        -0.1150 
     15 C15         1.1215  -18.7865  -48.3678 C.3       23 UNK        -0.0205 
     16 S16         2.0538  -19.6380  -47.0664 S.3       23 UNK        -0.2404 
     17 C17         0.7408  -19.8141  -45.8165 C.3       23 UNK        -0.0398 
     18 CA          0.1008  -21.2186  -45.8552 C.3       11 UNK         0.1400 
     19 N           1.0724  -22.2830  -45.5932 N.am      11 UNK        -0.5000 
     20 C           0.9182  -23.5635  -45.9511 C.2       10 UNK         0.5000 
     21 O          -0.0665  -23.9895  -46.5494 O.2       10 UNK        -0.5000 
     22 CA          2.0462  -24.5360  -45.5615 C.3       10 UNK         0.1400 
     23 CB          3.1380  -24.5505  -46.6418 C.3       10 UNK        -0.1800 
     24 N           2.6505  -24.2093  -44.2699 N.am      10 UNK        -0.5000 
     25 C           2.0316  -24.3456  -43.0890 C.2       9 UNK         0.5000 
     26 O           0.9010  -24.8151  -42.9571 O.2       9 UNK        -0.5000 
     27 CA          2.7919  -23.8286  -41.8517 C.3       9 UNK         0.1400 
     28 CB          3.6884  -24.9323  -41.2708 C.3       9 UNK        -0.1800 
     29 N           3.6008  -22.6287  -42.1029 N.am      9 UNK        -0.5000 
     30 C           3.1132  -21.4600  -42.5389 C.2       8 UNK         0.5000 
     31 O           1.9366  -21.2928  -42.8666 O.2       8 UNK        -0.5000 
     32 CA          4.1041  -20.2915  -42.6736 C.3       8 UNK         0.1400 
     33 CB          4.7086  -20.2604  -44.0846 C.3       8 UNK        -0.1800 
     34 N           3.4259  -19.0215  -42.4174 N.am      8 UNK        -0.5000 
     35 C           3.0301  -18.6099  -41.2067 C.2       7 UNK         0.5000 
     36 O           3.3300  -19.1998  -40.1668 O.2       7 UNK        -0.5000 
     37 CA          2.1191  -17.3678  -41.1231 C.3       7 UNK         0.1400 
     38 CB          2.6545  -16.3280  -40.1172 C.3       7 UNK        -0.1800 
     39 N           1.7780  -16.7305  -42.4020 N.am      7 UNK        -0.5000 
     40 C           2.5755  -16.0293  -43.2252 C.2       6 UNK         0.5000 
     41 O           3.7969  -15.9526  -43.0947 O.2       6 UNK        -0.5000 
     42 CA          1.8936  -15.2661  -44.3842 C.3       6 UNK         0.1400 
     43 CB          2.0476  -16.0391  -45.7018 C.3       6 UNK        -0.1800 
     44 N           0.4704  -15.0002  -44.1522 N.am      6 UNK        -0.5000 
     45 C          -0.0168  -14.2293  -43.1656 C.2       5 UNK         0.5000 
     46 O           0.6922  -13.5321  -42.4393 O.2       5 UNK        -0.5000 
     47 CA         -1.5401  -14.2634  -42.9097 C.3       5 UNK         0.1400 
     48 CB         -2.1975  -12.9705  -43.4174 C.3       5 UNK        -0.1800 
     49 N          -2.2360  -15.4048  -43.5089 N.am      5 UNK        -0.5000 
     50 C          -1.9981  -16.7055  -43.2819 C.2       4 UNK         0.5000 
     51 O          -1.1850  -17.1189  -42.4549 O.2       4 UNK        -0.5000 
     52 CA         -2.7425  -17.7111  -44.1861 C.3       4 UNK         0.1400 
     53 CB         -3.9145  -18.3606  -43.4360 C.3       4 UNK        -0.1800 
     54 N          -3.2380  -17.1300  -45.4407 N.am      4 UNK        -0.5000 
     55 C          -2.4651  -16.5977  -46.3984 C.2       3 UNK         0.5000 
     56 O          -1.2363  -16.5337  -46.3216 O.2       3 UNK        -0.5000 
     57 CA         -3.2096  -15.9567  -47.5870 C.3       3 UNK         0.1400 
     58 CB         -3.4977  -14.4770  -47.2890 C.3       3 UNK        -0.1800 
     59 N          -2.4849  -16.0432  -48.8541 N.am      3 UNK        -0.5000 
     60 C          -2.0794  -17.1774  -49.4384 C.2       2 UNK         0.5000 
     61 O          -2.2838  -18.2967  -48.9693 O.2       2 UNK        -0.5000 
     62 CA         -1.3571  -17.0647  -50.7967 C.3       2 UNK         0.1400 
     63 CB         -2.3549  -17.3668  -51.9268 C.3       2 UNK        -0.1800 
     64 N          -0.6930  -15.7916  -51.1037 N.am      2 UNK        -0.5000 
     65 C           0.1918  -15.1142  -50.3536 C.2       1 UNK         0.5000 
     66 O           0.4853  -15.4151  -49.1998 O.2       1 UNK        -0.5000 
     67 C          -1.0770  -21.2986  -44.8713 C.2       11 UNK         0.5000 
     68 O          -2.2254  -21.1369  -45.2836 O.2       11 UNK        -0.5000 
     69 N          -0.7711  -21.5816  -43.5970 N.am      12 UNK        -0.5000 
     70 CA         -1.7243  -21.7426  -42.4974 C.3       12 UNK         0.1400 
     71 CB         -0.9467  -21.9545  -41.1905 C.3       12 UNK        -0.1800 
     72 C          -2.7449  -22.8769  -42.7132 C.2       12 UNK         0.5000 
     73 O          -3.8329  -22.8288  -42.1371 O.2       12 UNK        -0.5000 
     74 N          -2.4043  -23.8495  -43.5697 N.am      13 UNK        -0.5000 
     75 CA         -3.2892  -24.8958  -44.0753 C.3       13 UNK         0.1400 
     76 CB         -2.4302  -26.0225  -44.6755 C.3       13 UNK        -0.1800 
     77 C          -4.3148  -24.3299  -45.0829 C.2       13 UNK         0.5000 
     78 O          -4.2476  -24.6314  -46.2756 O.2       13 UNK        -0.5000 
     79 N          -5.2404  -23.5062  -44.5721 N.am      14 UNK        -0.5000 
     80 CA         -6.4012  -22.9248  -45.2529 C.3       14 UNK         0.1400 
     81 CB         -7.4411  -24.0263  -45.5496 C.3       14 UNK        -0.1800 
     82 C          -6.0381  -22.0993  -46.5044 C.2       14 UNK         0.5000 
     83 O          -6.6279  -22.3083  -47.5646 O.2       14 UNK        -0.5000 
     84 N          -5.0617  -21.1896  -46.3638 N.am      15 UNK        -0.5000 
     85 CA         -4.5209  -20.3227  -47.4203 C.3       15 UNK         0.1400 
     86 CB         -5.5776  -19.3052  -47.9012 C.3       15 UNK        -0.1800 
     87 C          -3.9052  -21.1495  -48.5660 C.2       15 UNK         0.5000 
     88 O          -4.2988  -21.0045  -49.7252 O.2       15 UNK        -0.5000 
     89 N          -2.9865  -22.0494  -48.1849 N.am      16 UNK        -0.5000 
     90 CA         -2.2779  -23.0037  -49.0436 C.3       16 UNK         0.1400 
     91 CB         -1.2493  -22.2683  -49.9287 C.3       16 UNK        -0.1800 
     92 C          -3.2373  -23.9142  -49.8378 C.2       16 UNK         0.5000 
     93 O          -3.1093  -24.0399  -51.0568 O.2       16 UNK        -0.5000 
     94 N          -4.1943  -24.5151  -49.1143 N.am      17 UNK        -0.5000 
     95 CA         -5.2907  -25.3515  -49.6096 C.3       17 UNK         0.1400 
     96 CB         -4.7528  -26.6838  -50.1722 C.3       17 UNK        -0.1800 
     97 C          -6.2079  -24.5943  -50.5933 C.2       17 UNK         0.5000 
     98 O          -6.5201  -25.1037  -51.6716 O.2       17 UNK        -0.5000 
     99 N          -6.6167  -23.3846  -50.1852 N.am      18 UNK        -0.5000 
    100 CA        -7.4678  -22.4336  -50.9010 C.3       18 UNK         0.1400 
    101 CB        -8.9110  -22.9700  -51.0027 C.3       18 UNK        -0.1800 
    102 C         -6.8789  -22.0016  -52.2592 C.2       18 UNK         0.5000 
    103 O         -7.5733  -22.0418  -53.2779 O.2       18 UNK        -0.5000 
    104 N         -5.6033  -21.5921  -52.2525 N.am      19 UNK        -0.5000 
    105 CA        -4.9227  -21.0159  -53.4109 C.3       19 UNK         0.1400 
    106 CB        -3.4109  -20.9639  -53.1450 C.3       19 UNK        -0.1800 
    107 C         -5.4865  -19.6176  -53.7265 C.2       19 UNK         0.5000 
    108 O         -5.6475  -18.8041  -52.8138 O.2       19 UNK        -0.5000 
    109 N         -5.7980  -19.3734  -55.0059 N.am      20 UNK        -0.5000 
    110 CA        -6.4547  -18.1501  -55.4742 C.3       20 UNK         0.1400 
    111 CB        -6.9619  -18.3656  -56.9086 C.3       20 UNK        -0.1800 
    112 C         -5.5555  -16.9032  -55.4014 C.2       20 UNK         0.5000 
    113 O         -6.0462  -15.8192  -55.0828 O.2       20 UNK        -0.5000 
    114 N         -4.2626  -17.0804  -55.6922 N.am      21 UNK        -0.5000 
    115 CA        -3.2354  -16.0467  -55.6741 C.3       21 UNK         0.1400 
    116 CB        -3.4018  -15.0961  -56.8758 C.3       21 UNK        -0.1800 
    117 C         -1.8584  -16.7209  -55.7069 C.2       21 UNK         0.5000 
    118 O         -1.7396  -17.8558  -56.1761 O.2       21 UNK        -0.5000 
    119 N         -0.8467  -15.9991  -55.2188 N.am      22 UNK        -0.5000 
    120 CA         0.5700  -16.3953  -55.2198 C.3       22 UNK         0.1400 
    121 C          1.5172  -15.1599  -55.1093 C.2       22 UNK         0.5000 
    122 N          1.0680  -13.9499  -55.4294 N.am      22 UNK        -0.7600 
    123 O          2.6748  -15.2791  -54.7228 O.2       22 UNK        -0.5000 
    124 C124        0.8699  -17.5198  -54.1861 C.3       23 UNK        -0.0398 
    125 S125        2.3095  -18.5457  -54.6450 S.3       23 UNK        -0.2404 
    126 C126        2.5135  -19.5938  -53.1635 C.3       23 UNK        -0.0205 
    127 H127       -1.2193  -12.2575  -54.0487 H         1 UNK         0.0600 
    128 H128       -2.1077  -11.1201  -53.0340 H         1 UNK         0.0600 
    129 H129       -2.7803  -12.7202  -53.3620 H         1 UNK         0.0600 
    130 H130        0.4433  -13.2993  -52.9967 H         1 UNK         0.3000 
    131 H131        0.8928  -13.1013  -50.2139 H         1 UNK         0.0600 
    132 H132        2.3186  -15.0550  -52.0819 H         1 UNK         0.0800 
    133 H133        2.6071  -13.3458  -52.1642 H         1 UNK         0.0800 
    134 H134        5.2465  -15.8470  -49.7887 H         1 UNK         0.0800 
    135 H135        4.9926  -15.5521  -51.4921 H         1 UNK         0.0800 
    136 H136        4.0833  -17.4006  -52.6502 H         1 UNK         0.1150 
    137 H137        1.2337  -20.0188  -50.8002 H         1 UNK         0.1150 
    138 H138        2.9223  -16.7745  -48.5739 H         1 UNK         0.1150 
    139 H139        0.6909  -17.8672  -47.9668 H         1 UNK         0.0800 
    140 H140        0.2813  -19.4094  -48.6776 H         1 UNK         0.0800 
    141 H141       -0.0143  -19.0422  -45.9781 H         1 UNK         0.0800 
    142 H142        1.1747  -19.6095  -44.8364 H         1 UNK         0.0800 
    143 H143       -0.3081  -21.3687  -46.8567 H         1 UNK         0.0600 
    144 H144        1.8858  -22.0218  -45.0553 H         1 UNK         0.3000 
    145 H145        1.6151  -25.5374  -45.4959 H         1 UNK         0.0600 
    146 H146        3.6189  -23.5765  -46.7430 H         1 UNK         0.0600 
    147 H147        3.9102  -25.2851  -46.4127 H         1 UNK         0.0600 
    148 H148        2.7199  -24.8124  -47.6147 H         1 UNK         0.0600 
    149 H149        3.5812  -23.8192  -44.2835 H         1 UNK         0.3000 
    150 H150        2.0460  -23.5672  -41.0986 H         1 UNK         0.0600 
    151 H151        3.1102  -25.8315  -41.0537 H         1 UNK         0.0600 
    152 H152        4.1523  -24.6136  -40.3371 H         1 UNK         0.0600 
    153 H153        4.4832  -25.2122  -41.9633 H         1 UNK         0.0600 
    154 H154        4.5813  -22.6933  -41.8695 H         1 UNK         0.3000 
    155 H155        4.9093  -20.4174  -41.9468 H         1 UNK         0.0600 
    156 H156        5.2499  -21.1823  -44.3004 H         1 UNK         0.0600 
    157 H157        5.4145  -19.4367  -44.1927 H         1 UNK         0.0600 
    158 H158        3.9409  -20.1443  -44.8491 H         1 UNK         0.0600 
    159 H159        3.1305  -18.4884  -43.2206 H         1 UNK         0.3000 
    160 H160        1.1699  -17.7347  -40.7297 H         1 UNK         0.0600 
    161 H161        1.9801  -15.4753  -40.0357 H         1 UNK         0.0600 
    162 H162        3.6370  -15.9532  -40.4047 H         1 UNK         0.0600 
    163 H163        2.7510  -16.7598  -39.1204 H         1 UNK         0.0600 
    164 H164        0.7859  -16.7530  -42.6176 H         1 UNK         0.3000 
    165 H165        2.4028  -14.3060  -44.4883 H         1 UNK         0.0600 
    166 H166        1.5225  -16.9926  -45.6644 H         1 UNK         0.0600 
    167 H167        1.6460  -15.4735  -46.5433 H         1 UNK         0.0600 
    168 H168        3.0956  -16.2476  -45.9202 H         1 UNK         0.0600 
    169 H169       -0.1795  -15.5114  -44.7392 H         1 UNK         0.3000 
    170 H170       -1.6831  -14.3228  -41.8290 H         1 UNK         0.0600 
    171 H171       -2.1078  -12.8733  -44.5002 H         1 UNK         0.0600 
    172 H172       -3.2571  -12.9390  -43.1629 H         1 UNK         0.0600 
    173 H173       -1.7321  -12.0916  -42.9692 H         1 UNK         0.0600 
    174 H174       -2.9214  -15.1792  -44.2134 H         1 UNK         0.3000 
    175 H175       -2.0266  -18.4928  -44.4430 H         1 UNK         0.0600 
    176 H176       -4.7029  -17.6389  -43.2195 H         1 UNK         0.0600 
    177 H177       -4.3503  -19.1738  -44.0167 H         1 UNK         0.0600 
    178 H178       -3.5879  -18.7813  -42.4844 H         1 UNK         0.0600 
    179 H179       -4.2408  -17.1189  -45.5584 H         1 UNK         0.3000 
    180 H180       -4.1597  -16.4770  -47.7207 H         1 UNK         0.0600 
    181 H181       -2.5755  -13.9067  -47.1679 H         1 UNK         0.0600 
    182 H182       -4.0776  -14.3634  -46.3723 H         1 UNK         0.0600 
    183 H183       -4.0723  -14.0164  -48.0930 H         1 UNK         0.0600 
    184 H184       -2.2249  -15.1699  -49.2886 H         1 UNK         0.3000 
    185 H185       -0.5899  -17.8390  -50.8062 H         1 UNK         0.0600 
    186 H186       -1.8448  -17.5732  -52.8647 H         1 UNK         0.0600 
    187 H187       -2.9622  -18.2414  -51.6946 H         1 UNK         0.0600 
    188 H188       -3.0437  -16.5370  -52.0900 H         1 UNK         0.0600 
    189 H189       -0.8969  -15.4065  -52.0119 H         1 UNK         0.3000 
    190 H190        0.2131  -21.6483  -43.3442 H         1 UNK         0.3000 
    191 H191       -2.2867  -20.8116  -42.4138 H         1 UNK         0.0600 
    192 H192       -0.3545  -22.8694  -41.2226 H         1 UNK         0.0600 
    193 H193       -0.2691  -21.1229  -40.9945 H         1 UNK         0.0600 
    194 H194       -1.6240  -22.0303  -40.3390 H         1 UNK         0.0600 
    195 H195       -1.4869  -23.8027  -43.9899 H         1 UNK         0.3000 
    196 H196       -3.8479  -25.3156  -43.2363 H         1 UNK         0.0600 
    197 H197       -1.7338  -26.4235  -43.9386 H         1 UNK         0.0600 
    198 H198       -1.8488  -25.6767  -45.5302 H         1 UNK         0.0600 
    199 H199       -3.0548  -26.8485  -45.0175 H         1 UNK         0.0600 
    200 H200       -5.1378  -23.2643  -43.5911 H         1 UNK         0.3000 
    201 H201       -6.8541  -22.2253  -44.5489 H         1 UNK         0.0600 
    202 H202       -8.3575  -23.6004  -45.9601 H         1 UNK         0.0600 
    203 H203       -7.7140  -24.5656  -44.6427 H         1 UNK         0.0600 
    204 H204       -7.0660  -24.7528  -46.2714 H         1 UNK         0.0600 
    205 H205       -4.5651  -21.1523  -45.4834 H         1 UNK         0.3000 
    206 H206       -3.7037  -19.7521  -46.9774 H         1 UNK         0.0600 
    207 H207       -6.4255  -19.7911  -48.3841 H         1 UNK         0.0600 
    208 H208       -5.1457  -18.6158  -48.6276 H         1 UNK         0.0600 
    209 H209       -5.9582  -18.7102  -47.0715 H         1 UNK         0.0600 
    210 H210       -2.7775  -22.1043  -47.1955 H         1 UNK         0.3000 
    211 H211       -1.7287  -23.6703  -48.3823 H         1 UNK         0.0600 
    212 H212       -0.5400  -21.7061  -49.3222 H         1 UNK         0.0600 
    213 H213       -0.6729  -22.9735  -50.5284 H         1 UNK         0.0600 
    214 H214       -1.7298  -21.5700  -50.6138 H         1 UNK         0.0600 
    215 H215       -4.1941  -24.3705  -48.1058 H         1 UNK         0.3000 
    216 H216       -5.9059  -25.5880  -48.7401 H         1 UNK         0.0600 
    217 H217       -5.5717  -27.3556  -50.4318 H         1 UNK         0.0600 
    218 H218       -4.1555  -26.5343  -51.0721 H         1 UNK         0.0600 
    219 H219       -4.1318  -27.1981  -49.4387 H         1 UNK         0.0600 
    220 H220       -6.3254  -23.0642  -49.2645 H         1 UNK         0.3000 
    221 H221       -7.4962  -21.5338  -50.2845 H         1 UNK         0.0600 
    222 H222       -8.9704  -23.8608  -51.6286 H         1 UNK         0.0600 
    223 H223       -9.3056  -23.2240  -50.0188 H         1 UNK         0.0600 
    224 H224       -9.5760  -22.2213  -51.4347 H         1 UNK         0.0600 
    225 H225       -5.1124  -21.5276  -51.3629 H         1 UNK         0.3000 
    226 H226       -5.0925  -21.6695  -54.2692 H         1 UNK         0.0600 
    227 H227       -2.8812  -20.4695  -53.9604 H         1 UNK         0.0600 
    228 H228       -3.1852  -20.4246  -52.2263 H         1 UNK         0.0600 
    229 H229       -2.9971  -21.9676  -53.0460 H         1 UNK         0.0600 
    230 H230       -5.6416  -20.0931  -55.6967 H         1 UNK         0.3000 
    231 H231       -7.3214  -17.9676  -54.8349 H         1 UNK         0.0600 
    232 H232       -7.4757  -17.4772  -57.2785 H         1 UNK         0.0600 
    233 H233       -7.6708  -19.1925  -56.9566 H         1 UNK         0.0600 
    234 H234       -6.1445  -18.5823  -57.5976 H         1 UNK         0.0600 
    235 H235       -3.9194  -18.0046  -55.9227 H         1 UNK         0.3000 
    236 H236       -3.3236  -15.4821  -54.7433 H         1 UNK         0.0600 
    237 H237       -4.3539  -14.5669  -56.8404 H         1 UNK         0.0600 
    238 H238       -2.6172  -14.3390  -56.8918 H         1 UNK         0.0600 
    239 H239       -3.3558  -15.6369  -57.8220 H         1 UNK         0.0600 
    240 H240       -1.0317  -15.0749  -54.8600 H         1 UNK         0.3000 
    241 H241        0.7695  -16.7985  -56.2144 H         1 UNK         0.0600 
    242 H242        1.7141  -13.1770  -55.3838 H         1 UNK         0.3800 
    243 H243        0.1852  -13.8207  -55.8959 H         1 UNK         0.3800 
    244 H244        1.0054  -17.0949  -53.1912 H         1 UNK         0.0800 
    245 H245        0.0270  -18.2059  -54.1073 H         1 UNK         0.0800 
    246 H246        3.3989  -20.2170  -53.2934 H         1 UNK         0.0800 
    247 H247        1.6626  -20.2746  -53.1069 H         1 UNK         0.0800 
@<TRIPOS>BOND
     1    1    2 1    
     2    1  127 1    
     3    1  128 1    
     4    1  129 1    
     5    2    3 2    
     6    2    4 am   BACKBONE|DICT|INTERRES
     7    4    5 1    
     8    4  130 1    
     9    5    6 1    
    10    5   65 1    
    11    5  131 1    
    12    6    7 1    
    13    6  132 1    
    14    6  133 1    
    15    7    8 1    
    16    8    9 1    
    17    8  134 1    
    18    8  135 1    
    19    9   10 ar   
    20    9   14 ar   
    21   10   11 ar   
    22   10  136 1    
    23   11   12 ar   
    24   11  126 1    
    25   12   13 ar   
    26   12  137 1    
    27   13   14 ar   
    28   13   15 1    
    29   14  138 1    
    30   15   16 1    
    31   15  139 1    
    32   15  140 1    
    33   16   17 1    
    34   17   18 1    
    35   17  141 1    
    36   17  142 1    
    37   18   19 1    
    38   18   67 1    
    39   18  143 1    
    40   19   20 am   BACKBONE|DICT|INTERRES
    41   19  144 1    
    42   20   21 2    
    43   20   22 1    
    44   22   23 1    
    45   22   24 1    
    46   22  145 1    
    47   23  146 1    
    48   23  147 1    
    49   23  148 1    
    50   24   25 am   BACKBONE|DICT|INTERRES
    51   24  149 1    
    52   25   26 2    
    53   25   27 1    
    54   27   28 1    
    55   27   29 1    
    56   27  150 1    
    57   28  151 1    
    58   28  152 1    
    59   28  153 1    
    60   29   30 am   BACKBONE|DICT|INTERRES
    61   29  154 1    
    62   30   31 2    
    63   30   32 1    
    64   32   33 1    
    65   32   34 1    
    66   32  155 1    
    67   33  156 1    
    68   33  157 1    
    69   33  158 1    
    70   34   35 am   BACKBONE|DICT|INTERRES
    71   34  159 1    
    72   35   36 2    
    73   35   37 1    
    74   37   38 1    
    75   37   39 1    
    76   37  160 1    
    77   38  161 1    
    78   38  162 1    
    79   38  163 1    
    80   39   40 am   BACKBONE|DICT|INTERRES
    81   39  164 1    
    82   40   41 2    
    83   40   42 1    
    84   42   43 1    
    85   42   44 1    
    86   42  165 1    
    87   43  166 1    
    88   43  167 1    
    89   43  168 1    
    90   44   45 am   BACKBONE|DICT|INTERRES
    91   44  169 1    
    92   45   46 2    
    93   45   47 1    
    94   47   48 1    
    95   47   49 1    
    96   47  170 1    
    97   48  171 1    
    98   48  172 1    
    99   48  173 1    
   100   49   50 am   BACKBONE|DICT|INTERRES
   101   49  174 1    
   102   50   51 2    
   103   50   52 1    
   104   52   53 1    
   105   52   54 1    
   106   52  175 1    
   107   53  176 1    
   108   53  177 1    
   109   53  178 1    
   110   54   55 am   BACKBONE|DICT|INTERRES
   111   54  179 1    
   112   55   56 2    
   113   55   57 1    
   114   57   58 1    
   115   57   59 1    
   116   57  180 1    
   117   58  181 1    
   118   58  182 1    
   119   58  183 1    
   120   59   60 am   BACKBONE|DICT|INTERRES
   121   59  184 1    
   122   60   61 2    
   123   60   62 1    
   124   62   63 1    
   125   62   64 1    
   126   62  185 1    
   127   63  186 1    
   128   63  187 1    
   129   63  188 1    
   130   64   65 am   BACKBONE|DICT|INTERRES
   131   64  189 1    
   132   65   66 2    
   133   67   68 2    
   134   67   69 am   BACKBONE|DICT|INTERRES
   135   69   70 1    
   136   69  190 1    
   137   70   71 1    
   138   70   72 1    
   139   70  191 1    
   140   71  192 1    
   141   71  193 1    
   142   71  194 1    
   143   72   73 2    
   144   72   74 am   BACKBONE|DICT|INTERRES
   145   74   75 1    
   146   74  195 1    
   147   75   76 1    
   148   75   77 1    
   149   75  196 1    
   150   76  197 1    
   151   76  198 1    
   152   76  199 1    
   153   77   78 2    
   154   77   79 am   BACKBONE|DICT|INTERRES
   155   79   80 1    
   156   79  200 1    
   157   80   81 1    
   158   80   82 1    
   159   80  201 1    
   160   81  202 1    
   161   81  203 1    
   162   81  204 1    
   163   82   83 2    
   164   82   84 am   BACKBONE|DICT|INTERRES
   165   84   85 1    
   166   84  205 1    
   167   85   86 1    
   168   85   87 1    
   169   85  206 1    
   170   86  207 1    
   171   86  208 1    
   172   86  209 1    
   173   87   88 2    
   174   87   89 am   BACKBONE|DICT|INTERRES
   175   89   90 1    
   176   89  210 1    
   177   90   91 1    
   178   90   92 1    
   179   90  211 1    
   180   91  212 1    
   181   91  213 1    
   182   91  214 1    
   183   92   93 2    
   184   92   94 am   BACKBONE|DICT|INTERRES
   185   94   95 1    
   186   94  215 1    
   187   95   96 1    
   188   95   97 1    
   189   95  216 1    
   190   96  217 1    
   191   96  218 1    
   192   96  219 1    
   193   97   98 2    
   194   97   99 am   BACKBONE|DICT|INTERRES
   195   99  100 1    
   196   99  220 1    
   197  100  101 1    
   198  100  102 1    
   199  100  221 1    
   200  101  222 1    
   201  101  223 1    
   202  101  224 1    
   203  102  103 2    
   204  102  104 am   BACKBONE|DICT|INTERRES
   205  104  105 1    
   206  104  225 1    
   207  105  106 1    
   208  105  107 1    
   209  105  226 1    
   210  106  227 1    
   211  106  228 1    
   212  106  229 1    
   213  107  108 2    
   214  107  109 am   BACKBONE|DICT|INTERRES
   215  109  110 1    
   216  109  230 1    
   217  110  111 1    
   218  110  112 1    
   219  110  231 1    
   220  111  232 1    
   221  111  233 1    
   222  111  234 1    
   223  112  113 2    
   224  112  114 am   BACKBONE|DICT|INTERRES
   225  114  115 1    
   226  114  235 1    
   227  115  116 1    
   228  115  117 1    
   229  115  236 1    
   230  116  237 1    
   231  116  238 1    
   232  116  239 1    
   233  117  118 2    
   234  117  119 am   BACKBONE|DICT|INTERRES
   235  119  120 1    
   236  119  240 1    
   237  120  121 1    
   238  120  124 1    
   239  120  241 1    
   240  121  122 am   BACKBONE|DICT|INTERRES
   241  121  123 2    
   242  122  242 1    
   243  122  243 1    
   244  124  125 1    
   245  124  244 1    
   246  124  245 1    
   247  125  126 1    
   248  126  246 1    
   249  126  247 1    
@<TRIPOS>SUBSTRUCTURE
     1 UNK         1 GROUP             0       ****    0 ROOT    
