@<TRIPOS>MOLECULE
3R540
247   249    1
SMALL
USER_CHARGES


@<TRIPOS>ATOM
      1 CA         -2.6740  -17.1326  -49.3362 C.3       0 UNK        -0.1800 
      2 C          -1.9750  -15.8607  -49.7842 C.2       0 UNK         0.5000 
      3 O          -2.1075  -15.4609  -50.9411 O.2       0 UNK        -0.5000 
      4 N          -1.2444  -15.2122  -48.8698 N.am      1 UNK        -0.5000 
      5 CA         -0.5286  -13.9503  -49.0734 C.3       1 UNK         0.1400 
      6 C6          0.6014  -13.7192  -48.0269 C.3       23 UNK        -0.0398 
      7 S7          1.6914  -15.1506  -47.6987 S.3       23 UNK        -0.2404 
      8 C8          2.5271  -15.4207  -49.2958 C.3       23 UNK        -0.0205 
      9 C9          2.5480  -16.8933  -49.6901 C.ar      23 UNK        -0.0193 
     10 C10         3.7314  -17.4976  -50.1223 C.ar      23 UNK        -0.1150 
     11 C11         3.7430  -18.8373  -50.5251 C.ar      23 UNK        -0.0193 
     12 C12         2.5548  -19.5748  -50.5053 C.ar      23 UNK        -0.1150 
     13 C13         1.3641  -18.9803  -50.0800 C.ar      23 UNK        -0.0193 
     14 C14         1.3736  -17.6487  -49.6648 C.ar      23 UNK        -0.1150 
     15 C15         0.0520  -19.7466  -50.0982 C.3       23 UNK        -0.0205 
     16 S16        -0.5964  -20.0148  -48.4230 S.3       23 UNK        -0.2404 
     17 C17         0.4479  -21.3988  -47.8769 C.3       23 UNK        -0.0398 
     18 CA         -0.3850  -22.6537  -47.5363 C.3       11 UNK         0.1400 
     19 N           0.4362  -23.8627  -47.5944 N.am      11 UNK        -0.5000 
     20 C          -0.0388  -25.1139  -47.6365 C.2       10 UNK         0.5000 
     21 O          -1.2363  -25.3901  -47.6624 O.2       10 UNK        -0.5000 
     22 CA          1.0062  -26.2441  -47.6017 C.3       10 UNK         0.1400 
     23 CB          1.4837  -26.5807  -49.0218 C.3       10 UNK        -0.1800 
     24 N           2.1626  -25.9083  -46.7681 N.am      10 UNK        -0.5000 
     25 C           2.1135  -25.7612  -45.4367 C.2       9 UNK         0.5000 
     26 O           1.0957  -25.9376  -44.7674 O.2       9 UNK        -0.5000 
     27 CA          3.4037  -25.2753  -44.7513 C.3       9 UNK         0.1400 
     28 CB          4.3506  -26.4538  -44.4803 C.3       9 UNK        -0.1800 
     29 N           4.1129  -24.2418  -45.5152 N.am      9 UNK        -0.5000 
     30 C           3.6119  -23.0324  -45.7968 C.2       8 UNK         0.5000 
     31 O           2.4720  -22.6754  -45.4868 O.2       8 UNK        -0.5000 
     32 CA          4.5131  -22.0680  -46.5778 C.3       8 UNK         0.1400 
     33 CB          4.4095  -22.3114  -48.0943 C.3       8 UNK        -0.1800 
     34 N           4.0991  -20.7081  -46.2515 N.am      8 UNK        -0.5000 
     35 C           4.8480  -19.6075  -46.3770 C.2       7 UNK         0.5000 
     36 O           5.9726  -19.6056  -46.8802 O.2       7 UNK        -0.5000 
     37 CA          4.2468  -18.3023  -45.8227 C.3       7 UNK         0.1400 
     38 CB          4.8156  -17.0383  -46.4924 C.3       7 UNK        -0.1800 
     39 N           2.7836  -18.2987  -45.9146 N.am      7 UNK        -0.5000 
     40 C           1.9683  -17.8644  -44.9470 C.2       6 UNK         0.5000 
     41 O           2.3592  -17.4516  -43.8511 O.2       6 UNK        -0.5000 
     42 CA          0.4601  -17.9211  -45.2315 C.3       6 UNK         0.1400 
     43 CB         -0.1283  -19.2526  -44.7358 C.3       6 UNK        -0.1800 
     44 N          -0.1766  -16.8251  -44.5096 N.am      6 UNK        -0.5000 
     45 C          -0.9818  -15.9034  -45.0408 C.2       5 UNK         0.5000 
     46 O          -1.3993  -15.9344  -46.2007 O.2       5 UNK        -0.5000 
     47 CA         -1.3655  -14.7360  -44.1206 C.3       5 UNK         0.1400 
     48 CB         -0.1309  -13.8890  -43.7500 C.3       5 UNK        -0.1800 
     49 N          -2.3558  -13.9009  -44.7921 N.am      5 UNK        -0.5000 
     50 C          -3.1748  -13.0263  -44.1984 C.2       4 UNK         0.5000 
     51 O          -3.2058  -12.8408  -42.9809 O.2       4 UNK        -0.5000 
     52 CA         -4.1128  -12.2104  -45.1054 C.3       4 UNK         0.1400 
     53 CB         -3.5405  -10.8026  -45.3350 C.3       4 UNK        -0.1800 
     54 N          -4.3341  -12.8445  -46.4058 N.am      4 UNK        -0.5000 
     55 C          -5.3416  -13.6869  -46.6780 C.2       3 UNK         0.5000 
     56 O          -6.1563  -14.0517  -45.8291 O.2       3 UNK        -0.5000 
     57 CA         -5.4676  -14.2232  -48.1243 C.3       3 UNK         0.1400 
     58 CB         -6.9309  -14.2663  -48.6088 C.3       3 UNK        -0.1800 
     59 N          -4.6131  -13.5412  -49.1041 N.am      3 UNK        -0.5000 
     60 C          -4.6348  -12.2542  -49.4879 C.2       2 UNK         0.5000 
     61 O          -5.4929  -11.4448  -49.1345 O.2       2 UNK        -0.5000 
     62 CA         -3.4575  -11.7992  -50.3851 C.3       2 UNK         0.1400 
     63 CB         -3.1271  -10.3013  -50.2182 C.3       2 UNK        -0.1800 
     64 N          -2.2517  -12.6239  -50.2030 N.am      2 UNK        -0.5000 
     65 C          -1.5649  -12.8083  -49.0642 C.2       1 UNK         0.5000 
     66 O          -1.8188  -12.2169  -48.0136 O.2       1 UNK        -0.5000 
     67 C          -1.0974  -22.5213  -46.1739 C.2       11 UNK         0.5000 
     68 O          -2.2750  -22.1620  -46.1297 O.2       11 UNK        -0.5000 
     69 N          -0.3778  -22.8528  -45.0924 N.am      12 UNK        -0.5000 
     70 CA         -0.8970  -22.9041  -43.7277 C.3       12 UNK         0.1400 
     71 CB          0.2686  -23.0562  -42.7400 C.3       12 UNK        -0.1800 
     72 C          -1.9372  -24.0236  -43.5434 C.2       12 UNK         0.5000 
     73 O          -2.9694  -23.7880  -42.9164 O.2       12 UNK        -0.5000 
     74 N          -1.6861  -25.1981  -44.1416 N.am      13 UNK        -0.5000 
     75 CA         -2.6296  -26.3205  -44.2014 C.3       13 UNK         0.1400 
     76 CB         -1.9236  -27.5537  -44.7840 C.3       13 UNK        -0.1800 
     77 C          -3.9037  -25.9874  -45.0051 C.2       13 UNK         0.5000 
     78 O          -4.9942  -26.4190  -44.6313 O.2       13 UNK        -0.5000 
     79 N          -3.7450  -25.1801  -46.0617 N.am      14 UNK        -0.5000 
     80 CA         -4.8163  -24.5964  -46.8717 C.3       14 UNK         0.1400 
     81 CB         -4.2257  -24.2099  -48.2352 C.3       14 UNK        -0.1800 
     82 C          -5.5051  -23.3801  -46.2124 C.2       14 UNK         0.5000 
     83 O          -6.3962  -22.7883  -46.8288 O.2       14 UNK        -0.5000 
     84 N          -5.0646  -23.0045  -45.0007 N.am      15 UNK        -0.5000 
     85 CA         -5.5643  -21.9261  -44.1407 C.3       15 UNK         0.1400 
     86 CB         -6.9765  -22.2769  -43.6284 C.3       15 UNK        -0.1800 
     87 C          -5.5063  -20.5243  -44.7830 C.2       15 UNK         0.5000 
     88 O          -6.2834  -19.6504  -44.3953 O.2       15 UNK        -0.5000 
     89 N          -4.6200  -20.3458  -45.7771 N.am      16 UNK        -0.5000 
     90 CA         -4.5172  -19.1842  -46.6716 C.3       16 UNK         0.1400 
     91 CB         -4.0551  -17.9364  -45.8890 C.3       16 UNK        -0.1800 
     92 C          -5.8038  -18.9116  -47.4909 C.2       16 UNK         0.5000 
     93 O          -5.9873  -17.7951  -47.9764 O.2       16 UNK        -0.5000 
     94 N          -6.6784  -19.9198  -47.6160 N.am      17 UNK        -0.5000 
     95 CA         -7.9974  -19.8153  -48.2368 C.3       17 UNK         0.1400 
     96 CB         -9.0654  -20.2252  -47.2099 C.3       17 UNK        -0.1800 
     97 C          -8.0856  -20.6962  -49.4889 C.2       17 UNK         0.5000 
     98 O          -8.5839  -20.2387  -50.5176 O.2       17 UNK        -0.5000 
     99 N          -7.5832  -21.9348  -49.3917 N.am      18 UNK        -0.5000 
    100 CA        -7.5433  -22.9016  -50.4931 C.3       18 UNK         0.1400 
    101 CB        -7.7877  -24.3112  -49.9257 C.3       18 UNK        -0.1800 
    102 C         -6.2347  -22.8234  -51.3101 C.2       18 UNK         0.5000 
    103 O         -6.0330  -23.6427  -52.2075 O.2       18 UNK        -0.5000 
    104 N         -5.3709  -21.8527  -50.9902 N.am      19 UNK        -0.5000 
    105 CA        -4.1101  -21.5633  -51.6645 C.3       19 UNK         0.1400 
    106 CB        -2.9465  -22.0504  -50.7844 C.3       19 UNK        -0.1800 
    107 C         -4.0058  -20.0522  -51.9189 C.2       19 UNK         0.5000 
    108 O         -4.7127  -19.2683  -51.2809 O.2       19 UNK        -0.5000 
    109 N         -3.1072  -19.6801  -52.8334 N.am      20 UNK        -0.5000 
    110 CA        -2.7516  -18.3083  -53.1849 C.3       20 UNK         0.1400 
    111 CB        -3.4070  -17.9438  -54.5269 C.3       20 UNK        -0.1800 
    112 C         -1.2202  -18.2126  -53.2712 C.2       20 UNK         0.5000 
    113 O         -0.5553  -19.2472  -53.3814 O.2       20 UNK        -0.5000 
    114 N         -0.6999  -16.9809  -53.1908 N.am      21 UNK        -0.5000 
    115 CA         0.7233  -16.6367  -53.1269 C.3       21 UNK         0.1400 
    116 CB         0.8741  -15.1089  -53.1733 C.3       21 UNK        -0.1800 
    117 C          1.5977  -17.3049  -54.2046 C.2       21 UNK         0.5000 
    118 O          1.2399  -17.2855  -55.3846 O.2       21 UNK        -0.5000 
    119 N          2.7291  -17.8722  -53.7687 N.am      22 UNK        -0.5000 
    120 CA         3.6765  -18.6185  -54.6112 C.3       22 UNK         0.1400 
    121 C          4.5518  -17.7560  -55.5709 C.2       22 UNK         0.5000 
    122 N          4.5552  -16.4326  -55.4654 N.am      22 UNK        -0.7600 
    123 O          5.2301  -18.2998  -56.4385 O.2       22 UNK        -0.5000 
    124 C124        4.5233  -19.6114  -53.7707 C.3       23 UNK        -0.0398 
    125 S125        5.6399  -18.8163  -52.5577 S.3       23 UNK        -0.2404 
    126 C126        5.0457  -19.4835  -50.9697 C.3       23 UNK        -0.0205 
    127 H127       -2.5033  -17.9333  -50.0523 H         1 UNK         0.0600 
    128 H128       -3.7481  -16.9668  -49.2702 H         1 UNK         0.0600 
    129 H129       -2.3119  -17.4666  -48.3643 H         1 UNK         0.0600 
    130 H130       -1.2121  -15.5712  -47.9148 H         1 UNK         0.3000 
    131 H131       -0.0684  -13.9711  -50.0618 H         1 UNK         0.0600 
    132 H132        0.1758  -13.4503  -47.0592 H         1 UNK         0.0800 
    133 H133        1.2213  -12.8727  -48.3257 H         1 UNK         0.0800 
    134 H134        2.0378  -14.8592  -50.0903 H         1 UNK         0.0800 
    135 H135        3.5417  -15.0268  -49.2216 H         1 UNK         0.0800 
    136 H136        4.6492  -16.9267  -50.1496 H         1 UNK         0.1150 
    137 H137        2.5554  -20.6069  -50.8263 H         1 UNK         0.1150 
    138 H138        0.4532  -17.1953  -49.3359 H         1 UNK         0.1150 
    139 H139       -0.6808  -19.1710  -50.6581 H         1 UNK         0.0800 
    140 H140        0.1539  -20.6970  -50.6238 H         1 UNK         0.0800 
    141 H141        1.0680  -21.0772  -47.0416 H         1 UNK         0.0800 
    142 H142        1.1452  -21.6357  -48.6798 H         1 UNK         0.0800 
    143 H143       -1.1565  -22.7636  -48.3009 H         1 UNK         0.0600 
    144 H144        1.4334  -23.7352  -47.5159 H         1 UNK         0.3000 
    145 H145        0.5264  -27.1306  -47.1817 H         1 UNK         0.0600 
    146 H146        2.1720  -27.4260  -49.0162 H         1 UNK         0.0600 
    147 H147        0.6427  -26.8522  -49.6615 H         1 UNK         0.0600 
    148 H148        1.9921  -25.7360  -49.4886 H         1 UNK         0.0600 
    149 H149        3.0401  -25.7492  -47.2408 H         1 UNK         0.3000 
    150 H150        3.1194  -24.8412  -43.7904 H         1 UNK         0.0600 
    151 H151        3.8511  -27.2300  -43.8989 H         1 UNK         0.0600 
    152 H152        5.2237  -26.1350  -43.9106 H         1 UNK         0.0600 
    153 H153        4.7019  -26.9116  -45.4059 H         1 UNK         0.0600 
    154 H154        5.0528  -24.4658  -45.8097 H         1 UNK         0.3000 
    155 H155        5.5442  -22.2177  -46.2508 H         1 UNK         0.0600 
    156 H156        3.4011  -22.1337  -48.4646 H         1 UNK         0.0600 
    157 H157        4.6793  -23.3370  -48.3484 H         1 UNK         0.0600 
    158 H158        5.0837  -21.6557  -48.6450 H         1 UNK         0.0600 
    159 H159        3.2076  -20.6544  -45.7755 H         1 UNK         0.3000 
    160 H160        4.5474  -18.2800  -44.7734 H         1 UNK         0.0600 
    161 H161        4.6065  -17.0240  -47.5600 H         1 UNK         0.0600 
    162 H162        5.8971  -16.9772  -46.3677 H         1 UNK         0.0600 
    163 H163        4.3884  -16.1349  -46.0568 H         1 UNK         0.0600 
    164 H164        2.3967  -18.6080  -46.7959 H         1 UNK         0.3000 
    165 H165        0.3039  -17.8281  -46.3088 H         1 UNK         0.0600 
    166 H166        0.4601  -20.0992  -45.0850 H         1 UNK         0.0600 
    167 H167       -0.1469  -19.3063  -43.6468 H         1 UNK         0.0600 
    168 H168       -1.1467  -19.3933  -45.0968 H         1 UNK         0.0600 
    169 H169        0.1832  -16.6845  -43.5750 H         1 UNK         0.3000 
    170 H170       -1.8088  -15.1562  -43.2156 H         1 UNK         0.0600 
    171 H171        0.6226  -14.4856  -43.2348 H         1 UNK         0.0600 
    172 H172        0.3405  -13.4598  -44.6344 H         1 UNK         0.0600 
    173 H173       -0.3956  -13.0683  -43.0834 H         1 UNK         0.0600 
    174 H174       -2.4170  -14.0459  -45.7914 H         1 UNK         0.3000 
    175 H175       -5.0657  -12.1012  -44.5832 H         1 UNK         0.0600 
    176 H176       -2.5629  -10.8374  -45.8169 H         1 UNK         0.0600 
    177 H177       -4.2023  -10.2053  -45.9626 H         1 UNK         0.0600 
    178 H178       -3.4206  -10.2713  -44.3900 H         1 UNK         0.0600 
    179 H179       -3.6805  -12.5951  -47.1397 H         1 UNK         0.3000 
    180 H180       -5.1068  -15.2509  -48.0847 H         1 UNK         0.0600 
    181 H181       -6.9985  -14.6630  -49.6218 H         1 UNK         0.0600 
    182 H182       -7.3912  -13.2781  -48.6011 H         1 UNK         0.0600 
    183 H183       -7.5340  -14.9134  -47.9707 H         1 UNK         0.0600 
    184 H184       -3.8621  -14.1030  -49.4782 H         1 UNK         0.3000 
    185 H185       -3.7833  -11.9546  -51.4145 H         1 UNK         0.0600 
    186 H186       -2.8725  -10.0534  -49.1873 H         1 UNK         0.0600 
    187 H187       -2.2887  -10.0097  -50.8506 H         1 UNK         0.0600 
    188 H188       -3.9770   -9.6796  -50.5018 H         1 UNK         0.0600 
    189 H189       -2.0315  -13.2405  -50.9766 H         1 UNK         0.3000 
    190 H190        0.6063  -23.0735  -45.2123 H         1 UNK         0.3000 
    191 H191       -1.3924  -21.9525  -43.5231 H         1 UNK         0.0600 
    192 H192       -0.0902  -23.0512  -41.7101 H         1 UNK         0.0600 
    193 H193        0.9795  -22.2359  -42.8423 H         1 UNK         0.0600 
    194 H194        0.8111  -23.9889  -42.8944 H         1 UNK         0.0600 
    195 H195       -0.7812  -25.3383  -44.5809 H         1 UNK         0.3000 
    196 H196       -2.9343  -26.5545  -43.1793 H         1 UNK         0.0600 
    197 H197       -1.5900  -27.3812  -45.8071 H         1 UNK         0.0600 
    198 H198       -1.0516  -27.8268  -44.1894 H         1 UNK         0.0600 
    199 H199       -2.5918  -28.4155  -44.7976 H         1 UNK         0.0600 
    200 H200       -2.8009  -24.9357  -46.3383 H         1 UNK         0.3000 
    201 H201       -5.5874  -25.3517  -47.0337 H         1 UNK         0.0600 
    202 H202       -3.8491  -25.0845  -48.7656 H         1 UNK         0.0600 
    203 H203       -3.4039  -23.5047  -48.1281 H         1 UNK         0.0600 
    204 H204       -4.9660  -23.7369  -48.8748 H         1 UNK         0.0600 
    205 H205       -4.2931  -23.5271  -44.6054 H         1 UNK         0.3000 
    206 H206       -4.8979  -21.8881  -43.2784 H         1 UNK         0.0600 
    207 H207       -6.9950  -23.2667  -43.1722 H         1 UNK         0.0600 
    208 H208       -7.3090  -21.5670  -42.8704 H         1 UNK         0.0600 
    209 H209       -7.7118  -22.2646  -44.4339 H         1 UNK         0.0600 
    210 H210       -3.9821  -21.1108  -45.9814 H         1 UNK         0.3000 
    211 H211       -3.7405  -19.4293  -47.3975 H         1 UNK         0.0600 
    212 H212       -3.8529  -17.1010  -46.5589 H         1 UNK         0.0600 
    213 H213       -3.1387  -18.1348  -45.3353 H         1 UNK         0.0600 
    214 H214       -4.8088  -17.5976  -45.1784 H         1 UNK         0.0600 
    215 H215       -6.4522  -20.8129  -47.1910 H         1 UNK         0.3000 
    216 H216       -8.2018  -18.7871  -48.5424 H         1 UNK         0.0600 
    217 H217       -8.9175  -21.2466  -46.8564 H         1 UNK         0.0600 
    218 H218      -10.0660  -20.1656  -47.6401 H         1 UNK         0.0600 
    219 H219       -9.0441  -19.5675  -46.3407 H         1 UNK         0.0600 
    220 H220       -7.1966  -22.2455  -48.5047 H         1 UNK         0.3000 
    221 H221       -8.3553  -22.6910  -51.1921 H         1 UNK         0.0600 
    222 H222       -8.7621  -24.3707  -49.4405 H         1 UNK         0.0600 
    223 H223       -7.0372  -24.5962  -49.1904 H         1 UNK         0.0600 
    224 H224       -7.7766  -25.0632  -50.7154 H         1 UNK         0.0600 
    225 H225       -5.6544  -21.1627  -50.3082 H         1 UNK         0.3000 
    226 H226       -4.0695  -22.0705  -52.6307 H         1 UNK         0.0600 
    227 H227       -2.9603  -21.5758  -49.8024 H         1 UNK         0.0600 
    228 H228       -2.9909  -23.1294  -50.6386 H         1 UNK         0.0600 
    229 H229       -1.9832  -21.8295  -51.2445 H         1 UNK         0.0600 
    230 H230       -2.5013  -20.3767  -53.2480 H         1 UNK         0.3000 
    231 H231       -3.0975  -17.6161  -52.4148 H         1 UNK         0.0600 
    232 H232       -3.0685  -18.5988  -55.3307 H         1 UNK         0.0600 
    233 H233       -3.1693  -16.9190  -54.8144 H         1 UNK         0.0600 
    234 H234       -4.4928  -18.0205  -54.4669 H         1 UNK         0.0600 
    235 H235       -1.3370  -16.2081  -53.0529 H         1 UNK         0.3000 
    236 H236        1.0755  -16.9742  -52.1567 H         1 UNK         0.0600 
    237 H237        0.3225  -14.6328  -52.3634 H         1 UNK         0.0600 
    238 H238        1.9194  -14.8150  -53.0699 H         1 UNK         0.0600 
    239 H239        0.5073  -14.6993  -54.1153 H         1 UNK         0.0600 
    240 H240        2.9607  -17.8335  -52.7859 H         1 UNK         0.3000 
    241 H241        3.0684  -19.2339  -55.2773 H         1 UNK         0.0600 
    242 H242        5.1205  -15.8852  -56.0954 H         1 UNK         0.3800 
    243 H243        4.0036  -15.9748  -54.7587 H         1 UNK         0.3800 
    244 H244        5.1303  -20.2369  -54.4274 H         1 UNK         0.0800 
    245 H245        3.8580  -20.3026  -53.2520 H         1 UNK         0.0800 
    246 H246        4.9442  -20.5674  -51.0417 H         1 UNK         0.0800 
    247 H247        5.8038  -19.3015  -50.2063 H         1 UNK         0.0800 
@<TRIPOS>BOND
     1    1    2 1    
     2    1  127 1    
     3    1  128 1    
     4    1  129 1    
     5    2    3 2    
     6    2    4 am   BACKBONE|DICT|INTERRES
     7    4    5 1    
     8    4  130 1    
     9    5    6 1    
    10    5   65 1    
    11    5  131 1    
    12    6    7 1    
    13    6  132 1    
    14    6  133 1    
    15    7    8 1    
    16    8    9 1    
    17    8  134 1    
    18    8  135 1    
    19    9   10 ar   
    20    9   14 ar   
    21   10   11 ar   
    22   10  136 1    
    23   11   12 ar   
    24   11  126 1    
    25   12   13 ar   
    26   12  137 1    
    27   13   14 ar   
    28   13   15 1    
    29   14  138 1    
    30   15   16 1    
    31   15  139 1    
    32   15  140 1    
    33   16   17 1    
    34   17   18 1    
    35   17  141 1    
    36   17  142 1    
    37   18   19 1    
    38   18   67 1    
    39   18  143 1    
    40   19   20 am   BACKBONE|DICT|INTERRES
    41   19  144 1    
    42   20   21 2    
    43   20   22 1    
    44   22   23 1    
    45   22   24 1    
    46   22  145 1    
    47   23  146 1    
    48   23  147 1    
    49   23  148 1    
    50   24   25 am   BACKBONE|DICT|INTERRES
    51   24  149 1    
    52   25   26 2    
    53   25   27 1    
    54   27   28 1    
    55   27   29 1    
    56   27  150 1    
    57   28  151 1    
    58   28  152 1    
    59   28  153 1    
    60   29   30 am   BACKBONE|DICT|INTERRES
    61   29  154 1    
    62   30   31 2    
    63   30   32 1    
    64   32   33 1    
    65   32   34 1    
    66   32  155 1    
    67   33  156 1    
    68   33  157 1    
    69   33  158 1    
    70   34   35 am   BACKBONE|DICT|INTERRES
    71   34  159 1    
    72   35   36 2    
    73   35   37 1    
    74   37   38 1    
    75   37   39 1    
    76   37  160 1    
    77   38  161 1    
    78   38  162 1    
    79   38  163 1    
    80   39   40 am   BACKBONE|DICT|INTERRES
    81   39  164 1    
    82   40   41 2    
    83   40   42 1    
    84   42   43 1    
    85   42   44 1    
    86   42  165 1    
    87   43  166 1    
    88   43  167 1    
    89   43  168 1    
    90   44   45 am   BACKBONE|DICT|INTERRES
    91   44  169 1    
    92   45   46 2    
    93   45   47 1    
    94   47   48 1    
    95   47   49 1    
    96   47  170 1    
    97   48  171 1    
    98   48  172 1    
    99   48  173 1    
   100   49   50 am   BACKBONE|DICT|INTERRES
   101   49  174 1    
   102   50   51 2    
   103   50   52 1    
   104   52   53 1    
   105   52   54 1    
   106   52  175 1    
   107   53  176 1    
   108   53  177 1    
   109   53  178 1    
   110   54   55 am   BACKBONE|DICT|INTERRES
   111   54  179 1    
   112   55   56 2    
   113   55   57 1    
   114   57   58 1    
   115   57   59 1    
   116   57  180 1    
   117   58  181 1    
   118   58  182 1    
   119   58  183 1    
   120   59   60 am   BACKBONE|DICT|INTERRES
   121   59  184 1    
   122   60   61 2    
   123   60   62 1    
   124   62   63 1    
   125   62   64 1    
   126   62  185 1    
   127   63  186 1    
   128   63  187 1    
   129   63  188 1    
   130   64   65 am   BACKBONE|DICT|INTERRES
   131   64  189 1    
   132   65   66 2    
   133   67   68 2    
   134   67   69 am   BACKBONE|DICT|INTERRES
   135   69   70 1    
   136   69  190 1    
   137   70   71 1    
   138   70   72 1    
   139   70  191 1    
   140   71  192 1    
   141   71  193 1    
   142   71  194 1    
   143   72   73 2    
   144   72   74 am   BACKBONE|DICT|INTERRES
   145   74   75 1    
   146   74  195 1    
   147   75   76 1    
   148   75   77 1    
   149   75  196 1    
   150   76  197 1    
   151   76  198 1    
   152   76  199 1    
   153   77   78 2    
   154   77   79 am   BACKBONE|DICT|INTERRES
   155   79   80 1    
   156   79  200 1    
   157   80   81 1    
   158   80   82 1    
   159   80  201 1    
   160   81  202 1    
   161   81  203 1    
   162   81  204 1    
   163   82   83 2    
   164   82   84 am   BACKBONE|DICT|INTERRES
   165   84   85 1    
   166   84  205 1    
   167   85   86 1    
   168   85   87 1    
   169   85  206 1    
   170   86  207 1    
   171   86  208 1    
   172   86  209 1    
   173   87   88 2    
   174   87   89 am   BACKBONE|DICT|INTERRES
   175   89   90 1    
   176   89  210 1    
   177   90   91 1    
   178   90   92 1    
   179   90  211 1    
   180   91  212 1    
   181   91  213 1    
   182   91  214 1    
   183   92   93 2    
   184   92   94 am   BACKBONE|DICT|INTERRES
   185   94   95 1    
   186   94  215 1    
   187   95   96 1    
   188   95   97 1    
   189   95  216 1    
   190   96  217 1    
   191   96  218 1    
   192   96  219 1    
   193   97   98 2    
   194   97   99 am   BACKBONE|DICT|INTERRES
   195   99  100 1    
   196   99  220 1    
   197  100  101 1    
   198  100  102 1    
   199  100  221 1    
   200  101  222 1    
   201  101  223 1    
   202  101  224 1    
   203  102  103 2    
   204  102  104 am   BACKBONE|DICT|INTERRES
   205  104  105 1    
   206  104  225 1    
   207  105  106 1    
   208  105  107 1    
   209  105  226 1    
   210  106  227 1    
   211  106  228 1    
   212  106  229 1    
   213  107  108 2    
   214  107  109 am   BACKBONE|DICT|INTERRES
   215  109  110 1    
   216  109  230 1    
   217  110  111 1    
   218  110  112 1    
   219  110  231 1    
   220  111  232 1    
   221  111  233 1    
   222  111  234 1    
   223  112  113 2    
   224  112  114 am   BACKBONE|DICT|INTERRES
   225  114  115 1    
   226  114  235 1    
   227  115  116 1    
   228  115  117 1    
   229  115  236 1    
   230  116  237 1    
   231  116  238 1    
   232  116  239 1    
   233  117  118 2    
   234  117  119 am   BACKBONE|DICT|INTERRES
   235  119  120 1    
   236  119  240 1    
   237  120  121 1    
   238  120  124 1    
   239  120  241 1    
   240  121  122 am   BACKBONE|DICT|INTERRES
   241  121  123 2    
   242  122  242 1    
   243  122  243 1    
   244  124  125 1    
   245  124  244 1    
   246  124  245 1    
   247  125  126 1    
   248  126  246 1    
   249  126  247 1    
@<TRIPOS>SUBSTRUCTURE
     1 UNK         1 GROUP             0       ****    0 ROOT    
