@<TRIPOS>MOLECULE
3R540
247   249    1
SMALL
USER_CHARGES


@<TRIPOS>ATOM
      1 CA         -1.1130  -14.3820  -54.3979 C.3       0 UNK        -0.1800 
      2 C          -0.9577  -13.7990  -53.0014 C.2       0 UNK         0.5000 
      3 O          -1.5037  -12.7327  -52.7163 O.2       0 UNK        -0.5000 
      4 N          -0.1954  -14.4815  -52.1397 N.am      1 UNK        -0.5000 
      5 CA          0.0378  -14.1096  -50.7419 C.3       1 UNK         0.1400 
      6 C6          1.2903  -14.8121  -50.1558 C.3       23 UNK        -0.0398 
      7 S7          1.3285  -16.6222  -50.3939 S.3       23 UNK        -0.2404 
      8 C8          0.9613  -17.1994  -48.7118 C.3       23 UNK        -0.0205 
      9 C9          0.6566  -18.6853  -48.7137 C.ar      23 UNK        -0.0193 
     10 C10        -0.6200  -19.1240  -49.0732 C.ar      23 UNK        -0.1150 
     11 C11        -0.9273  -20.4852  -49.0712 C.ar      23 UNK        -0.0193 
     12 C12         0.0529  -21.4078  -48.7047 C.ar      23 UNK        -0.1150 
     13 C13         1.3342  -20.9840  -48.3418 C.ar      23 UNK        -0.0193 
     14 C14         1.6334  -19.6184  -48.3517 C.ar      23 UNK        -0.1150 
     15 C15         2.3906  -22.0079  -47.9497 C.3       23 UNK        -0.0205 
     16 S16         2.5244  -22.2069  -46.1444 S.3       23 UNK        -0.2404 
     17 C17         0.8222  -22.6822  -45.6993 C.3       23 UNK        -0.0398 
     18 CA          0.7346  -23.5799  -44.4436 C.3       11 UNK         0.1400 
     19 N           1.2702  -22.9007  -43.2665 N.am      11 UNK        -0.5000 
     20 C           1.7275  -23.5006  -42.1636 C.2       10 UNK         0.5000 
     21 O           1.7792  -24.7248  -42.0272 O.2       10 UNK        -0.5000 
     22 CA          2.2026  -22.5661  -41.0297 C.3       10 UNK         0.1400 
     23 CB          3.0908  -23.2744  -39.9855 C.3       10 UNK        -0.1800 
     24 N           2.8445  -21.3434  -41.5255 N.am      10 UNK        -0.5000 
     25 C           3.9727  -21.2354  -42.2448 C.2       9 UNK         0.5000 
     26 O           4.6856  -22.1930  -42.5480 O.2       9 UNK        -0.5000 
     27 CA          4.3846  -19.8210  -42.7105 C.3       9 UNK         0.1400 
     28 CB          4.2881  -19.6968  -44.2385 C.3       9 UNK        -0.1800 
     29 N           3.5879  -18.7500  -42.1099 N.am      9 UNK        -0.5000 
     30 C           3.7376  -18.2850  -40.8632 C.2       8 UNK         0.5000 
     31 O           4.6184  -18.6657  -40.0914 O.2       8 UNK        -0.5000 
     32 CA          2.7028  -17.2473  -40.3870 C.3       8 UNK         0.1400 
     33 CB          3.1254  -15.8307  -40.8036 C.3       8 UNK        -0.1800 
     34 N           1.3476  -17.5207  -40.8759 N.am      8 UNK        -0.5000 
     35 C           0.6286  -18.6070  -40.5554 C.2       7 UNK         0.5000 
     36 O           1.0253  -19.4869  -39.7916 O.2       7 UNK        -0.5000 
     37 CA         -0.7444  -18.7660  -41.2312 C.3       7 UNK         0.1400 
     38 CB         -1.8012  -17.8971  -40.5333 C.3       7 UNK        -0.1800 
     39 N          -0.7140  -18.4528  -42.6588 N.am      7 UNK        -0.5000 
     40 C          -0.0190  -19.1351  -43.5803 C.2       6 UNK         0.5000 
     41 O           0.6613  -20.1285  -43.3287 O.2       6 UNK        -0.5000 
     42 CA         -0.0539  -18.5813  -45.0165 C.3       6 UNK         0.1400 
     43 CB         -1.3913  -18.9202  -45.6957 C.3       6 UNK        -0.1800 
     44 N           0.1673  -17.1337  -45.0521 N.am      6 UNK        -0.5000 
     45 C           1.2748  -16.5204  -44.6074 C.2       5 UNK         0.5000 
     46 O           2.2630  -17.1125  -44.1761 O.2       5 UNK        -0.5000 
     47 CA          1.2500  -14.9835  -44.5804 C.3       5 UNK         0.1400 
     48 CB          1.6223  -14.3964  -45.9505 C.3       5 UNK        -0.1800 
     49 N          -0.0530  -14.4735  -44.1532 N.am      5 UNK        -0.5000 
     50 C          -0.5240  -14.5697  -42.9009 C.2       4 UNK         0.5000 
     51 O           0.1138  -15.0545  -41.9668 O.2       4 UNK        -0.5000 
     52 CA         -1.9665  -14.0853  -42.6634 C.3       4 UNK         0.1400 
     53 CB         -1.9998  -12.5643  -42.4531 C.3       4 UNK        -0.1800 
     54 N          -2.8644  -14.4423  -43.7624 N.am      4 UNK        -0.5000 
     55 C          -3.1961  -15.6987  -44.0930 C.2       3 UNK         0.5000 
     56 O          -2.8384  -16.6860  -43.4536 O.2       3 UNK        -0.5000 
     57 CA         -4.0222  -15.8881  -45.3805 C.3       3 UNK         0.1400 
     58 CB         -5.5227  -15.9148  -45.0543 C.3       3 UNK        -0.1800 
     59 N          -3.7600  -14.8602  -46.3933 N.am      3 UNK        -0.5000 
     60 C          -2.5726  -14.6561  -46.9799 C.2       2 UNK         0.5000 
     61 O          -1.5685  -15.3287  -46.7357 O.2       2 UNK        -0.5000 
     62 CA         -2.4863  -13.4347  -47.9130 C.3       2 UNK         0.1400 
     63 CB         -2.3782  -12.1474  -47.0788 C.3       2 UNK        -0.1800 
     64 N          -1.3464  -13.4823  -48.8278 N.am      2 UNK        -0.5000 
     65 C          -1.2261  -14.3103  -49.8733 C.2       1 UNK         0.5000 
     66 O          -2.0598  -15.1711  -50.1676 O.2       1 UNK        -0.5000 
     67 C          -0.7378  -23.9749  -44.2183 C.2       11 UNK         0.5000 
     68 O          -1.4487  -23.3132  -43.4563 O.2       11 UNK        -0.5000 
     69 N          -1.1918  -24.9978  -44.9544 N.am      12 UNK        -0.5000 
     70 CA         -2.6141  -25.2562  -45.1821 C.3       12 UNK         0.1400 
     71 CB         -2.8100  -26.7157  -45.6219 C.3       12 UNK        -0.1800 
     72 C          -3.1603  -24.2815  -46.2443 C.2       12 UNK         0.5000 
     73 O          -2.3937  -23.7804  -47.0725 O.2       12 UNK        -0.5000 
     74 N          -4.4794  -24.0563  -46.2164 N.am      13 UNK        -0.5000 
     75 CA         -5.2073  -23.0339  -46.9802 C.3       13 UNK         0.1400 
     76 CB         -6.6756  -23.0425  -46.5256 C.3       13 UNK        -0.1800 
     77 C          -5.1247  -23.1216  -48.5194 C.2       13 UNK         0.5000 
     78 O          -5.5385  -22.1742  -49.1883 O.2       13 UNK        -0.5000 
     79 N          -4.6005  -24.2256  -49.0619 N.am      14 UNK        -0.5000 
     80 CA         -4.3871  -24.4287  -50.4945 C.3       14 UNK         0.1400 
     81 CB         -5.5791  -25.2094  -51.0783 C.3       14 UNK        -0.1800 
     82 C          -3.0346  -25.1078  -50.7860 C.2       14 UNK         0.5000 
     83 O          -2.8817  -25.6940  -51.8579 O.2       14 UNK        -0.5000 
     84 N          -2.0778  -25.0445  -49.8433 N.am      15 UNK        -0.5000 
     85 CA         -0.7967  -25.7565  -49.9375 C.3       15 UNK         0.1400 
     86 CB         -0.0540  -25.6872  -48.5951 C.3       15 UNK        -0.1800 
     87 C           0.1176  -25.2634  -51.0741 C.2       15 UNK         0.5000 
     88 O           0.7413  -26.0861  -51.7459 O.2       15 UNK        -0.5000 
     89 N           0.1861  -23.9391  -51.2651 N.am      16 UNK        -0.5000 
     90 CA          1.0090  -23.3152  -52.3044 C.3       16 UNK         0.1400 
     91 CB          1.4385  -21.9136  -51.8436 C.3       16 UNK        -0.1800 
     92 C           0.2839  -23.2221  -53.6566 C.2       16 UNK         0.5000 
     93 O           0.9505  -23.1674  -54.6905 O.2       16 UNK        -0.5000 
     94 N          -1.0577  -23.1654  -53.6172 N.am      17 UNK        -0.5000 
     95 CA         -1.9655  -22.8890  -54.7384 C.3       17 UNK         0.1400 
     96 CB         -1.9881  -24.0711  -55.7285 C.3       17 UNK        -0.1800 
     97 C          -1.6605  -21.5314  -55.4133 C.2       17 UNK         0.5000 
     98 O          -1.7179  -21.4109  -56.6379 O.2       17 UNK        -0.5000 
     99 N          -1.3124  -20.5370  -54.5840 N.am      18 UNK        -0.5000 
    100 CA        -0.8185  -19.2183  -54.9881 C.3       18 UNK         0.1400 
    101 CB        -0.1203  -18.5729  -53.7775 C.3       18 UNK        -0.1800 
    102 C         -1.8955  -18.2727  -55.5580 C.2       18 UNK         0.5000 
    103 O         -1.5394  -17.2079  -56.0627 O.2       18 UNK        -0.5000 
    104 N         -3.1738  -18.6649  -55.4558 N.am      19 UNK        -0.5000 
    105 CA        -4.3763  -17.8715  -55.7261 C.3       19 UNK         0.1400 
    106 CB        -4.4011  -17.3390  -57.1769 C.3       19 UNK        -0.1800 
    107 C         -4.5870  -16.7737  -54.6608 C.2       19 UNK         0.5000 
    108 O         -3.9704  -16.8223  -53.5922 O.2       19 UNK        -0.5000 
    109 N         -5.4941  -15.8289  -54.9486 N.am      20 UNK        -0.5000 
    110 CA        -5.9867  -14.7825  -54.0477 C.3       20 UNK         0.1400 
    111 CB        -4.8764  -13.7581  -53.7205 C.3       20 UNK        -0.1800 
    112 C         -6.6548  -15.4092  -52.8068 C.2       20 UNK         0.5000 
    113 O         -7.7466  -15.9657  -52.9336 O.2       20 UNK        -0.5000 
    114 N         -5.9904  -15.3343  -51.6473 N.am      21 UNK        -0.5000 
    115 CA        -6.4274  -15.9659  -50.4035 C.3       21 UNK         0.1400 
    116 CB        -5.7322  -15.2681  -49.2262 C.3       21 UNK        -0.1800 
    117 C         -6.1488  -17.4819  -50.3628 C.2       21 UNK         0.5000 
    118 O         -6.8123  -18.1876  -49.6024 O.2       21 UNK        -0.5000 
    119 N         -5.1731  -17.9530  -51.1501 N.am      22 UNK        -0.5000 
    120 CA        -4.7791  -19.3625  -51.2364 C.3       22 UNK         0.1400 
    121 C         -5.7019  -20.1515  -52.2024 C.2       22 UNK         0.5000 
    122 N         -6.2329  -21.2869  -51.7733 N.am      22 UNK        -0.7600 
    123 O         -5.9083  -19.7616  -53.3487 O.2       22 UNK        -0.5000 
    124 C124       -3.2835  -19.4836  -51.6254 C.3       23 UNK        -0.0398 
    125 S125       -2.5646  -21.1131  -51.2253 S.3       23 UNK        -0.2404 
    126 C126       -2.3215  -20.9667  -49.4269 C.3       23 UNK        -0.0205 
    127 H127       -2.1004  -14.8271  -54.5152 H         1 UNK         0.0600 
    128 H128       -0.3679  -15.1528  -54.5951 H         1 UNK         0.0600 
    129 H129       -0.9978  -13.6022  -55.1504 H         1 UNK         0.0600 
    130 H130        0.1929  -15.3731  -52.4118 H         1 UNK         0.3000 
    131 H131        0.2511  -13.0382  -50.7365 H         1 UNK         0.0600 
    132 H132        2.1779  -14.4111  -50.6468 H         1 UNK         0.0800 
    133 H133        1.4174  -14.5698  -49.0999 H         1 UNK         0.0800 
    134 H134        0.1023  -16.6569  -48.3153 H         1 UNK         0.0800 
    135 H135        1.8022  -16.9783  -48.0528 H         1 UNK         0.0800 
    136 H136       -1.3737  -18.3971  -49.3386 H         1 UNK         0.1150 
    137 H137       -0.1894  -22.4586  -48.6928 H         1 UNK         0.1150 
    138 H138        2.6220  -19.2837  -48.0709 H         1 UNK         0.1150 
    139 H139        2.1726  -22.9752  -48.4050 H         1 UNK         0.0800 
    140 H140        3.3604  -21.7003  -48.3433 H         1 UNK         0.0800 
    141 H141        0.3812  -23.2013  -46.5488 H         1 UNK         0.0800 
    142 H142        0.2397  -21.7692  -45.5661 H         1 UNK         0.0800 
    143 H143        1.3155  -24.4876  -44.6213 H         1 UNK         0.0600 
    144 H144        1.2014  -21.8849  -43.2762 H         1 UNK         0.3000 
    145 H145        1.2970  -22.2388  -40.5172 H         1 UNK         0.0600 
    146 H146        3.3975  -22.5856  -39.1983 H         1 UNK         0.0600 
    147 H147        2.5528  -24.0935  -39.5071 H         1 UNK         0.0600 
    148 H148        3.9909  -23.6943  -40.4348 H         1 UNK         0.0600 
    149 H149        2.3301  -20.4911  -41.3439 H         1 UNK         0.3000 
    150 H150        5.4294  -19.6804  -42.4262 H         1 UNK         0.0600 
    151 H151        4.8599  -20.4799  -44.7378 H         1 UNK         0.0600 
    152 H152        4.6793  -18.7390  -44.5814 H         1 UNK         0.0600 
    153 H153        3.2548  -19.7735  -44.5784 H         1 UNK         0.0600 
    154 H154        2.8754  -18.3356  -42.7035 H         1 UNK         0.3000 
    155 H155        2.6757  -17.2854  -39.2961 H         1 UNK         0.0600 
    156 H156        4.1245  -15.5960  -40.4344 H         1 UNK         0.0600 
    157 H157        2.4453  -15.0812  -40.3986 H         1 UNK         0.0600 
    158 H158        3.1408  -15.7185  -41.8879 H         1 UNK         0.0600 
    159 H159        0.9312  -16.8152  -41.4758 H         1 UNK         0.3000 
    160 H160       -1.0444  -19.8111  -41.1294 H         1 UNK         0.0600 
    161 H161       -1.5798  -16.8342  -40.6335 H         1 UNK         0.0600 
    162 H162       -1.8528  -18.1240  -39.4678 H         1 UNK         0.0600 
    163 H163       -2.7926  -18.0720  -40.9515 H         1 UNK         0.0600 
    164 H164       -1.2974  -17.6781  -42.9638 H         1 UNK         0.3000 
    165 H165        0.7519  -19.0501  -45.5850 H         1 UNK         0.0600 
    166 H166       -1.5251  -18.3578  -46.6185 H         1 UNK         0.0600 
    167 H167       -1.4395  -19.9803  -45.9463 H         1 UNK         0.0600 
    168 H168       -2.2452  -18.7011  -45.0556 H         1 UNK         0.0600 
    169 H169       -0.5793  -16.5622  -45.4324 H         1 UNK         0.3000 
    170 H170        1.9992  -14.6501  -43.8593 H         1 UNK         0.0600 
    171 H171        1.6471  -13.3071  -45.9193 H         1 UNK         0.0600 
    172 H172        2.6109  -14.7359  -46.2620 H         1 UNK         0.0600 
    173 H173        0.9179  -14.6932  -46.7258 H         1 UNK         0.0600 
    174 H174       -0.6636  -14.1310  -44.8800 H         1 UNK         0.3000 
    175 H175       -2.3344  -14.5654  -41.7541 H         1 UNK         0.0600 
    176 H176       -1.3487  -12.2707  -41.6285 H         1 UNK         0.0600 
    177 H177       -1.6678  -12.0255  -43.3415 H         1 UNK         0.0600 
    178 H178       -3.0056  -12.2221  -42.2089 H         1 UNK         0.0600 
    179 H179       -3.2136  -13.6866  -44.3318 H         1 UNK         0.3000 
    180 H180       -3.7482  -16.8544  -45.8081 H         1 UNK         0.0600 
    181 H181       -5.7437  -16.6692  -44.2979 H         1 UNK         0.0600 
    182 H182       -5.8697  -14.9545  -44.6707 H         1 UNK         0.0600 
    183 H183       -6.1159  -16.1608  -45.9344 H         1 UNK         0.0600 
    184 H184       -4.5328  -14.2526  -46.6231 H         1 UNK         0.3000 
    185 H185       -3.3992  -13.3900  -48.5100 H         1 UNK         0.0600 
    186 H186       -1.4787  -12.1410  -46.4615 H         1 UNK         0.0600 
    187 H187       -2.3507  -11.2649  -47.7184 H         1 UNK         0.0600 
    188 H188       -3.2342  -12.0314  -46.4130 H         1 UNK         0.0600 
    189 H189       -0.6092  -12.8186  -48.6437 H         1 UNK         0.3000 
    190 H190       -0.5535  -25.4751  -45.5730 H         1 UNK         0.3000 
    191 H191       -3.1598  -25.1020  -44.2486 H         1 UNK         0.0600 
    192 H192       -2.3738  -27.4065  -44.9001 H         1 UNK         0.0600 
    193 H193       -2.3622  -26.9194  -46.5934 H         1 UNK         0.0600 
    194 H194       -3.8704  -26.9587  -45.6990 H         1 UNK         0.0600 
    195 H195       -5.0293  -24.5509  -45.5287 H         1 UNK         0.3000 
    196 H196       -4.7765  -22.0682  -46.7081 H         1 UNK         0.0600 
    197 H197       -7.2502  -22.2650  -47.0312 H         1 UNK         0.0600 
    198 H198       -6.7598  -22.8570  -45.4546 H         1 UNK         0.0600 
    199 H199       -7.1558  -23.9977  -46.7415 H         1 UNK         0.0600 
    200 H200       -4.2904  -24.9644  -48.4474 H         1 UNK         0.3000 
    201 H201       -4.3405  -23.4644  -51.0022 H         1 UNK         0.0600 
    202 H202       -5.4860  -25.3260  -52.1587 H         1 UNK         0.0600 
    203 H203       -5.6559  -26.2060  -50.6425 H         1 UNK         0.0600 
    204 H204       -6.5186  -24.6888  -50.8925 H         1 UNK         0.0600 
    205 H205       -2.2488  -24.5231  -48.9899 H         1 UNK         0.3000 
    206 H206       -1.0205  -26.8069  -50.1362 H         1 UNK         0.0600 
    207 H207       -0.6388  -26.1351  -47.7957 H         1 UNK         0.0600 
    208 H208        0.8918  -26.2287  -48.6432 H         1 UNK         0.0600 
    209 H209        0.1728  -24.6619  -48.3126 H         1 UNK         0.0600 
    210 H210       -0.3622  -23.3272  -50.6803 H         1 UNK         0.3000 
    211 H211        1.9152  -23.9057  -52.4564 H         1 UNK         0.0600 
    212 H212        2.0340  -21.4144  -52.6090 H         1 UNK         0.0600 
    213 H213        2.0542  -21.9682  -50.9469 H         1 UNK         0.0600 
    214 H214        0.5821  -21.2738  -51.6287 H         1 UNK         0.0600 
    215 H215       -1.4974  -23.2452  -52.7123 H         1 UNK         0.3000 
    216 H216       -2.9647  -22.7987  -54.3096 H         1 UNK         0.0600 
    217 H217       -2.7524  -23.9261  -56.4928 H         1 UNK         0.0600 
    218 H218       -2.2147  -25.0066  -55.2168 H         1 UNK         0.0600 
    219 H219       -1.0327  -24.1912  -56.2399 H         1 UNK         0.0600 
    220 H220       -1.2967  -20.7329  -53.5935 H         1 UNK         0.3000 
    221 H221       -0.0724  -19.3637  -55.7720 H         1 UNK         0.0600 
    222 H222        0.6798  -19.2070  -53.3953 H         1 UNK         0.0600 
    223 H223       -0.8169  -18.3836  -52.9602 H         1 UNK         0.0600 
    224 H224        0.3299  -17.6172  -54.0481 H         1 UNK         0.0600 
    225 H225       -3.3436  -19.5553  -55.0133 H         1 UNK         0.3000 
    226 H226       -5.2131  -18.5624  -55.6217 H         1 UNK         0.0600 
    227 H227       -5.3988  -16.9999  -57.4564 H         1 UNK         0.0600 
    228 H228       -3.7206  -16.4984  -57.3161 H         1 UNK         0.0600 
    229 H229       -4.1204  -18.1174  -57.8867 H         1 UNK         0.0600 
    230 H230       -5.9707  -15.8878  -55.8371 H         1 UNK         0.3000 
    231 H231       -6.7726  -14.2516  -54.5869 H         1 UNK         0.0600 
    232 H232       -4.4729  -13.3165  -54.6317 H         1 UNK         0.0600 
    233 H233       -4.0431  -14.2016  -53.1760 H         1 UNK         0.0600 
    234 H234       -5.2668  -12.9407  -53.1131 H         1 UNK         0.0600 
    235 H235       -5.0798  -14.8971  -51.6398 H         1 UNK         0.3000 
    236 H236       -7.5046  -15.8220  -50.2955 H         1 UNK         0.0600 
    237 H237       -5.9363  -14.1973  -49.2209 H         1 UNK         0.0600 
    238 H238       -6.0821  -15.6720  -48.2764 H         1 UNK         0.0600 
    239 H239       -4.6518  -15.4090  -49.2650 H         1 UNK         0.0600 
    240 H240       -4.7263  -17.3299  -51.8159 H         1 UNK         0.3000 
    241 H241       -4.8971  -19.7861  -50.2384 H         1 UNK         0.0600 
    242 H242       -6.8307  -21.8175  -52.3854 H         1 UNK         0.3800 
    243 H243       -6.0501  -21.6182  -50.8264 H         1 UNK         0.3800 
    244 H244       -3.1484  -19.2896  -52.6886 H         1 UNK         0.0800 
    245 H245       -2.6981  -18.7182  -51.1172 H         1 UNK         0.0800 
    246 H246       -2.4920  -21.9454  -48.9807 H         1 UNK         0.0800 
    247 H247       -3.0656  -20.3056  -48.9823 H         1 UNK         0.0800 
@<TRIPOS>BOND
     1    1    2 1    
     2    1  127 1    
     3    1  128 1    
     4    1  129 1    
     5    2    3 2    
     6    2    4 am   BACKBONE|DICT|INTERRES
     7    4    5 1    
     8    4  130 1    
     9    5    6 1    
    10    5   65 1    
    11    5  131 1    
    12    6    7 1    
    13    6  132 1    
    14    6  133 1    
    15    7    8 1    
    16    8    9 1    
    17    8  134 1    
    18    8  135 1    
    19    9   10 ar   
    20    9   14 ar   
    21   10   11 ar   
    22   10  136 1    
    23   11   12 ar   
    24   11  126 1    
    25   12   13 ar   
    26   12  137 1    
    27   13   14 ar   
    28   13   15 1    
    29   14  138 1    
    30   15   16 1    
    31   15  139 1    
    32   15  140 1    
    33   16   17 1    
    34   17   18 1    
    35   17  141 1    
    36   17  142 1    
    37   18   19 1    
    38   18   67 1    
    39   18  143 1    
    40   19   20 am   BACKBONE|DICT|INTERRES
    41   19  144 1    
    42   20   21 2    
    43   20   22 1    
    44   22   23 1    
    45   22   24 1    
    46   22  145 1    
    47   23  146 1    
    48   23  147 1    
    49   23  148 1    
    50   24   25 am   BACKBONE|DICT|INTERRES
    51   24  149 1    
    52   25   26 2    
    53   25   27 1    
    54   27   28 1    
    55   27   29 1    
    56   27  150 1    
    57   28  151 1    
    58   28  152 1    
    59   28  153 1    
    60   29   30 am   BACKBONE|DICT|INTERRES
    61   29  154 1    
    62   30   31 2    
    63   30   32 1    
    64   32   33 1    
    65   32   34 1    
    66   32  155 1    
    67   33  156 1    
    68   33  157 1    
    69   33  158 1    
    70   34   35 am   BACKBONE|DICT|INTERRES
    71   34  159 1    
    72   35   36 2    
    73   35   37 1    
    74   37   38 1    
    75   37   39 1    
    76   37  160 1    
    77   38  161 1    
    78   38  162 1    
    79   38  163 1    
    80   39   40 am   BACKBONE|DICT|INTERRES
    81   39  164 1    
    82   40   41 2    
    83   40   42 1    
    84   42   43 1    
    85   42   44 1    
    86   42  165 1    
    87   43  166 1    
    88   43  167 1    
    89   43  168 1    
    90   44   45 am   BACKBONE|DICT|INTERRES
    91   44  169 1    
    92   45   46 2    
    93   45   47 1    
    94   47   48 1    
    95   47   49 1    
    96   47  170 1    
    97   48  171 1    
    98   48  172 1    
    99   48  173 1    
   100   49   50 am   BACKBONE|DICT|INTERRES
   101   49  174 1    
   102   50   51 2    
   103   50   52 1    
   104   52   53 1    
   105   52   54 1    
   106   52  175 1    
   107   53  176 1    
   108   53  177 1    
   109   53  178 1    
   110   54   55 am   BACKBONE|DICT|INTERRES
   111   54  179 1    
   112   55   56 2    
   113   55   57 1    
   114   57   58 1    
   115   57   59 1    
   116   57  180 1    
   117   58  181 1    
   118   58  182 1    
   119   58  183 1    
   120   59   60 am   BACKBONE|DICT|INTERRES
   121   59  184 1    
   122   60   61 2    
   123   60   62 1    
   124   62   63 1    
   125   62   64 1    
   126   62  185 1    
   127   63  186 1    
   128   63  187 1    
   129   63  188 1    
   130   64   65 am   BACKBONE|DICT|INTERRES
   131   64  189 1    
   132   65   66 2    
   133   67   68 2    
   134   67   69 am   BACKBONE|DICT|INTERRES
   135   69   70 1    
   136   69  190 1    
   137   70   71 1    
   138   70   72 1    
   139   70  191 1    
   140   71  192 1    
   141   71  193 1    
   142   71  194 1    
   143   72   73 2    
   144   72   74 am   BACKBONE|DICT|INTERRES
   145   74   75 1    
   146   74  195 1    
   147   75   76 1    
   148   75   77 1    
   149   75  196 1    
   150   76  197 1    
   151   76  198 1    
   152   76  199 1    
   153   77   78 2    
   154   77   79 am   BACKBONE|DICT|INTERRES
   155   79   80 1    
   156   79  200 1    
   157   80   81 1    
   158   80   82 1    
   159   80  201 1    
   160   81  202 1    
   161   81  203 1    
   162   81  204 1    
   163   82   83 2    
   164   82   84 am   BACKBONE|DICT|INTERRES
   165   84   85 1    
   166   84  205 1    
   167   85   86 1    
   168   85   87 1    
   169   85  206 1    
   170   86  207 1    
   171   86  208 1    
   172   86  209 1    
   173   87   88 2    
   174   87   89 am   BACKBONE|DICT|INTERRES
   175   89   90 1    
   176   89  210 1    
   177   90   91 1    
   178   90   92 1    
   179   90  211 1    
   180   91  212 1    
   181   91  213 1    
   182   91  214 1    
   183   92   93 2    
   184   92   94 am   BACKBONE|DICT|INTERRES
   185   94   95 1    
   186   94  215 1    
   187   95   96 1    
   188   95   97 1    
   189   95  216 1    
   190   96  217 1    
   191   96  218 1    
   192   96  219 1    
   193   97   98 2    
   194   97   99 am   BACKBONE|DICT|INTERRES
   195   99  100 1    
   196   99  220 1    
   197  100  101 1    
   198  100  102 1    
   199  100  221 1    
   200  101  222 1    
   201  101  223 1    
   202  101  224 1    
   203  102  103 2    
   204  102  104 am   BACKBONE|DICT|INTERRES
   205  104  105 1    
   206  104  225 1    
   207  105  106 1    
   208  105  107 1    
   209  105  226 1    
   210  106  227 1    
   211  106  228 1    
   212  106  229 1    
   213  107  108 2    
   214  107  109 am   BACKBONE|DICT|INTERRES
   215  109  110 1    
   216  109  230 1    
   217  110  111 1    
   218  110  112 1    
   219  110  231 1    
   220  111  232 1    
   221  111  233 1    
   222  111  234 1    
   223  112  113 2    
   224  112  114 am   BACKBONE|DICT|INTERRES
   225  114  115 1    
   226  114  235 1    
   227  115  116 1    
   228  115  117 1    
   229  115  236 1    
   230  116  237 1    
   231  116  238 1    
   232  116  239 1    
   233  117  118 2    
   234  117  119 am   BACKBONE|DICT|INTERRES
   235  119  120 1    
   236  119  240 1    
   237  120  121 1    
   238  120  124 1    
   239  120  241 1    
   240  121  122 am   BACKBONE|DICT|INTERRES
   241  121  123 2    
   242  122  242 1    
   243  122  243 1    
   244  124  125 1    
   245  124  244 1    
   246  124  245 1    
   247  125  126 1    
   248  126  246 1    
   249  126  247 1    
@<TRIPOS>SUBSTRUCTURE
     1 UNK         1 GROUP             0       ****    0 ROOT    
