@<TRIPOS>MOLECULE
3R540
247   249    1
SMALL
USER_CHARGES


@<TRIPOS>ATOM
      1 CA          2.4031  -11.1036  -47.6636 C.3       0 UNK        -0.1800 
      2 C           3.7358  -11.7383  -48.0380 C.2       0 UNK         0.5000 
      3 O           4.7838  -11.2419  -47.6258 O.2       0 UNK        -0.5000 
      4 N           3.6909  -12.8277  -48.8190 N.am      1 UNK        -0.5000 
      5 CA          4.8408  -13.6181  -49.2771 C.3       1 UNK         0.1400 
      6 C6          4.3867  -14.7349  -50.2523 C.3       23 UNK        -0.0398 
      7 S7          5.7679  -15.5575  -51.1166 S.3       23 UNK        -0.2404 
      8 C8          4.9994  -15.9882  -52.7143 C.3       23 UNK        -0.0205 
      9 C9          3.7729  -16.8892  -52.5886 C.ar      23 UNK        -0.0193 
     10 C10         2.6237  -16.6012  -53.3308 C.ar      23 UNK        -0.1150 
     11 C11         1.5007  -17.4315  -53.2638 C.ar      23 UNK        -0.0193 
     12 C12         1.5341  -18.5634  -52.4424 C.ar      23 UNK        -0.1150 
     13 C13         2.6657  -18.8516  -51.6759 C.ar      23 UNK        -0.0193 
     14 C14         3.7857  -18.0196  -51.7641 C.ar      23 UNK        -0.1150 
     15 C15         2.6799  -20.0535  -50.7449 C.3       23 UNK        -0.0205 
     16 S16         1.8919  -19.6555  -49.1525 S.3       23 UNK        -0.2404 
     17 C17         0.1802  -20.2500  -49.4044 C.3       23 UNK        -0.0398 
     18 CA         -0.1120  -21.4743  -48.5098 C.3       11 UNK         0.1400 
     19 N          -0.0273  -21.1534  -47.0853 N.am      11 UNK        -0.5000 
     20 C           0.1149  -22.0644  -46.1166 C.2       10 UNK         0.5000 
     21 O           0.1719  -23.2781  -46.3175 O.2       10 UNK        -0.5000 
     22 CA          0.1735  -21.5226  -44.6806 C.3       10 UNK         0.1400 
     23 CB          1.5915  -21.0393  -44.3398 C.3       10 UNK        -0.1800 
     24 N          -0.7869  -20.4404  -44.4555 N.am      10 UNK        -0.5000 
     25 C          -2.1122  -20.6298  -44.3985 C.2       9 UNK         0.5000 
     26 O          -2.6546  -21.7161  -44.6028 O.2       9 UNK        -0.5000 
     27 CA         -2.9836  -19.4086  -44.0598 C.3       9 UNK         0.1400 
     28 CB         -2.8259  -19.0187  -42.5820 C.3       9 UNK        -0.1800 
     29 N          -2.7415  -18.2342  -44.8954 N.am      9 UNK        -0.5000 
     30 C          -2.8682  -18.1894  -46.2285 C.2       8 UNK         0.5000 
     31 O          -3.0407  -19.1742  -46.9416 O.2       8 UNK        -0.5000 
     32 CA         -2.7768  -16.8011  -46.8720 C.3       8 UNK         0.1400 
     33 CB         -3.9446  -15.8992  -46.4377 C.3       8 UNK        -0.1800 
     34 N          -1.5031  -16.1867  -46.5265 N.am      8 UNK        -0.5000 
     35 C          -0.3729  -16.4141  -47.2082 C.2       7 UNK         0.5000 
     36 O          -0.3306  -17.0159  -48.2791 O.2       7 UNK        -0.5000 
     37 CA          0.9374  -15.8953  -46.5917 C.3       7 UNK         0.1400 
     38 CB          1.3133  -14.5529  -47.2281 C.3       7 UNK        -0.1800 
     39 N           0.8887  -15.7347  -45.1369 N.am      7 UNK        -0.5000 
     40 C           0.7193  -16.7322  -44.2563 C.2       6 UNK         0.5000 
     41 O           0.6051  -17.9166  -44.5694 O.2       6 UNK        -0.5000 
     42 CA          0.6033  -16.3287  -42.7768 C.3       6 UNK         0.1400 
     43 CB          2.0004  -16.1586  -42.1640 C.3       6 UNK        -0.1800 
     44 N          -0.1711  -15.1019  -42.5737 N.am      6 UNK        -0.5000 
     45 C          -1.4459  -14.9085  -42.9373 C.2       5 UNK         0.5000 
     46 O          -2.1240  -15.7682  -43.5014 O.2       5 UNK        -0.5000 
     47 CA         -2.0630  -13.5180  -42.6770 C.3       5 UNK         0.1400 
     48 CB         -2.6579  -13.4285  -41.2591 C.3       5 UNK        -0.1800 
     49 N          -1.1628  -12.3910  -42.9694 N.am      5 UNK        -0.5000 
     50 C          -0.0391  -12.0285  -42.3356 C.2       4 UNK         0.5000 
     51 O           0.3882  -12.5726  -41.3143 O.2       4 UNK        -0.5000 
     52 CA          0.7823  -10.9023  -42.9941 C.3       4 UNK         0.1400 
     53 CB          0.6507   -9.5954  -42.1976 C.3       4 UNK        -0.1800 
     54 N           2.1993  -11.2598  -43.1078 N.am      4 UNK        -0.5000 
     55 C           2.6627  -12.3402  -43.7498 C.2       3 UNK         0.5000 
     56 O           1.9416  -13.1214  -44.3825 O.2       3 UNK        -0.5000 
     57 CA          4.1749  -12.6050  -43.6622 C.3       3 UNK         0.1400 
     58 CB          4.5926  -12.9472  -42.2157 C.3       3 UNK        -0.1800 
     59 N           4.4621  -13.7072  -44.5731 N.am      3 UNK        -0.5000 
     60 C           5.6436  -14.2493  -44.8834 C.2       2 UNK         0.5000 
     61 O           6.7236  -13.8866  -44.4157 O.2       2 UNK        -0.5000 
     62 CA          5.5945  -15.3746  -45.9314 C.3       2 UNK         0.1400 
     63 CB          4.7921  -16.5863  -45.4231 C.3       2 UNK        -0.1800 
     64 N           5.0033  -14.8834  -47.1764 N.am      2 UNK        -0.5000 
     65 C           5.6726  -14.1762  -48.0979 C.2       1 UNK         0.5000 
     66 O           6.8799  -13.9364  -48.0345 O.2       1 UNK        -0.5000 
     67 C          -1.4516  -22.1554  -48.8499 C.2       11 UNK         0.5000 
     68 O          -1.4485  -23.1241  -49.6105 O.2       11 UNK        -0.5000 
     69 N          -2.5551  -21.7082  -48.2289 N.am      12 UNK        -0.5000 
     70 CA         -3.8597  -22.3580  -48.3366 C.3       12 UNK         0.1400 
     71 CB         -4.9632  -21.4799  -47.7313 C.3       12 UNK        -0.1800 
     72 C          -3.8668  -23.7541  -47.6985 C.2       12 UNK         0.5000 
     73 O          -4.4079  -24.6775  -48.3014 O.2       12 UNK        -0.5000 
     74 N          -3.2362  -23.9065  -46.5239 N.am      13 UNK        -0.5000 
     75 CA         -3.0772  -25.1926  -45.8395 C.3       13 UNK         0.1400 
     76 CB         -2.4413  -24.9813  -44.4578 C.3       13 UNK        -0.1800 
     77 C          -2.2725  -26.2125  -46.6661 C.2       13 UNK         0.5000 
     78 O          -2.6787  -27.3716  -46.7561 O.2       13 UNK        -0.5000 
     79 N          -1.1880  -25.7533  -47.3078 N.am      14 UNK        -0.5000 
     80 CA         -0.3751  -26.5419  -48.2389 C.3       14 UNK         0.1400 
     81 CB          0.8772  -25.7406  -48.6254 C.3       14 UNK        -0.1800 
     82 C          -1.1485  -26.9879  -49.4978 C.2       14 UNK         0.5000 
     83 O          -0.8938  -28.0765  -50.0133 O.2       14 UNK        -0.5000 
     84 N          -2.1005  -26.1588  -49.9440 N.am      15 UNK        -0.5000 
     85 CA         -3.0162  -26.4285  -51.0540 C.3       15 UNK         0.1400 
     86 CB         -3.3471  -25.0954  -51.7434 C.3       15 UNK        -0.1800 
     87 C          -4.3050  -27.1608  -50.6198 C.2       15 UNK         0.5000 
     88 O          -5.2157  -27.2990  -51.4374 O.2       15 UNK        -0.5000 
     89 N          -4.3880  -27.5913  -49.3503 N.am      16 UNK        -0.5000 
     90 CA         -5.5189  -28.2850  -48.7184 C.3       16 UNK         0.1400 
     91 CB         -5.6743  -29.7042  -49.3031 C.3       16 UNK        -0.1800 
     92 C          -6.8367  -27.4765  -48.7486 C.2       16 UNK         0.5000 
     93 O          -7.9189  -28.0583  -48.8399 O.2       16 UNK        -0.5000 
     94 N          -6.7093  -26.1434  -48.6861 N.am      17 UNK        -0.5000 
     95 CA         -7.7549  -25.1178  -48.7404 C.3       17 UNK         0.1400 
     96 CB         -8.7084  -25.2392  -47.5340 C.3       17 UNK        -0.1800 
     97 C          -8.5067  -25.0376  -50.0870 C.2       17 UNK         0.5000 
     98 O          -9.5515  -24.3874  -50.1534 O.2       17 UNK        -0.5000 
     99 N          -7.9736  -25.6704  -51.1429 N.am      18 UNK        -0.5000 
    100 CA        -8.5667  -25.6691  -52.4821 C.3       18 UNK         0.1400 
    101 CB        -8.0067  -26.8554  -53.2818 C.3       18 UNK        -0.1800 
    102 C         -8.3292  -24.3507  -53.2431 C.2       18 UNK         0.5000 
    103 O         -9.1403  -23.9914  -54.0980 O.2       18 UNK        -0.5000 
    104 N         -7.2271  -23.6624  -52.9253 N.am      19 UNK        -0.5000 
    105 CA        -6.7591  -22.4200  -53.5337 C.3       19 UNK         0.1400 
    106 CB        -6.3157  -22.6706  -54.9949 C.3       19 UNK        -0.1800 
    107 C         -5.6131  -21.8652  -52.6659 C.2       19 UNK         0.5000 
    108 O         -5.4507  -22.3024  -51.5249 O.2       19 UNK        -0.5000 
    109 N         -4.8278  -20.9388  -53.2339 N.am      20 UNK        -0.5000 
    110 CA        -3.5583  -20.4089  -52.7187 C.3       20 UNK         0.1400 
    111 CB        -2.4973  -21.5237  -52.6221 C.3       20 UNK        -0.1800 
    112 C         -3.6698  -19.5893  -51.4173 C.2       20 UNK         0.5000 
    113 O         -2.6968  -19.4966  -50.6691 O.2       20 UNK        -0.5000 
    114 N         -4.8206  -18.9412  -51.1925 N.am      21 UNK        -0.5000 
    115 CA        -5.0438  -17.9891  -50.0994 C.3       21 UNK         0.1400 
    116 CB        -6.5514  -17.9177  -49.8010 C.3       21 UNK        -0.1800 
    117 C         -4.4263  -16.6084  -50.4217 C.2       21 UNK         0.5000 
    118 O         -5.1305  -15.5974  -50.4560 O.2       21 UNK        -0.5000 
    119 N         -3.1151  -16.6031  -50.6795 N.am      22 UNK        -0.5000 
    120 CA        -2.2846  -15.4831  -51.1559 C.3       22 UNK         0.1400 
    121 C         -2.0357  -14.3534  -50.1085 C.2       22 UNK         0.5000 
    122 N         -3.0394  -13.9569  -49.3398 N.am      22 UNK        -0.7600 
    123 O         -0.9380  -13.8127  -49.9985 O.2       22 UNK        -0.5000 
    124 C124       -0.9739  -16.0092  -51.7997 C.3       23 UNK        -0.0398 
    125 S125       -1.2908  -17.1934  -53.1560 S.3       23 UNK        -0.2404 
    126 C126        0.2667  -17.1040  -54.0978 C.3       23 UNK        -0.0205 
    127 H127        2.4011  -10.0471  -47.9313 H         1 UNK         0.0600 
    128 H128        1.5669  -11.5833  -48.1732 H         1 UNK         0.0600 
    129 H129        2.2371  -11.1842  -46.5897 H         1 UNK         0.0600 
    130 H130        2.7891  -13.1470  -49.1422 H         1 UNK         0.3000 
    131 H131        5.4851  -12.9322  -49.8316 H         1 UNK         0.0600 
    132 H132        3.7953  -15.4945  -49.7376 H         1 UNK         0.0800 
    133 H133        3.7271  -14.3051  -51.0081 H         1 UNK         0.0800 
    134 H134        4.7477  -15.0641  -53.2374 H         1 UNK         0.0800 
    135 H135        5.7406  -16.4976  -53.3316 H         1 UNK         0.0800 
    136 H136        2.6071  -15.7321  -53.9736 H         1 UNK         0.1150 
    137 H137        0.6696  -19.2092  -52.3851 H         1 UNK         0.1150 
    138 H138        4.6679  -18.2487  -51.1830 H         1 UNK         0.1150 
    139 H139        2.1937  -20.9090  -51.2156 H         1 UNK         0.0800 
    140 H140        3.7087  -20.3623  -50.5535 H         1 UNK         0.0800 
    141 H141        0.0225  -20.4932  -50.4557 H         1 UNK         0.0800 
    142 H142       -0.5113  -19.4385  -49.1767 H         1 UNK         0.0800 
    143 H143        0.6637  -22.2143  -48.7209 H         1 UNK         0.0600 
    144 H144       -0.0813  -20.1770  -46.8343 H         1 UNK         0.3000 
    145 H145       -0.0743  -22.3430  -44.0036 H         1 UNK         0.0600 
    146 H146        1.6473  -20.6676  -43.3165 H         1 UNK         0.0600 
    147 H147        2.3119  -21.8532  -44.4316 H         1 UNK         0.0600 
    148 H148        1.9169  -20.2387  -45.0055 H         1 UNK         0.0600 
    149 H149       -0.4055  -19.5027  -44.3540 H         1 UNK         0.3000 
    150 H150       -4.0234  -19.7022  -44.2180 H         1 UNK         0.0600 
    151 H151       -3.0233  -19.8695  -41.9285 H         1 UNK         0.0600 
    152 H152       -3.5241  -18.2279  -42.3065 H         1 UNK         0.0600 
    153 H153       -1.8183  -18.6633  -42.3652 H         1 UNK         0.0600 
    154 H154       -2.5591  -17.3658  -44.3989 H         1 UNK         0.3000 
    155 H155       -2.8389  -16.9249  -47.9529 H         1 UNK         0.0600 
    156 H156       -3.8663  -14.9087  -46.8832 H         1 UNK         0.0600 
    157 H157       -3.9908  -15.7694  -45.3568 H         1 UNK         0.0600 
    158 H158       -4.8974  -16.3238  -46.7559 H         1 UNK         0.0600 
    159 H159       -1.4472  -15.7266  -45.6282 H         1 UNK         0.3000 
    160 H160        1.7183  -16.6227  -46.8238 H         1 UNK         0.0600 
    161 H161        0.5593  -13.7903  -47.0277 H         1 UNK         0.0600 
    162 H162        1.4037  -14.6476  -48.3110 H         1 UNK         0.0600 
    163 H163        2.2629  -14.1890  -46.8425 H         1 UNK         0.0600 
    164 H164        0.9985  -14.7884  -44.7823 H         1 UNK         0.3000 
    165 H165        0.0912  -17.1346  -42.2481 H         1 UNK         0.0600 
    166 H166        2.5658  -15.3806  -42.6761 H         1 UNK         0.0600 
    167 H167        1.9425  -15.8946  -41.1080 H         1 UNK         0.0600 
    168 H168        2.5746  -17.0832  -42.2391 H         1 UNK         0.0600 
    169 H169        0.2984  -14.3301  -42.1095 H         1 UNK         0.3000 
    170 H170       -2.8917  -13.4161  -43.3800 H         1 UNK         0.0600 
    171 H171       -3.4169  -14.1978  -41.1100 H         1 UNK         0.0600 
    172 H172       -1.9020  -13.5675  -40.4857 H         1 UNK         0.0600 
    173 H173       -3.1362  -12.4632  -41.0925 H         1 UNK         0.0600 
    174 H174       -1.3956  -11.8871  -43.8141 H         1 UNK         0.3000 
    175 H175        0.4043  -10.7307  -44.0043 H         1 UNK         0.0600 
    176 H176        1.1859   -8.7796  -42.6843 H         1 UNK         0.0600 
    177 H177       -0.3941   -9.2933  -42.1136 H         1 UNK         0.0600 
    178 H178        1.0447   -9.7001  -41.1855 H         1 UNK         0.0600 
    179 H179        2.8472  -10.6824  -42.5919 H         1 UNK         0.3000 
    180 H180        4.7058  -11.7155  -44.0068 H         1 UNK         0.0600 
    181 H181        4.1077  -13.8547  -41.8571 H         1 UNK         0.0600 
    182 H182        4.3293  -12.1440  -41.5268 H         1 UNK         0.0600 
    183 H183        5.6693  -13.0905  -42.1301 H         1 UNK         0.0600 
    184 H184        3.6219  -14.0561  -45.0167 H         1 UNK         0.3000 
    185 H185        6.6173  -15.7074  -46.1225 H         1 UNK         0.0600 
    186 H186        3.7484  -16.3389  -45.2298 H         1 UNK         0.0600 
    187 H187        4.8111  -17.4015  -46.1471 H         1 UNK         0.0600 
    188 H188        5.2143  -16.9690  -44.4927 H         1 UNK         0.0600 
    189 H189        4.0145  -15.0290  -47.3023 H         1 UNK         0.3000 
    190 H190       -2.5132  -20.8725  -47.6516 H         1 UNK         0.3000 
    191 H191       -4.0747  -22.4819  -49.3978 H         1 UNK         0.0600 
    192 H192       -5.0333  -20.5264  -48.2533 H         1 UNK         0.0600 
    193 H193       -5.9369  -21.9642  -47.8141 H         1 UNK         0.0600 
    194 H194       -4.7834  -21.2766  -46.6749 H         1 UNK         0.0600 
    195 H195       -2.8521  -23.0910  -46.0565 H         1 UNK         0.3000 
    196 H196       -4.0755  -25.6087  -45.6889 H         1 UNK         0.0600 
    197 H197       -2.3186  -25.9305  -43.9346 H         1 UNK         0.0600 
    198 H198       -3.0655  -24.3445  -43.8310 H         1 UNK         0.0600 
    199 H199       -1.4579  -24.5174  -44.5316 H         1 UNK         0.0600 
    200 H200       -0.8932  -24.7955  -47.1438 H         1 UNK         0.3000 
    201 H201       -0.0525  -27.4438  -47.7147 H         1 UNK         0.0600 
    202 H202        1.4652  -25.4788  -47.7456 H         1 UNK         0.0600 
    203 H203        0.6201  -24.8160  -49.1425 H         1 UNK         0.0600 
    204 H204        1.5220  -26.3190  -49.2881 H         1 UNK         0.0600 
    205 H205       -2.2213  -25.2686  -49.4757 H         1 UNK         0.3000 
    206 H206       -2.5182  -27.0683  -51.7850 H         1 UNK         0.0600 
    207 H207       -2.4414  -24.6083  -52.1044 H         1 UNK         0.0600 
    208 H208       -4.0018  -25.2382  -52.6039 H         1 UNK         0.0600 
    209 H209       -3.8461  -24.4090  -51.0594 H         1 UNK         0.0600 
    210 H210       -3.6095  -27.3928  -48.7337 H         1 UNK         0.3000 
    211 H211       -5.2566  -28.3900  -47.6648 H         1 UNK         0.0600 
    212 H212       -5.9973  -29.6797  -50.3444 H         1 UNK         0.0600 
    213 H213       -6.4135  -30.2797  -48.7448 H         1 UNK         0.0600 
    214 H214       -4.7346  -30.2545  -49.2560 H         1 UNK         0.0600 
    215 H215       -5.7646  -25.7645  -48.6124 H         1 UNK         0.3000 
    216 H216       -7.2314  -24.1656  -48.6442 H         1 UNK         0.0600 
    217 H217       -8.1542  -25.2737  -46.5960 H         1 UNK         0.0600 
    218 H218       -9.3259  -26.1357  -47.5936 H         1 UNK         0.0600 
    219 H219       -9.3821  -24.3834  -47.4785 H         1 UNK         0.0600 
    220 H220       -7.1149  -26.1953  -51.0239 H         1 UNK         0.3000 
    221 H221       -9.6456  -25.8088  -52.3851 H         1 UNK         0.0600 
    222 H222       -6.9349  -26.7531  -53.4561 H         1 UNK         0.0600 
    223 H223       -8.1735  -27.7985  -52.7607 H         1 UNK         0.0600 
    224 H224       -8.4902  -26.9310  -54.2566 H         1 UNK         0.0600 
    225 H225       -6.6467  -23.9844  -52.1605 H         1 UNK         0.3000 
    226 H226       -7.5739  -21.6933  -53.5168 H         1 UNK         0.0600 
    227 H227       -7.1146  -23.1094  -55.5922 H         1 UNK         0.0600 
    228 H228       -6.0344  -21.7434  -55.4950 H         1 UNK         0.0600 
    229 H229       -5.4599  -23.3462  -55.0410 H         1 UNK         0.0600 
    230 H230       -5.0679  -20.6327  -54.1665 H         1 UNK         0.3000 
    231 H231       -3.2091  -19.7034  -53.4738 H         1 UNK         0.0600 
    232 H232       -1.5078  -21.1094  -52.4262 H         1 UNK         0.0600 
    233 H233       -2.4322  -22.0945  -53.5483 H         1 UNK         0.0600 
    234 H234       -2.7252  -22.2167  -51.8133 H         1 UNK         0.0600 
    235 H235       -5.5645  -19.0395  -51.8675 H         1 UNK         0.3000 
    236 H236       -4.5486  -18.3592  -49.1995 H         1 UNK         0.0600 
    237 H237       -6.7527  -17.2461  -48.9652 H         1 UNK         0.0600 
    238 H238       -7.1166  -17.5544  -50.6603 H         1 UNK         0.0600 
    239 H239       -6.9447  -18.8980  -49.5300 H         1 UNK         0.0600 
    240 H240       -2.6344  -17.4955  -50.6167 H         1 UNK         0.3000 
    241 H241       -2.8458  -14.9946  -51.9544 H         1 UNK         0.0600 
    242 H242       -3.9579  -14.3629  -49.4831 H         1 UNK         0.3800 
    243 H243       -2.9008  -13.2167  -48.6715 H         1 UNK         0.3800 
    244 H244       -0.3870  -15.1806  -52.1999 H         1 UNK         0.0800 
    245 H245       -0.3494  -16.4963  -51.0479 H         1 UNK         0.0800 
    246 H246        0.2130  -17.8050  -54.9316 H         1 UNK         0.0800 
    247 H247        0.3487  -16.1083  -54.5366 H         1 UNK         0.0800 
@<TRIPOS>BOND
     1    1    2 1    
     2    1  127 1    
     3    1  128 1    
     4    1  129 1    
     5    2    3 2    
     6    2    4 am   BACKBONE|DICT|INTERRES
     7    4    5 1    
     8    4  130 1    
     9    5    6 1    
    10    5   65 1    
    11    5  131 1    
    12    6    7 1    
    13    6  132 1    
    14    6  133 1    
    15    7    8 1    
    16    8    9 1    
    17    8  134 1    
    18    8  135 1    
    19    9   10 ar   
    20    9   14 ar   
    21   10   11 ar   
    22   10  136 1    
    23   11   12 ar   
    24   11  126 1    
    25   12   13 ar   
    26   12  137 1    
    27   13   14 ar   
    28   13   15 1    
    29   14  138 1    
    30   15   16 1    
    31   15  139 1    
    32   15  140 1    
    33   16   17 1    
    34   17   18 1    
    35   17  141 1    
    36   17  142 1    
    37   18   19 1    
    38   18   67 1    
    39   18  143 1    
    40   19   20 am   BACKBONE|DICT|INTERRES
    41   19  144 1    
    42   20   21 2    
    43   20   22 1    
    44   22   23 1    
    45   22   24 1    
    46   22  145 1    
    47   23  146 1    
    48   23  147 1    
    49   23  148 1    
    50   24   25 am   BACKBONE|DICT|INTERRES
    51   24  149 1    
    52   25   26 2    
    53   25   27 1    
    54   27   28 1    
    55   27   29 1    
    56   27  150 1    
    57   28  151 1    
    58   28  152 1    
    59   28  153 1    
    60   29   30 am   BACKBONE|DICT|INTERRES
    61   29  154 1    
    62   30   31 2    
    63   30   32 1    
    64   32   33 1    
    65   32   34 1    
    66   32  155 1    
    67   33  156 1    
    68   33  157 1    
    69   33  158 1    
    70   34   35 am   BACKBONE|DICT|INTERRES
    71   34  159 1    
    72   35   36 2    
    73   35   37 1    
    74   37   38 1    
    75   37   39 1    
    76   37  160 1    
    77   38  161 1    
    78   38  162 1    
    79   38  163 1    
    80   39   40 am   BACKBONE|DICT|INTERRES
    81   39  164 1    
    82   40   41 2    
    83   40   42 1    
    84   42   43 1    
    85   42   44 1    
    86   42  165 1    
    87   43  166 1    
    88   43  167 1    
    89   43  168 1    
    90   44   45 am   BACKBONE|DICT|INTERRES
    91   44  169 1    
    92   45   46 2    
    93   45   47 1    
    94   47   48 1    
    95   47   49 1    
    96   47  170 1    
    97   48  171 1    
    98   48  172 1    
    99   48  173 1    
   100   49   50 am   BACKBONE|DICT|INTERRES
   101   49  174 1    
   102   50   51 2    
   103   50   52 1    
   104   52   53 1    
   105   52   54 1    
   106   52  175 1    
   107   53  176 1    
   108   53  177 1    
   109   53  178 1    
   110   54   55 am   BACKBONE|DICT|INTERRES
   111   54  179 1    
   112   55   56 2    
   113   55   57 1    
   114   57   58 1    
   115   57   59 1    
   116   57  180 1    
   117   58  181 1    
   118   58  182 1    
   119   58  183 1    
   120   59   60 am   BACKBONE|DICT|INTERRES
   121   59  184 1    
   122   60   61 2    
   123   60   62 1    
   124   62   63 1    
   125   62   64 1    
   126   62  185 1    
   127   63  186 1    
   128   63  187 1    
   129   63  188 1    
   130   64   65 am   BACKBONE|DICT|INTERRES
   131   64  189 1    
   132   65   66 2    
   133   67   68 2    
   134   67   69 am   BACKBONE|DICT|INTERRES
   135   69   70 1    
   136   69  190 1    
   137   70   71 1    
   138   70   72 1    
   139   70  191 1    
   140   71  192 1    
   141   71  193 1    
   142   71  194 1    
   143   72   73 2    
   144   72   74 am   BACKBONE|DICT|INTERRES
   145   74   75 1    
   146   74  195 1    
   147   75   76 1    
   148   75   77 1    
   149   75  196 1    
   150   76  197 1    
   151   76  198 1    
   152   76  199 1    
   153   77   78 2    
   154   77   79 am   BACKBONE|DICT|INTERRES
   155   79   80 1    
   156   79  200 1    
   157   80   81 1    
   158   80   82 1    
   159   80  201 1    
   160   81  202 1    
   161   81  203 1    
   162   81  204 1    
   163   82   83 2    
   164   82   84 am   BACKBONE|DICT|INTERRES
   165   84   85 1    
   166   84  205 1    
   167   85   86 1    
   168   85   87 1    
   169   85  206 1    
   170   86  207 1    
   171   86  208 1    
   172   86  209 1    
   173   87   88 2    
   174   87   89 am   BACKBONE|DICT|INTERRES
   175   89   90 1    
   176   89  210 1    
   177   90   91 1    
   178   90   92 1    
   179   90  211 1    
   180   91  212 1    
   181   91  213 1    
   182   91  214 1    
   183   92   93 2    
   184   92   94 am   BACKBONE|DICT|INTERRES
   185   94   95 1    
   186   94  215 1    
   187   95   96 1    
   188   95   97 1    
   189   95  216 1    
   190   96  217 1    
   191   96  218 1    
   192   96  219 1    
   193   97   98 2    
   194   97   99 am   BACKBONE|DICT|INTERRES
   195   99  100 1    
   196   99  220 1    
   197  100  101 1    
   198  100  102 1    
   199  100  221 1    
   200  101  222 1    
   201  101  223 1    
   202  101  224 1    
   203  102  103 2    
   204  102  104 am   BACKBONE|DICT|INTERRES
   205  104  105 1    
   206  104  225 1    
   207  105  106 1    
   208  105  107 1    
   209  105  226 1    
   210  106  227 1    
   211  106  228 1    
   212  106  229 1    
   213  107  108 2    
   214  107  109 am   BACKBONE|DICT|INTERRES
   215  109  110 1    
   216  109  230 1    
   217  110  111 1    
   218  110  112 1    
   219  110  231 1    
   220  111  232 1    
   221  111  233 1    
   222  111  234 1    
   223  112  113 2    
   224  112  114 am   BACKBONE|DICT|INTERRES
   225  114  115 1    
   226  114  235 1    
   227  115  116 1    
   228  115  117 1    
   229  115  236 1    
   230  116  237 1    
   231  116  238 1    
   232  116  239 1    
   233  117  118 2    
   234  117  119 am   BACKBONE|DICT|INTERRES
   235  119  120 1    
   236  119  240 1    
   237  120  121 1    
   238  120  124 1    
   239  120  241 1    
   240  121  122 am   BACKBONE|DICT|INTERRES
   241  121  123 2    
   242  122  242 1    
   243  122  243 1    
   244  124  125 1    
   245  124  244 1    
   246  124  245 1    
   247  125  126 1    
   248  126  246 1    
   249  126  247 1    
@<TRIPOS>SUBSTRUCTURE
     1 UNK         1 GROUP             0       ****    0 ROOT    
