@<TRIPOS>MOLECULE
3R540
247   249    1
SMALL
USER_CHARGES


@<TRIPOS>ATOM
      1 CA          1.7744  -13.3659  -50.3395 C.3       0 UNK        -0.1800 
      2 C           0.5116  -13.5427  -49.5087 C.2       0 UNK         0.5000 
      3 O          -0.5905  -13.3982  -50.0369 O.2       0 UNK        -0.5000 
      4 N           0.6738  -13.8545  -48.2147 N.am      1 UNK        -0.5000 
      5 CA         -0.3968  -14.1100  -47.2359 C.3       1 UNK         0.1400 
      6 C6         -1.2640  -15.3587  -47.5637 C.3       23 UNK        -0.0398 
      7 S7         -0.2636  -16.8704  -47.7666 S.3       23 UNK        -0.2404 
      8 C8         -0.5527  -17.2673  -49.5236 C.3       23 UNK        -0.0205 
      9 C9          0.3148  -18.3829  -50.1148 C.ar      23 UNK        -0.0193 
     10 C10         0.0417  -18.7936  -51.4240 C.ar      23 UNK        -0.1150 
     11 C11         0.8340  -19.7538  -52.0578 C.ar      23 UNK        -0.0193 
     12 C12         1.9069  -20.3215  -51.3663 C.ar      23 UNK        -0.1150 
     13 C13         2.2025  -19.9231  -50.0595 C.ar      23 UNK        -0.0193 
     14 C14         1.3979  -18.9634  -49.4353 C.ar      23 UNK        -0.1150 
     15 C15         3.4467  -20.4668  -49.3670 C.3       23 UNK        -0.0205 
     16 S16         3.1897  -22.1054  -48.6162 S.3       23 UNK        -0.2404 
     17 C17         2.5491  -21.6527  -46.9689 C.3       23 UNK        -0.0398 
     18 CA          1.5069  -22.6568  -46.4204 C.3       11 UNK         0.1400 
     19 N           1.2637  -22.4665  -44.9872 N.am      11 UNK        -0.5000 
     20 C           0.4982  -23.2600  -44.2229 C.2       10 UNK         0.5000 
     21 O          -0.0367  -24.2921  -44.6270 O.2       10 UNK        -0.5000 
     22 CA          0.2411  -22.7974  -42.7770 C.3       10 UNK         0.1400 
     23 CB          1.4257  -23.1546  -41.8675 C.3       10 UNK        -0.1800 
     24 N          -0.0425  -21.3638  -42.6886 N.am      10 UNK        -0.5000 
     25 C          -1.1074  -20.7686  -43.2471 C.2       9 UNK         0.5000 
     26 O          -1.9987  -21.3787  -43.8373 O.2       9 UNK        -0.5000 
     27 CA         -1.1603  -19.2309  -43.1869 C.3       9 UNK         0.1400 
     28 CB         -1.6853  -18.7497  -41.8264 C.3       9 UNK        -0.1800 
     29 N           0.1367  -18.6121  -43.4549 N.am      9 UNK        -0.5000 
     30 C           0.8247  -18.7350  -44.5976 C.2       8 UNK         0.5000 
     31 O           0.4200  -19.3638  -45.5730 O.2       8 UNK        -0.5000 
     32 CA          2.2332  -18.1171  -44.6243 C.3       8 UNK         0.1400 
     33 CB          2.1833  -16.5930  -44.8152 C.3       8 UNK        -0.1800 
     34 N           2.9772  -18.4321  -43.4056 N.am      8 UNK        -0.5000 
     35 C           3.4206  -19.6546  -43.0827 C.2       7 UNK         0.5000 
     36 O           3.2757  -20.6446  -43.7994 O.2       7 UNK        -0.5000 
     37 CA          4.1145  -19.7986  -41.7158 C.3       7 UNK         0.1400 
     38 CB          5.6050  -19.4458  -41.8273 C.3       7 UNK        -0.1800 
     39 N           3.4962  -18.9691  -40.6798 N.am      7 UNK        -0.5000 
     40 C           2.2738  -19.1828  -40.1731 C.2       6 UNK         0.5000 
     41 O           1.5479  -20.1182  -40.5094 O.2       6 UNK        -0.5000 
     42 CA          1.7562  -18.1410  -39.1620 C.3       6 UNK         0.1400 
     43 CB          2.3089  -18.4263  -37.7576 C.3       6 UNK        -0.1800 
     44 N           2.0614  -16.7546  -39.5370 N.am      6 UNK        -0.5000 
     45 C           1.6549  -16.1764  -40.6744 C.2       5 UNK         0.5000 
     46 O           1.0305  -16.7754  -41.5515 O.2       5 UNK        -0.5000 
     47 CA          2.0472  -14.7040  -40.8983 C.3       5 UNK         0.1400 
     48 CB          3.4972  -14.6095  -41.3987 C.3       5 UNK        -0.1800 
     49 N           1.1688  -14.0786  -41.8893 N.am      5 UNK        -0.5000 
     50 C          -0.1134  -13.7678  -41.6654 C.2       4 UNK         0.5000 
     51 O          -0.6479  -13.8189  -40.5545 O.2       4 UNK        -0.5000 
     52 CA         -0.9420  -13.3693  -42.8999 C.3       4 UNK         0.1400 
     53 CB         -1.5561  -14.6301  -43.5320 C.3       4 UNK        -0.1800 
     54 N          -2.0266  -12.4713  -42.5034 N.am      4 UNK        -0.5000 
     55 C          -2.0166  -11.1335  -42.3896 C.2       3 UNK         0.5000 
     56 O          -2.9362  -10.5507  -41.8169 O.2       3 UNK        -0.5000 
     57 CA         -0.8919  -10.2761  -43.0191 C.3       3 UNK         0.1400 
     58 CB          0.4635  -10.3995  -42.2996 C.3       3 UNK        -0.1800 
     59 N          -0.7371  -10.4754  -44.4616 N.am      3 UNK        -0.5000 
     60 C          -1.6236  -10.0704  -45.3827 C.2       2 UNK         0.5000 
     61 O          -2.6660   -9.4706  -45.1173 O.2       2 UNK        -0.5000 
     62 CA         -1.2808  -10.3716  -46.8532 C.3       2 UNK         0.1400 
     63 CB         -0.3857   -9.2677  -47.4374 C.3       2 UNK        -0.1800 
     64 N          -0.6263  -11.6678  -47.0374 N.am      2 UNK        -0.5000 
     65 C          -1.2522  -12.8508  -46.9534 C.2       1 UNK         0.5000 
     66 O          -2.4460  -12.9630  -46.6716 O.2       1 UNK        -0.5000 
     67 C           0.1935  -22.6174  -47.2260 C.2       11 UNK         0.5000 
     68 O          -0.0630  -23.5326  -48.0073 O.2       11 UNK        -0.5000 
     69 N          -0.6359  -21.5943  -46.9786 N.am      12 UNK        -0.5000 
     70 CA         -1.9403  -21.4198  -47.6111 C.3       12 UNK         0.1400 
     71 CB         -2.5424  -20.0681  -47.2048 C.3       12 UNK        -0.1800 
     72 C          -2.9168  -22.5697  -47.3136 C.2       12 UNK         0.5000 
     73 O          -3.5754  -23.0551  -48.2338 O.2       12 UNK        -0.5000 
     74 N          -2.9626  -23.0092  -46.0484 N.am      13 UNK        -0.5000 
     75 CA         -3.7630  -24.1452  -45.5922 C.3       13 UNK         0.1400 
     76 CB         -3.7211  -24.2202  -44.0585 C.3       13 UNK        -0.1800 
     77 C          -3.3198  -25.4814  -46.2159 C.2       13 UNK         0.5000 
     78 O          -4.1749  -26.2838  -46.5921 O.2       13 UNK        -0.5000 
     79 N          -2.0003  -25.6889  -46.3297 N.am      14 UNK        -0.5000 
     80 CA         -1.4003  -26.8623  -46.9640 C.3       14 UNK         0.1400 
     81 CB          0.0985  -26.9192  -46.6304 C.3       14 UNK        -0.1800 
     82 C          -1.6226  -26.8906  -48.4869 C.2       14 UNK         0.5000 
     83 O          -1.9331  -27.9500  -49.0333 O.2       14 UNK        -0.5000 
     84 N          -1.4637  -25.7321  -49.1416 N.am      15 UNK        -0.5000 
     85 CA         -1.6574  -25.5589  -50.5802 C.3       15 UNK         0.1400 
     86 CB         -1.0816  -24.2035  -51.0173 C.3       15 UNK        -0.1800 
     87 C          -3.1307  -25.6702  -51.0055 C.2       15 UNK         0.5000 
     88 O          -3.4091  -26.2359  -52.0635 O.2       15 UNK        -0.5000 
     89 N          -4.0380  -25.1013  -50.1964 N.am      16 UNK        -0.5000 
     90 CA         -5.4977  -25.0040  -50.3518 C.3       16 UNK         0.1400 
     91 CB         -6.1532  -26.3953  -50.4235 C.3       16 UNK        -0.1800 
     92 C          -5.9522  -24.1054  -51.5211 C.2       16 UNK         0.5000 
     93 O          -6.8755  -23.3083  -51.3552 O.2       16 UNK        -0.5000 
     94 N          -5.2664  -24.2056  -52.6655 N.am      17 UNK        -0.5000 
     95 CA         -5.4438  -23.3898  -53.8679 C.3       17 UNK         0.1400 
     96 CB         -4.7688  -24.1085  -55.0466 C.3       17 UNK        -0.1800 
     97 C          -4.9075  -21.9499  -53.7271 C.2       17 UNK         0.5000 
     98 O          -5.0499  -21.1587  -54.6596 O.2       17 UNK        -0.5000 
     99 N          -4.3061  -21.6157  -52.5771 N.am      18 UNK        -0.5000 
    100 CA        -3.7529  -20.3020  -52.2366 C.3       18 UNK         0.1400 
    101 CB        -3.1063  -20.3851  -50.8519 C.3       18 UNK        -0.1800 
    102 C         -4.7620  -19.1403  -52.3019 C.2       18 UNK         0.5000 
    103 O         -4.3538  -18.0066  -52.5514 O.2       18 UNK        -0.5000 
    104 N         -6.0601  -19.4446  -52.1604 N.am      19 UNK        -0.5000 
    105 CA        -7.1720  -18.5176  -52.3946 C.3       19 UNK         0.1400 
    106 CB        -8.4824  -19.2017  -51.9772 C.3       19 UNK        -0.1800 
    107 C         -7.2650  -18.0184  -53.8545 C.2       19 UNK         0.5000 
    108 O         -7.7956  -16.9323  -54.0882 O.2       19 UNK        -0.5000 
    109 N         -6.7275  -18.8031  -54.7981 N.am      20 UNK        -0.5000 
    110 CA        -6.5879  -18.4773  -56.2174 C.3       20 UNK         0.1400 
    111 CB        -7.1782  -19.6362  -57.0405 C.3       20 UNK        -0.1800 
    112 C         -5.1125  -18.2116  -56.5915 C.2       20 UNK         0.5000 
    113 O         -4.7799  -18.2273  -57.7769 O.2       20 UNK        -0.5000 
    114 N         -4.2571  -17.9774  -55.5824 N.am      21 UNK        -0.5000 
    115 CA        -2.8090  -17.7511  -55.6635 C.3       21 UNK         0.1400 
    116 CB        -2.4847  -16.4733  -56.4664 C.3       21 UNK        -0.1800 
    117 C         -2.0075  -18.9856  -56.1328 C.2       21 UNK         0.5000 
    118 O         -0.9292  -18.8292  -56.7088 O.2       21 UNK        -0.5000 
    119 N         -2.5254  -20.1852  -55.8349 N.am      22 UNK        -0.5000 
    120 CA        -1.9466  -21.5026  -56.1518 C.3       22 UNK         0.1400 
    121 C         -1.9687  -21.8530  -57.6723 C.2       22 UNK         0.5000 
    122 N         -1.4685  -23.0195  -58.0601 N.am      22 UNK        -0.7600 
    123 O         -2.4658  -21.1070  -58.5127 O.2       22 UNK        -0.5000 
    124 C124       -0.5540  -21.7473  -55.4961 C.3       23 UNK        -0.0398 
    125 S125       -0.5467  -21.5385  -53.6799 S.3       23 UNK        -0.2404 
    126 C126        0.5787  -20.1211  -53.5120 C.3       23 UNK        -0.0205 
    127 H127        1.8082  -12.3618  -50.7622 H         1 UNK         0.0600 
    128 H128        1.7854  -14.0837  -51.1598 H         1 UNK         0.0600 
    129 H129        2.6760  -13.5159  -49.7452 H         1 UNK         0.0600 
    130 H130        1.6129  -13.9657  -47.8592 H         1 UNK         0.3000 
    131 H131        0.1139  -14.3182  -46.2947 H         1 UNK         0.0600 
    132 H132       -1.8678  -15.1885  -48.4562 H         1 UNK         0.0800 
    133 H133       -1.9714  -15.5527  -46.7557 H         1 UNK         0.0800 
    134 H134       -0.3874  -16.3657  -50.1143 H         1 UNK         0.0800 
    135 H135       -1.6045  -17.5282  -49.6432 H         1 UNK         0.0800 
    136 H136       -0.7778  -18.3414  -51.9653 H         1 UNK         0.1150 
    137 H137        2.5353  -21.0507  -51.8584 H         1 UNK         0.1150 
    138 H138        1.6470  -18.6507  -48.4323 H         1 UNK         0.1150 
    139 H139        4.2516  -20.5490  -50.0990 H         1 UNK         0.0800 
    140 H140        3.8059  -19.7651  -48.6125 H         1 UNK         0.0800 
    141 H141        2.1379  -20.6441  -46.9985 H         1 UNK         0.0800 
    142 H142        3.4071  -21.6076  -46.2974 H         1 UNK         0.0800 
    143 H143        1.9228  -23.6609  -46.5288 H         1 UNK         0.0600 
    144 H144        1.7014  -21.6566  -44.5607 H         1 UNK         0.3000 
    145 H145       -0.6377  -23.3320  -42.4106 H         1 UNK         0.0600 
    146 H146        1.2130  -22.9048  -40.8280 H         1 UNK         0.0600 
    147 H147        2.3333  -22.6265  -42.1592 H         1 UNK         0.0600 
    148 H148        1.6400  -24.2233  -41.9078 H         1 UNK         0.0600 
    149 H149        0.6191  -20.7986  -42.1662 H         1 UNK         0.3000 
    150 H150       -1.8533  -18.8913  -43.9593 H         1 UNK         0.0600 
    151 H151       -2.6666  -19.1751  -41.6132 H         1 UNK         0.0600 
    152 H152       -1.7877  -17.6645  -41.8059 H         1 UNK         0.0600 
    153 H153       -1.0173  -19.0361  -41.0135 H         1 UNK         0.0600 
    154 H154        0.5322  -18.0452  -42.7064 H         1 UNK         0.3000 
    155 H155        2.7721  -18.5456  -45.4721 H         1 UNK         0.0600 
    156 H156        1.7351  -16.3358  -45.7732 H         1 UNK         0.0600 
    157 H157        3.1841  -16.1613  -44.8047 H         1 UNK         0.0600 
    158 H158        1.5977  -16.1032  -44.0388 H         1 UNK         0.0600 
    159 H159        3.0812  -17.6889  -42.7321 H         1 UNK         0.3000 
    160 H160        4.0337  -20.8439  -41.4101 H         1 UNK         0.0600 
    161 H161        5.7538  -18.4024  -42.1084 H         1 UNK         0.0600 
    162 H162        6.0961  -20.0624  -42.5814 H         1 UNK         0.0600 
    163 H163        6.1221  -19.6165  -40.8829 H         1 UNK         0.0600 
    164 H164        4.0244  -18.1747  -40.3502 H         1 UNK         0.3000 
    165 H165        0.6691  -18.2382  -39.1238 H         1 UNK         0.0600 
    166 H166        1.8674  -17.7593  -37.0170 H         1 UNK         0.0600 
    167 H167        2.0818  -19.4476  -37.4488 H         1 UNK         0.0600 
    168 H168        3.3920  -18.3040  -37.7169 H         1 UNK         0.0600 
    169 H169        2.5831  -16.2096  -38.8657 H         1 UNK         0.3000 
    170 H170        1.9588  -14.1662  -39.9520 H         1 UNK         0.0600 
    171 H171        3.6368  -15.1430  -42.3397 H         1 UNK         0.0600 
    172 H172        3.7917  -13.5716  -41.5558 H         1 UNK         0.0600 
    173 H173        4.1925  -15.0350  -40.6740 H         1 UNK         0.0600 
    174 H174        1.5274  -14.0389  -42.8309 H         1 UNK         0.3000 
    175 H175       -0.2955  -12.9024  -43.6405 H         1 UNK         0.0600 
    176 H176       -0.7824  -15.3055  -43.8993 H         1 UNK         0.0600 
    177 H177       -2.1983  -14.3796  -44.3754 H         1 UNK         0.0600 
    178 H178       -2.1587  -15.1885  -42.8142 H         1 UNK         0.0600 
    179 H179       -2.8032  -12.9489  -42.0715 H         1 UNK         0.3000 
    180 H180       -1.2034   -9.2384  -42.8780 H         1 UNK         0.0600 
    181 H181        1.0815   -9.5232  -42.4961 H         1 UNK         0.0600 
    182 H182        1.0343  -11.2689  -42.6201 H         1 UNK         0.0600 
    183 H183        0.3343  -10.4644  -41.2184 H         1 UNK         0.0600 
    184 H184        0.0978  -10.9454  -44.7759 H         1 UNK         0.3000 
    185 H185       -2.2168  -10.3778  -47.4163 H         1 UNK         0.0600 
    186 H186        0.5802   -9.2206  -46.9330 H         1 UNK         0.0600 
    187 H187       -0.2025   -9.4302  -48.4998 H         1 UNK         0.0600 
    188 H188       -0.8568   -8.2891  -47.3362 H         1 UNK         0.0600 
    189 H189        0.3490  -11.6558  -47.2982 H         1 UNK         0.3000 
    190 H190       -0.3330  -20.8579  -46.3440 H         1 UNK         0.3000 
    191 H191       -1.7633  -21.4078  -48.6854 H         1 UNK         0.0600 
    192 H192       -3.5132  -19.9117  -47.6763 H         1 UNK         0.0600 
    193 H193       -1.8964  -19.2480  -47.5122 H         1 UNK         0.0600 
    194 H194       -2.6834  -19.9959  -46.1264 H         1 UNK         0.0600 
    195 H195       -2.4207  -22.5204  -45.3405 H         1 UNK         0.3000 
    196 H196       -4.7967  -23.9656  -45.8949 H         1 UNK         0.0600 
    197 H197       -4.1153  -23.3086  -43.6090 H         1 UNK         0.0600 
    198 H198       -2.7044  -24.3610  -43.6903 H         1 UNK         0.0600 
    199 H199       -4.3233  -25.0517  -43.6904 H         1 UNK         0.0600 
    200 H200       -1.3586  -25.0000  -45.9489 H         1 UNK         0.3000 
    201 H201       -1.8723  -27.7523  -46.5426 H         1 UNK         0.0600 
    202 H202        0.2594  -26.9869  -45.5543 H         1 UNK         0.0600 
    203 H203        0.6262  -26.0357  -46.9912 H         1 UNK         0.0600 
    204 H204        0.5679  -27.7922  -47.0854 H         1 UNK         0.0600 
    205 H205       -1.1386  -24.9165  -48.6261 H         1 UNK         0.3000 
    206 H206       -1.1016  -26.3453  -51.0951 H         1 UNK         0.0600 
    207 H207       -1.5673  -23.3746  -50.5016 H         1 UNK         0.0600 
    208 H208       -0.0129  -24.1420  -50.8110 H         1 UNK         0.0600 
    209 H209       -1.2153  -24.0496  -52.0885 H         1 UNK         0.0600 
    210 H210       -3.6827  -24.5934  -49.3899 H         1 UNK         0.3000 
    211 H211       -5.8517  -24.5250  -49.4375 H         1 UNK         0.0600 
    212 H212       -5.8733  -26.9350  -51.3284 H         1 UNK         0.0600 
    213 H213       -7.2406  -26.3119  -50.4188 H         1 UNK         0.0600 
    214 H214       -5.8697  -27.0065  -49.5665 H         1 UNK         0.0600 
    215 H215       -4.5354  -24.9124  -52.6977 H         1 UNK         0.3000 
    216 H216       -6.5122  -23.3133  -54.0786 H         1 UNK         0.0600 
    217 H217       -4.8822  -23.5443  -55.9735 H         1 UNK         0.0600 
    218 H218       -5.2116  -25.0908  -55.2119 H         1 UNK         0.0600 
    219 H219       -3.7015  -24.2501  -54.8721 H         1 UNK         0.0600 
    220 H220       -4.2306  -22.3294  -51.8683 H         1 UNK         0.3000 
    221 H221       -2.9715  -20.0727  -52.9618 H         1 UNK         0.0600 
    222 H222       -3.8041  -20.7623  -50.1037 H         1 UNK         0.0600 
    223 H223       -2.2396  -21.0449  -50.8789 H         1 UNK         0.0600 
    224 H224       -2.7579  -19.4089  -50.5157 H         1 UNK         0.0600 
    225 H225       -6.3064  -20.4027  -51.9555 H         1 UNK         0.3000 
    226 H226       -7.0206  -17.6438  -51.7576 H         1 UNK         0.0600 
    227 H227       -8.4606  -19.4887  -50.9257 H         1 UNK         0.0600 
    228 H228       -9.3335  -18.5331  -52.1130 H         1 UNK         0.0600 
    229 H229       -8.6723  -20.0997  -52.5668 H         1 UNK         0.0600 
    230 H230       -6.2877  -19.6755  -54.5202 H         1 UNK         0.3000 
    231 H231       -7.1458  -17.5702  -56.4572 H         1 UNK         0.0600 
    232 H232       -7.1638  -19.4103  -58.1073 H         1 UNK         0.0600 
    233 H233       -8.2158  -19.8259  -56.7653 H         1 UNK         0.0600 
    234 H234       -6.6178  -20.5601  -56.8919 H         1 UNK         0.0600 
    235 H235       -4.6322  -17.9659  -54.6413 H         1 UNK         0.3000 
    236 H236       -2.4852  -17.5716  -54.6373 H         1 UNK         0.0600 
    237 H237       -2.6946  -16.5964  -57.5290 H         1 UNK         0.0600 
    238 H238       -3.0624  -15.6226  -56.1049 H         1 UNK         0.0600 
    239 H239       -1.4305  -16.2104  -56.3724 H         1 UNK         0.0600 
    240 H240       -3.4478  -20.2221  -55.4164 H         1 UNK         0.3000 
    241 H241       -2.6372  -22.2139  -55.7028 H         1 UNK         0.0600 
    242 H242       -1.4943  -23.2541  -59.0406 H         1 UNK         0.3800 
    243 H243       -1.0794  -23.6822  -57.4082 H         1 UNK         0.3800 
    244 H244        0.1995  -21.1029  -55.9505 H         1 UNK         0.0800 
    245 H245       -0.2172  -22.7670  -55.6845 H         1 UNK         0.0800 
    246 H246        1.5252  -20.3537  -54.0023 H         1 UNK         0.0800 
    247 H247        0.1630  -19.2642  -54.0434 H         1 UNK         0.0800 
@<TRIPOS>BOND
     1    1    2 1    
     2    1  127 1    
     3    1  128 1    
     4    1  129 1    
     5    2    3 2    
     6    2    4 am   BACKBONE|DICT|INTERRES
     7    4    5 1    
     8    4  130 1    
     9    5    6 1    
    10    5   65 1    
    11    5  131 1    
    12    6    7 1    
    13    6  132 1    
    14    6  133 1    
    15    7    8 1    
    16    8    9 1    
    17    8  134 1    
    18    8  135 1    
    19    9   10 ar   
    20    9   14 ar   
    21   10   11 ar   
    22   10  136 1    
    23   11   12 ar   
    24   11  126 1    
    25   12   13 ar   
    26   12  137 1    
    27   13   14 ar   
    28   13   15 1    
    29   14  138 1    
    30   15   16 1    
    31   15  139 1    
    32   15  140 1    
    33   16   17 1    
    34   17   18 1    
    35   17  141 1    
    36   17  142 1    
    37   18   19 1    
    38   18   67 1    
    39   18  143 1    
    40   19   20 am   BACKBONE|DICT|INTERRES
    41   19  144 1    
    42   20   21 2    
    43   20   22 1    
    44   22   23 1    
    45   22   24 1    
    46   22  145 1    
    47   23  146 1    
    48   23  147 1    
    49   23  148 1    
    50   24   25 am   BACKBONE|DICT|INTERRES
    51   24  149 1    
    52   25   26 2    
    53   25   27 1    
    54   27   28 1    
    55   27   29 1    
    56   27  150 1    
    57   28  151 1    
    58   28  152 1    
    59   28  153 1    
    60   29   30 am   BACKBONE|DICT|INTERRES
    61   29  154 1    
    62   30   31 2    
    63   30   32 1    
    64   32   33 1    
    65   32   34 1    
    66   32  155 1    
    67   33  156 1    
    68   33  157 1    
    69   33  158 1    
    70   34   35 am   BACKBONE|DICT|INTERRES
    71   34  159 1    
    72   35   36 2    
    73   35   37 1    
    74   37   38 1    
    75   37   39 1    
    76   37  160 1    
    77   38  161 1    
    78   38  162 1    
    79   38  163 1    
    80   39   40 am   BACKBONE|DICT|INTERRES
    81   39  164 1    
    82   40   41 2    
    83   40   42 1    
    84   42   43 1    
    85   42   44 1    
    86   42  165 1    
    87   43  166 1    
    88   43  167 1    
    89   43  168 1    
    90   44   45 am   BACKBONE|DICT|INTERRES
    91   44  169 1    
    92   45   46 2    
    93   45   47 1    
    94   47   48 1    
    95   47   49 1    
    96   47  170 1    
    97   48  171 1    
    98   48  172 1    
    99   48  173 1    
   100   49   50 am   BACKBONE|DICT|INTERRES
   101   49  174 1    
   102   50   51 2    
   103   50   52 1    
   104   52   53 1    
   105   52   54 1    
   106   52  175 1    
   107   53  176 1    
   108   53  177 1    
   109   53  178 1    
   110   54   55 am   BACKBONE|DICT|INTERRES
   111   54  179 1    
   112   55   56 2    
   113   55   57 1    
   114   57   58 1    
   115   57   59 1    
   116   57  180 1    
   117   58  181 1    
   118   58  182 1    
   119   58  183 1    
   120   59   60 am   BACKBONE|DICT|INTERRES
   121   59  184 1    
   122   60   61 2    
   123   60   62 1    
   124   62   63 1    
   125   62   64 1    
   126   62  185 1    
   127   63  186 1    
   128   63  187 1    
   129   63  188 1    
   130   64   65 am   BACKBONE|DICT|INTERRES
   131   64  189 1    
   132   65   66 2    
   133   67   68 2    
   134   67   69 am   BACKBONE|DICT|INTERRES
   135   69   70 1    
   136   69  190 1    
   137   70   71 1    
   138   70   72 1    
   139   70  191 1    
   140   71  192 1    
   141   71  193 1    
   142   71  194 1    
   143   72   73 2    
   144   72   74 am   BACKBONE|DICT|INTERRES
   145   74   75 1    
   146   74  195 1    
   147   75   76 1    
   148   75   77 1    
   149   75  196 1    
   150   76  197 1    
   151   76  198 1    
   152   76  199 1    
   153   77   78 2    
   154   77   79 am   BACKBONE|DICT|INTERRES
   155   79   80 1    
   156   79  200 1    
   157   80   81 1    
   158   80   82 1    
   159   80  201 1    
   160   81  202 1    
   161   81  203 1    
   162   81  204 1    
   163   82   83 2    
   164   82   84 am   BACKBONE|DICT|INTERRES
   165   84   85 1    
   166   84  205 1    
   167   85   86 1    
   168   85   87 1    
   169   85  206 1    
   170   86  207 1    
   171   86  208 1    
   172   86  209 1    
   173   87   88 2    
   174   87   89 am   BACKBONE|DICT|INTERRES
   175   89   90 1    
   176   89  210 1    
   177   90   91 1    
   178   90   92 1    
   179   90  211 1    
   180   91  212 1    
   181   91  213 1    
   182   91  214 1    
   183   92   93 2    
   184   92   94 am   BACKBONE|DICT|INTERRES
   185   94   95 1    
   186   94  215 1    
   187   95   96 1    
   188   95   97 1    
   189   95  216 1    
   190   96  217 1    
   191   96  218 1    
   192   96  219 1    
   193   97   98 2    
   194   97   99 am   BACKBONE|DICT|INTERRES
   195   99  100 1    
   196   99  220 1    
   197  100  101 1    
   198  100  102 1    
   199  100  221 1    
   200  101  222 1    
   201  101  223 1    
   202  101  224 1    
   203  102  103 2    
   204  102  104 am   BACKBONE|DICT|INTERRES
   205  104  105 1    
   206  104  225 1    
   207  105  106 1    
   208  105  107 1    
   209  105  226 1    
   210  106  227 1    
   211  106  228 1    
   212  106  229 1    
   213  107  108 2    
   214  107  109 am   BACKBONE|DICT|INTERRES
   215  109  110 1    
   216  109  230 1    
   217  110  111 1    
   218  110  112 1    
   219  110  231 1    
   220  111  232 1    
   221  111  233 1    
   222  111  234 1    
   223  112  113 2    
   224  112  114 am   BACKBONE|DICT|INTERRES
   225  114  115 1    
   226  114  235 1    
   227  115  116 1    
   228  115  117 1    
   229  115  236 1    
   230  116  237 1    
   231  116  238 1    
   232  116  239 1    
   233  117  118 2    
   234  117  119 am   BACKBONE|DICT|INTERRES
   235  119  120 1    
   236  119  240 1    
   237  120  121 1    
   238  120  124 1    
   239  120  241 1    
   240  121  122 am   BACKBONE|DICT|INTERRES
   241  121  123 2    
   242  122  242 1    
   243  122  243 1    
   244  124  125 1    
   245  124  244 1    
   246  124  245 1    
   247  125  126 1    
   248  126  246 1    
   249  126  247 1    
@<TRIPOS>SUBSTRUCTURE
     1 UNK         1 GROUP             0       ****    0 ROOT    
