@<TRIPOS>MOLECULE
3R540
247   249    1
SMALL
USER_CHARGES


@<TRIPOS>ATOM
      1 CA          2.9453  -16.5931  -51.5414 C.3       0 UNK        -0.1800 
      2 C           3.1658  -16.2629  -50.0722 C.2       0 UNK         0.5000 
      3 O           4.3081  -16.2154  -49.6164 O.2       0 UNK        -0.5000 
      4 N           2.0758  -16.0330  -49.3317 N.am      1 UNK        -0.5000 
      5 CA          2.0797  -15.7254  -47.8973 C.3       1 UNK         0.1400 
      6 C6          0.7038  -16.0255  -47.2573 C.3       23 UNK        -0.0398 
      7 S7         -0.6882  -15.1019  -48.0056 S.3       23 UNK        -0.2404 
      8 C8         -1.8529  -16.4299  -48.4450 C.3       23 UNK        -0.0205 
      9 C9         -1.3155  -17.3581  -49.5229 C.ar      23 UNK        -0.0193 
     10 C10        -1.1757  -16.8980  -50.8343 C.ar      23 UNK        -0.1150 
     11 C11        -0.7686  -17.7678  -51.8496 C.ar      23 UNK        -0.0193 
     12 C12        -0.4536  -19.0928  -51.5372 C.ar      23 UNK        -0.1150 
     13 C13        -0.5862  -19.5646  -50.2290 C.ar      23 UNK        -0.0193 
     14 C14        -1.0223  -18.6932  -49.2262 C.ar      23 UNK        -0.1150 
     15 C15        -0.3082  -21.0286  -49.9226 C.3       23 UNK        -0.0205 
     16 S16         1.4111  -21.2933  -49.3862 S.3       23 UNK        -0.2404 
     17 C17         1.2664  -21.0743  -47.5796 C.3       23 UNK        -0.0398 
     18 CA          1.2806  -22.4072  -46.7913 C.3       11 UNK         0.1400 
     19 N           1.4305  -22.1828  -45.3537 N.am      11 UNK        -0.5000 
     20 C           1.6384  -23.1391  -44.4387 C.2       10 UNK         0.5000 
     21 O           1.7499  -24.3343  -44.7101 O.2       10 UNK        -0.5000 
     22 CA          1.6918  -22.6881  -42.9681 C.3       10 UNK         0.1400 
     23 CB          3.0471  -22.0426  -42.6433 C.3       10 UNK        -0.1800 
     24 N           0.6102  -21.7664  -42.6163 N.am      10 UNK        -0.5000 
     25 C          -0.6937  -22.0792  -42.6546 C.2       9 UNK         0.5000 
     26 O          -1.1255  -23.1842  -42.9829 O.2       9 UNK        -0.5000 
     27 CA         -1.6867  -20.9542  -42.3136 C.3       9 UNK         0.1400 
     28 CB         -1.7310  -20.6977  -40.7997 C.3       9 UNK        -0.1800 
     29 N          -1.3846  -19.7070  -43.0136 N.am      9 UNK        -0.5000 
     30 C          -1.3691  -19.5681  -44.3466 C.2       8 UNK         0.5000 
     31 O          -1.6344  -20.4692  -45.1415 O.2       8 UNK        -0.5000 
     32 CA         -0.9139  -18.2067  -44.8879 C.3       8 UNK         0.1400 
     33 CB         -2.0182  -17.1499  -44.7365 C.3       8 UNK        -0.1800 
     34 N           0.3183  -17.7398  -44.2537 N.am      8 UNK        -0.5000 
     35 C           1.4932  -18.3849  -44.2934 C.2       7 UNK         0.5000 
     36 O           1.6811  -19.4251  -44.9186 O.2       7 UNK        -0.5000 
     37 CA          2.6431  -17.7958  -43.4635 C.3       7 UNK         0.1400 
     38 CB          3.3521  -16.6770  -44.2364 C.3       7 UNK        -0.1800 
     39 N           2.1774  -17.2935  -42.1731 N.am      7 UNK        -0.5000 
     40 C           1.7343  -18.0745  -41.1775 C.2       6 UNK         0.5000 
     41 O           1.7073  -19.3048  -41.2284 O.2       6 UNK        -0.5000 
     42 CA          1.1845  -17.3485  -39.9374 C.3       6 UNK         0.1400 
     43 CB          2.3279  -16.9065  -39.0120 C.3       6 UNK        -0.1800 
     44 N           0.3674  -16.1870  -40.2944 N.am      6 UNK        -0.5000 
     45 C          -0.8149  -16.2664  -40.9204 C.2       5 UNK         0.5000 
     46 O          -1.3502  -17.3294  -41.2364 O.2       5 UNK        -0.5000 
     47 CA         -1.4957  -14.9346  -41.2852 C.3       5 UNK         0.1400 
     48 CB         -2.3193  -14.4087  -40.1003 C.3       5 UNK        -0.1800 
     49 N          -0.5669  -13.8911  -41.7327 N.am      5 UNK        -0.5000 
     50 C           0.1990  -13.9708  -42.8287 C.2       4 UNK         0.5000 
     51 O           0.2860  -14.9799  -43.5303 O.2       4 UNK        -0.5000 
     52 CA          1.0058  -12.7182  -43.2072 C.3       4 UNK         0.1400 
     53 CB          2.5136  -12.9544  -43.0366 C.3       4 UNK        -0.1800 
     54 N           0.7207  -12.3483  -44.5928 N.am      4 UNK        -0.5000 
     55 C          -0.3667  -11.6605  -44.9718 C.2       3 UNK         0.5000 
     56 O          -1.1822  -11.2069  -44.1665 O.2       3 UNK        -0.5000 
     57 CA         -0.6216  -11.4606  -46.4833 C.3       3 UNK         0.1400 
     58 CB         -1.1315  -10.0414  -46.8107 C.3       3 UNK        -0.1800 
     59 N           0.4980  -11.8325  -47.3548 N.am      3 UNK        -0.5000 
     60 C           1.7026  -11.2502  -47.4644 C.2       2 UNK         0.5000 
     61 O           2.0415  -10.2466  -46.8359 O.2       2 UNK        -0.5000 
     62 CA          2.6945  -11.9311  -48.4387 C.3       2 UNK         0.1400 
     63 CB          4.1692  -11.6275  -48.1010 C.3       2 UNK        -0.1800 
     64 N           2.4758  -13.3805  -48.5618 N.am      2 UNK        -0.5000 
     65 C           2.5239  -14.2836  -47.5687 C.2       1 UNK         0.5000 
     66 O           2.8342  -14.0033  -46.4111 O.2       1 UNK        -0.5000 
     67 C           0.0500  -23.2829  -47.0992 C.2       11 UNK         0.5000 
     68 O           0.1825  -24.2648  -47.8277 O.2       11 UNK        -0.5000 
     69 N          -1.1085  -22.9456  -46.5132 N.am      12 UNK        -0.5000 
     70 CA         -2.3578  -23.6876  -46.6866 C.3       12 UNK         0.1400 
     71 CB         -3.5166  -22.9140  -46.0421 C.3       12 UNK        -0.1800 
     72 C          -2.2919  -25.1257  -46.1422 C.2       12 UNK         0.5000 
     73 O          -2.8356  -26.0336  -46.7723 O.2       12 UNK        -0.5000 
     74 N          -1.6085  -25.3114  -45.0034 N.am      13 UNK        -0.5000 
     75 CA         -1.3421  -26.6202  -44.4068 C.3       13 UNK         0.1400 
     76 CB         -0.7833  -26.4370  -42.9876 C.3       13 UNK        -0.1800 
     77 C          -0.3902  -27.4797  -45.2593 C.2       13 UNK         0.5000 
     78 O          -0.5947  -28.6906  -45.3536 O.2       13 UNK        -0.5000 
     79 N           0.6229  -26.8442  -45.8649 N.am      14 UNK        -0.5000 
     80 CA          1.5808  -27.4820  -46.7649 C.3       14 UNK         0.1400 
     81 CB          2.7953  -26.5623  -46.9735 C.3       14 UNK        -0.1800 
     82 C           0.9410  -27.8810  -48.1065 C.2       14 UNK         0.5000 
     83 O           0.9778  -29.0596  -48.4638 O.2       14 UNK        -0.5000 
     84 N           0.3613  -26.9031  -48.8139 N.am      15 UNK        -0.5000 
     85 CA         -0.2720  -27.0616  -50.1196 C.3       15 UNK         0.1400 
     86 CB          0.7621  -27.4627  -51.1957 C.3       15 UNK        -0.1800 
     87 C          -0.9825  -25.7540  -50.5001 C.2       15 UNK         0.5000 
     88 O          -0.3521  -24.8549  -51.0611 O.2       15 UNK        -0.5000 
     89 N          -2.2851  -25.6692  -50.2019 N.am      16 UNK        -0.5000 
     90 CA         -3.1683  -24.6124  -50.7020 C.3       16 UNK         0.1400 
     91 CB         -4.5197  -24.6998  -49.9744 C.3       16 UNK        -0.1800 
     92 C          -3.3751  -24.7341  -52.2263 C.2       16 UNK         0.5000 
     93 O          -3.3546  -25.8474  -52.7601 O.2       16 UNK        -0.5000 
     94 N          -3.5917  -23.5951  -52.8886 N.am      17 UNK        -0.5000 
     95 CA         -3.8786  -23.4891  -54.3157 C.3       17 UNK         0.1400 
     96 CB         -2.8520  -22.5317  -54.9550 C.3       17 UNK        -0.1800 
     97 C          -5.3452  -23.0495  -54.4955 C.2       17 UNK         0.5000 
     98 O          -6.2251  -23.5707  -53.8056 O.2       17 UNK        -0.5000 
     99 N          -5.5952  -22.1105  -55.4121 N.am      18 UNK        -0.5000 
    100 CA        -6.8986  -21.5218  -55.6925 C.3       18 UNK         0.1400 
    101 CB        -7.6396  -22.3782  -56.7352 C.3       18 UNK        -0.1800 
    102 C         -6.6957  -20.0842  -56.1911 C.2       18 UNK         0.5000 
    103 O         -5.5920  -19.7429  -56.6270 O.2       18 UNK        -0.5000 
    104 N         -7.7789  -19.2965  -56.1298 N.am      19 UNK        -0.5000 
    105 CA        -7.8959  -17.8671  -56.4491 C.3       19 UNK         0.1400 
    106 CB        -7.4305  -17.5620  -57.8875 C.3       19 UNK        -0.1800 
    107 C         -7.1946  -16.9548  -55.4229 C.2       19 UNK         0.5000 
    108 O         -6.2730  -17.3811  -54.7242 O.2       19 UNK        -0.5000 
    109 N         -7.6653  -15.7011  -55.3439 N.am      20 UNK        -0.5000 
    110 CA        -7.2147  -14.6541  -54.4191 C.3       20 UNK         0.1400 
    111 CB        -5.8264  -14.1275  -54.8522 C.3       20 UNK        -0.1800 
    112 C         -7.2865  -15.1262  -52.9482 C.2       20 UNK         0.5000 
    113 O         -8.3395  -15.6053  -52.5221 O.2       20 UNK        -0.5000 
    114 N         -6.1726  -15.0151  -52.2164 N.am      21 UNK        -0.5000 
    115 CA        -5.9915  -15.5598  -50.8700 C.3       21 UNK         0.1400 
    116 CB        -5.1889  -14.5400  -50.0431 C.3       21 UNK        -0.1800 
    117 C         -5.2751  -16.9275  -50.8861 C.2       21 UNK         0.5000 
    118 O         -5.0258  -17.4817  -49.8151 O.2       21 UNK        -0.5000 
    119 N         -4.9214  -17.4316  -52.0764 N.am      22 UNK        -0.5000 
    120 CA        -4.0674  -18.6141  -52.2658 C.3       22 UNK         0.1400 
    121 C         -4.7934  -19.9764  -52.0948 C.2       22 UNK         0.5000 
    122 N         -6.1191  -20.0307  -52.1283 N.am      22 UNK        -0.7600 
    123 O         -4.1404  -21.0000  -51.9120 O.2       22 UNK        -0.5000 
    124 C124       -3.2883  -18.5646  -53.6106 C.3       23 UNK        -0.0398 
    125 S125       -2.4337  -16.9727  -53.9160 S.3       23 UNK        -0.2404 
    126 C126       -0.7495  -17.2996  -53.2956 C.3       23 UNK        -0.0205 
    127 H127        1.9070  -16.4436  -51.8364 H         1 UNK         0.0600 
    128 H128        3.2082  -17.6330  -51.7354 H         1 UNK         0.0600 
    129 H129        3.5699  -15.9577  -52.1692 H         1 UNK         0.0600 
    130 H130        1.1603  -16.1010  -49.7552 H         1 UNK         0.3000 
    131 H131        2.8079  -16.3849  -47.4204 H         1 UNK         0.0600 
    132 H132        0.5166  -17.0947  -47.3373 H         1 UNK         0.0800 
    133 H133        0.7202  -15.8058  -46.1888 H         1 UNK         0.0800 
    134 H134       -2.1235  -16.9909  -47.5518 H         1 UNK         0.0800 
    135 H135       -2.7775  -15.9765  -48.8030 H         1 UNK         0.0800 
    136 H136       -1.4376  -15.8771  -51.0755 H         1 UNK         0.1150 
    137 H137       -0.1445  -19.7711  -52.3201 H         1 UNK         0.1150 
    138 H138       -1.1603  -19.0609  -48.2204 H         1 UNK         0.1150 
    139 H139       -1.0069  -21.3974  -49.1705 H         1 UNK         0.0800 
    140 H140       -0.4884  -21.6337  -50.8129 H         1 UNK         0.0800 
    141 H141        2.1208  -20.4676  -47.2779 H         1 UNK         0.0800 
    142 H142        0.3840  -20.4855  -47.3296 H         1 UNK         0.0800 
    143 H143        2.1619  -22.9682  -47.1097 H         1 UNK         0.0600 
    144 H144        1.3844  -21.2126  -45.0483 H         1 UNK         0.3000 
    145 H145        1.5832  -23.5787  -42.3457 H         1 UNK         0.0600 
    146 H146        3.1228  -21.7987  -41.5835 H         1 UNK         0.0600 
    147 H147        3.8692  -22.7186  -42.8816 H         1 UNK         0.0600 
    148 H148        3.2018  -21.1235  -43.2090 H         1 UNK         0.0600 
    149 H149        0.8845  -20.8376  -42.3131 H         1 UNK         0.3000 
    150 H150       -2.6788  -21.2805  -42.6324 H         1 UNK         0.0600 
    151 H151       -1.9641  -21.6132  -40.2545 H         1 UNK         0.0600 
    152 H152       -2.4972  -19.9642  -40.5479 H         1 UNK         0.0600 
    153 H153       -0.7775  -20.3241  -40.4250 H         1 UNK         0.0600 
    154 H154       -1.1766  -18.8984  -42.4349 H         1 UNK         0.3000 
    155 H155       -0.7131  -18.3400  -45.9501 H         1 UNK         0.0600 
    156 H156       -1.7117  -16.1920  -45.1568 H         1 UNK         0.0600 
    157 H157       -2.2814  -16.9852  -43.6929 H         1 UNK         0.0600 
    158 H158       -2.9268  -17.4593  -45.2542 H         1 UNK         0.0600 
    159 H159        0.2688  -16.8487  -43.7663 H         1 UNK         0.3000 
    160 H160        3.3677  -18.5911  -43.2768 H         1 UNK         0.0600 
    161 H161        2.6600  -15.8816  -44.5081 H         1 UNK         0.0600 
    162 H162        3.7884  -17.0590  -45.1599 H         1 UNK         0.0600 
    163 H163        4.1602  -16.2375  -43.6517 H         1 UNK         0.0600 
    164 H164        2.1152  -16.2920  -42.0695 H         1 UNK         0.3000 
    165 H165        0.5552  -18.0538  -39.3903 H         1 UNK         0.0600 
    166 H166        2.9804  -16.1774  -39.4939 H         1 UNK         0.0600 
    167 H167        1.9423  -16.4586  -38.0960 H         1 UNK         0.0600 
    168 H168        2.9449  -17.7580  -38.7214 H         1 UNK         0.0600 
    169 H169        0.7368  -15.2749  -40.0702 H         1 UNK         0.3000 
    170 H170       -2.1832  -15.1351  -42.1092 H         1 UNK         0.0600 
    171 H171       -3.0346  -15.1583  -39.7586 H         1 UNK         0.0600 
    172 H172       -1.6854  -14.1488  -39.2516 H         1 UNK         0.0600 
    173 H173       -2.8892  -13.5220  -40.3785 H         1 UNK         0.0600 
    174 H174       -0.5823  -13.0264  -41.2113 H         1 UNK         0.3000 
    175 H175        0.7220  -11.8950  -42.5481 H         1 UNK         0.0600 
    176 H176        3.0780  -12.0472  -43.2527 H         1 UNK         0.0600 
    177 H177        2.7514  -13.2508  -42.0144 H         1 UNK         0.0600 
    178 H178        2.8805  -13.7360  -43.7001 H         1 UNK         0.0600 
    179 H179        1.3331  -12.7387  -45.2984 H         1 UNK         0.3000 
    180 H180       -1.4245  -12.1555  -46.7336 H         1 UNK         0.0600 
    181 H181       -1.3209   -9.9262  -47.8779 H         1 UNK         0.0600 
    182 H182       -2.0687   -9.8326  -46.2936 H         1 UNK         0.0600 
    183 H183       -0.4181   -9.2737  -46.5105 H         1 UNK         0.0600 
    184 H184        0.3420  -12.6656  -47.9059 H         1 UNK         0.3000 
    185 H185        2.4886  -11.5066  -49.4222 H         1 UNK         0.0600 
    186 H186        4.8433  -12.1223  -48.8001 H         1 UNK         0.0600 
    187 H187        4.3717  -10.5575  -48.1592 H         1 UNK         0.0600 
    188 H188        4.4310  -11.9543  -47.0943 H         1 UNK         0.0600 
    189 H189        2.1990  -13.7092  -49.4761 H         1 UNK         0.3000 
    190 H190       -1.1540  -22.1177  -45.9233 H         1 UNK         0.3000 
    191 H191       -2.5468  -23.7504  -47.7592 H         1 UNK         0.0600 
    192 H192       -4.4610  -23.4444  -46.1705 H         1 UNK         0.0600 
    193 H193       -3.6326  -21.9295  -46.4956 H         1 UNK         0.0600 
    194 H194       -3.3586  -22.7738  -44.9719 H         1 UNK         0.0600 
    195 H195       -1.2385  -24.5038  -44.5118 H         1 UNK         0.3000 
    196 H196       -2.2915  -27.1543  -44.3294 H         1 UNK         0.0600 
    197 H197       -0.5814  -27.4008  -42.5187 H         1 UNK         0.0600 
    198 H198       -1.4926  -25.9081  -42.3508 H         1 UNK         0.0600 
    199 H199        0.1488  -25.8709  -42.9917 H         1 UNK         0.0600 
    200 H200        0.7513  -25.8527  -45.6937 H         1 UNK         0.3000 
    201 H201        1.9387  -28.3948  -46.2839 H         1 UNK         0.0600 
    202 H202        3.3042  -26.3655  -46.0297 H         1 UNK         0.0600 
    203 H203        2.5112  -25.6017  -47.4033 H         1 UNK         0.0600 
    204 H204        3.5216  -27.0212  -47.6453 H         1 UNK         0.0600 
    205 H205        0.3443  -25.9549  -48.4350 H         1 UNK         0.3000 
    206 H206       -1.0216  -27.8524  -50.0495 H         1 UNK         0.0600 
    207 H207        1.1543  -28.4652  -51.0284 H         1 UNK         0.0600 
    208 H208        0.3106  -27.4613  -52.1887 H         1 UNK         0.0600 
    209 H209        1.6065  -26.7727  -51.2179 H         1 UNK         0.0600 
    210 H210       -2.7318  -26.4411  -49.7287 H         1 UNK         0.3000 
    211 H211       -2.7111  -23.6451  -50.4808 H         1 UNK         0.0600 
    212 H212       -5.0306  -25.6392  -50.1892 H         1 UNK         0.0600 
    213 H213       -5.1803  -23.8893  -50.2856 H         1 UNK         0.0600 
    214 H214       -4.4023  -24.6253  -48.8940 H         1 UNK         0.0600 
    215 H215       -3.6868  -22.7220  -52.3716 H         1 UNK         0.3000 
    216 H216       -3.7802  -24.4602  -54.8042 H         1 UNK         0.0600 
    217 H217       -2.9617  -22.4947  -56.0394 H         1 UNK         0.0600 
    218 H218       -1.8331  -22.8616  -54.7509 H         1 UNK         0.0600 
    219 H219       -2.9524  -21.5170  -54.5705 H         1 UNK         0.0600 
    220 H220       -4.8306  -21.6687  -55.9073 H         1 UNK         0.3000 
    221 H221       -7.4834  -21.4787  -54.7709 H         1 UNK         0.0600 
    222 H222       -7.0820  -22.4406  -57.6705 H         1 UNK         0.0600 
    223 H223       -7.7981  -23.3937  -56.3718 H         1 UNK         0.0600 
    224 H224       -8.6205  -21.9604  -56.9640 H         1 UNK         0.0600 
    225 H225       -8.6198  -19.7017  -55.7432 H         1 UNK         0.3000 
    226 H226       -8.9633  -17.6476  -56.3943 H         1 UNK         0.0600 
    227 H227       -7.9042  -18.2298  -58.6070 H         1 UNK         0.0600 
    228 H228       -7.6903  -16.5420  -58.1723 H         1 UNK         0.0600 
    229 H229       -6.3502  -17.6592  -57.9977 H         1 UNK         0.0600 
    230 H230       -8.4456  -15.4465  -55.9330 H         1 UNK         0.3000 
    231 H231       -7.9246  -13.8307  -54.5089 H         1 UNK         0.0600 
    232 H232       -5.5167  -13.2763  -54.2446 H         1 UNK         0.0600 
    233 H233       -5.8484  -13.7852  -55.8869 H         1 UNK         0.0600 
    234 H234       -5.0529  -14.8935  -54.7789 H         1 UNK         0.0600 
    235 H235       -5.3501  -14.6221  -52.6513 H         1 UNK         0.3000 
    236 H236       -6.9594  -15.7037  -50.3858 H         1 UNK         0.0600 
    237 H237       -4.1864  -14.3932  -50.4476 H         1 UNK         0.0600 
    238 H238       -5.6874  -13.5708  -50.0207 H         1 UNK         0.0600 
    239 H239       -5.0812  -14.8700  -49.0092 H         1 UNK         0.0600 
    240 H240       -5.2308  -16.9797  -52.9286 H         1 UNK         0.3000 
    241 H241       -3.3295  -18.5989  -51.4648 H         1 UNK         0.0600 
    242 H242       -6.6551  -19.1902  -52.2746 H         1 UNK         0.3800 
    243 H243       -6.5837  -20.9145  -51.9977 H         1 UNK         0.3800 
    244 H244       -2.5536  -19.3694  -53.6534 H         1 UNK         0.0800 
    245 H245       -3.9701  -18.7367  -54.4450 H         1 UNK         0.0800 
    246 H246       -0.2667  -18.0368  -53.9390 H         1 UNK         0.0800 
    247 H247       -0.1582  -16.3865  -53.3736 H         1 UNK         0.0800 
@<TRIPOS>BOND
     1    1    2 1    
     2    1  127 1    
     3    1  128 1    
     4    1  129 1    
     5    2    3 2    
     6    2    4 am   BACKBONE|DICT|INTERRES
     7    4    5 1    
     8    4  130 1    
     9    5    6 1    
    10    5   65 1    
    11    5  131 1    
    12    6    7 1    
    13    6  132 1    
    14    6  133 1    
    15    7    8 1    
    16    8    9 1    
    17    8  134 1    
    18    8  135 1    
    19    9   10 ar   
    20    9   14 ar   
    21   10   11 ar   
    22   10  136 1    
    23   11   12 ar   
    24   11  126 1    
    25   12   13 ar   
    26   12  137 1    
    27   13   14 ar   
    28   13   15 1    
    29   14  138 1    
    30   15   16 1    
    31   15  139 1    
    32   15  140 1    
    33   16   17 1    
    34   17   18 1    
    35   17  141 1    
    36   17  142 1    
    37   18   19 1    
    38   18   67 1    
    39   18  143 1    
    40   19   20 am   BACKBONE|DICT|INTERRES
    41   19  144 1    
    42   20   21 2    
    43   20   22 1    
    44   22   23 1    
    45   22   24 1    
    46   22  145 1    
    47   23  146 1    
    48   23  147 1    
    49   23  148 1    
    50   24   25 am   BACKBONE|DICT|INTERRES
    51   24  149 1    
    52   25   26 2    
    53   25   27 1    
    54   27   28 1    
    55   27   29 1    
    56   27  150 1    
    57   28  151 1    
    58   28  152 1    
    59   28  153 1    
    60   29   30 am   BACKBONE|DICT|INTERRES
    61   29  154 1    
    62   30   31 2    
    63   30   32 1    
    64   32   33 1    
    65   32   34 1    
    66   32  155 1    
    67   33  156 1    
    68   33  157 1    
    69   33  158 1    
    70   34   35 am   BACKBONE|DICT|INTERRES
    71   34  159 1    
    72   35   36 2    
    73   35   37 1    
    74   37   38 1    
    75   37   39 1    
    76   37  160 1    
    77   38  161 1    
    78   38  162 1    
    79   38  163 1    
    80   39   40 am   BACKBONE|DICT|INTERRES
    81   39  164 1    
    82   40   41 2    
    83   40   42 1    
    84   42   43 1    
    85   42   44 1    
    86   42  165 1    
    87   43  166 1    
    88   43  167 1    
    89   43  168 1    
    90   44   45 am   BACKBONE|DICT|INTERRES
    91   44  169 1    
    92   45   46 2    
    93   45   47 1    
    94   47   48 1    
    95   47   49 1    
    96   47  170 1    
    97   48  171 1    
    98   48  172 1    
    99   48  173 1    
   100   49   50 am   BACKBONE|DICT|INTERRES
   101   49  174 1    
   102   50   51 2    
   103   50   52 1    
   104   52   53 1    
   105   52   54 1    
   106   52  175 1    
   107   53  176 1    
   108   53  177 1    
   109   53  178 1    
   110   54   55 am   BACKBONE|DICT|INTERRES
   111   54  179 1    
   112   55   56 2    
   113   55   57 1    
   114   57   58 1    
   115   57   59 1    
   116   57  180 1    
   117   58  181 1    
   118   58  182 1    
   119   58  183 1    
   120   59   60 am   BACKBONE|DICT|INTERRES
   121   59  184 1    
   122   60   61 2    
   123   60   62 1    
   124   62   63 1    
   125   62   64 1    
   126   62  185 1    
   127   63  186 1    
   128   63  187 1    
   129   63  188 1    
   130   64   65 am   BACKBONE|DICT|INTERRES
   131   64  189 1    
   132   65   66 2    
   133   67   68 2    
   134   67   69 am   BACKBONE|DICT|INTERRES
   135   69   70 1    
   136   69  190 1    
   137   70   71 1    
   138   70   72 1    
   139   70  191 1    
   140   71  192 1    
   141   71  193 1    
   142   71  194 1    
   143   72   73 2    
   144   72   74 am   BACKBONE|DICT|INTERRES
   145   74   75 1    
   146   74  195 1    
   147   75   76 1    
   148   75   77 1    
   149   75  196 1    
   150   76  197 1    
   151   76  198 1    
   152   76  199 1    
   153   77   78 2    
   154   77   79 am   BACKBONE|DICT|INTERRES
   155   79   80 1    
   156   79  200 1    
   157   80   81 1    
   158   80   82 1    
   159   80  201 1    
   160   81  202 1    
   161   81  203 1    
   162   81  204 1    
   163   82   83 2    
   164   82   84 am   BACKBONE|DICT|INTERRES
   165   84   85 1    
   166   84  205 1    
   167   85   86 1    
   168   85   87 1    
   169   85  206 1    
   170   86  207 1    
   171   86  208 1    
   172   86  209 1    
   173   87   88 2    
   174   87   89 am   BACKBONE|DICT|INTERRES
   175   89   90 1    
   176   89  210 1    
   177   90   91 1    
   178   90   92 1    
   179   90  211 1    
   180   91  212 1    
   181   91  213 1    
   182   91  214 1    
   183   92   93 2    
   184   92   94 am   BACKBONE|DICT|INTERRES
   185   94   95 1    
   186   94  215 1    
   187   95   96 1    
   188   95   97 1    
   189   95  216 1    
   190   96  217 1    
   191   96  218 1    
   192   96  219 1    
   193   97   98 2    
   194   97   99 am   BACKBONE|DICT|INTERRES
   195   99  100 1    
   196   99  220 1    
   197  100  101 1    
   198  100  102 1    
   199  100  221 1    
   200  101  222 1    
   201  101  223 1    
   202  101  224 1    
   203  102  103 2    
   204  102  104 am   BACKBONE|DICT|INTERRES
   205  104  105 1    
   206  104  225 1    
   207  105  106 1    
   208  105  107 1    
   209  105  226 1    
   210  106  227 1    
   211  106  228 1    
   212  106  229 1    
   213  107  108 2    
   214  107  109 am   BACKBONE|DICT|INTERRES
   215  109  110 1    
   216  109  230 1    
   217  110  111 1    
   218  110  112 1    
   219  110  231 1    
   220  111  232 1    
   221  111  233 1    
   222  111  234 1    
   223  112  113 2    
   224  112  114 am   BACKBONE|DICT|INTERRES
   225  114  115 1    
   226  114  235 1    
   227  115  116 1    
   228  115  117 1    
   229  115  236 1    
   230  116  237 1    
   231  116  238 1    
   232  116  239 1    
   233  117  118 2    
   234  117  119 am   BACKBONE|DICT|INTERRES
   235  119  120 1    
   236  119  240 1    
   237  120  121 1    
   238  120  124 1    
   239  120  241 1    
   240  121  122 am   BACKBONE|DICT|INTERRES
   241  121  123 2    
   242  122  242 1    
   243  122  243 1    
   244  124  125 1    
   245  124  244 1    
   246  124  245 1    
   247  125  126 1    
   248  126  246 1    
   249  126  247 1    
@<TRIPOS>SUBSTRUCTURE
     1 UNK         1 GROUP             0       ****    0 ROOT    
