@<TRIPOS>MOLECULE
3R540
247   249    1
SMALL
USER_CHARGES


@<TRIPOS>ATOM
      1 CA          7.7667  -11.2704  -46.4686 C.3       0 UNK        -0.1800 
      2 C           6.5275  -12.0757  -46.1036 C.2       0 UNK         0.5000 
      3 O           6.0819  -12.0222  -44.9583 O.2       0 UNK        -0.5000 
      4 N           5.9802  -12.8225  -47.0721 N.am      1 UNK        -0.5000 
      5 CA          4.7662  -13.6371  -46.9423 C.3       1 UNK         0.1400 
      6 C6          4.6077  -14.5674  -48.1746 C.3       23 UNK        -0.0398 
      7 S7          3.2930  -15.8246  -48.0227 S.3       23 UNK        -0.2404 
      8 C8          2.2464  -15.4013  -49.4525 C.3       23 UNK        -0.0205 
      9 C9          0.9550  -16.2055  -49.4639 C.ar      23 UNK        -0.0193 
     10 C10        -0.1942  -15.6935  -48.8562 C.ar      23 UNK        -0.1150 
     11 C11        -1.3841  -16.4276  -48.8417 C.ar      23 UNK        -0.0193 
     12 C12        -1.4144  -17.6891  -49.4423 C.ar      23 UNK        -0.1150 
     13 C13        -0.2811  -18.2034  -50.0770 C.ar      23 UNK        -0.0193 
     14 C14         0.9011  -17.4548  -50.0883 C.ar      23 UNK        -0.1150 
     15 C15        -0.3492  -19.5716  -50.7424 C.3       23 UNK        -0.0205 
     16 S16         0.9328  -20.7384  -50.1734 S.3       23 UNK        -0.2404 
     17 C17         0.8499  -20.5811  -48.3564 C.3       23 UNK        -0.0398 
     18 CA          0.0524  -21.6980  -47.6518 C.3       11 UNK         0.1400 
     19 N           0.3617  -21.7402  -46.2234 N.am      11 UNK        -0.5000 
     20 C          -0.0123  -22.7118  -45.3822 C.2       10 UNK         0.5000 
     21 O          -0.6489  -23.7081  -45.7278 O.2       10 UNK        -0.5000 
     22 CA          0.3551  -22.5100  -43.9004 C.3       10 UNK         0.1400 
     23 CB          1.8306  -22.8568  -43.6517 C.3       10 UNK        -0.1800 
     24 N           0.0903  -21.1460  -43.4376 N.am      10 UNK        -0.5000 
     25 C          -1.1313  -20.5988  -43.3605 C.2       9 UNK         0.5000 
     26 O          -2.1678  -21.2028  -43.6375 O.2       9 UNK        -0.5000 
     27 CA         -1.2052  -19.1148  -42.9536 C.3       9 UNK         0.1400 
     28 CB         -1.0076  -18.9440  -41.4401 C.3       9 UNK        -0.1800 
     29 N          -0.2402  -18.2822  -43.6722 N.am      9 UNK        -0.5000 
     30 C          -0.2262  -18.1139  -45.0018 C.2       8 UNK         0.5000 
     31 O          -1.0429  -18.6191  -45.7659 O.2       8 UNK        -0.5000 
     32 CA          0.9204  -17.2788  -45.5841 C.3       8 UNK         0.1400 
     33 CB          0.6097  -15.7799  -45.4483 C.3       8 UNK        -0.1800 
     34 N           2.2055  -17.6025  -44.9619 N.am      8 UNK        -0.5000 
     35 C           2.8151  -18.7938  -45.0660 C.2       7 UNK         0.5000 
     36 O           2.3636  -19.7412  -45.7056 O.2       7 UNK        -0.5000 
     37 CA          4.1225  -18.9808  -44.2774 C.3       7 UNK         0.1400 
     38 CB          5.2932  -18.3013  -45.0049 C.3       7 UNK        -0.1800 
     39 N           4.0277  -18.4601  -42.9155 N.am      7 UNK        -0.5000 
     40 C           3.1785  -18.9028  -41.9753 C.2       6 UNK         0.5000 
     41 O           2.4400  -19.8774  -42.1184 O.2       6 UNK        -0.5000 
     42 CA          3.0953  -18.0590  -40.6864 C.3       6 UNK         0.1400 
     43 CB          4.1265  -18.5392  -39.6549 C.3       6 UNK        -0.1800 
     44 N           3.2925  -16.6279  -40.9484 N.am      6 UNK        -0.5000 
     45 C           2.4807  -15.8941  -41.7217 C.2       5 UNK         0.5000 
     46 O           1.4289  -16.3278  -42.1978 O.2       5 UNK        -0.5000 
     47 CA          2.9883  -14.4911  -42.1060 C.3       5 UNK         0.1400 
     48 CB          4.0888  -14.6079  -43.1722 C.3       5 UNK        -0.1800 
     49 N           1.9239  -13.6346  -42.6323 N.am      5 UNK        -0.5000 
     50 C           0.9446  -13.1178  -41.8765 C.2       4 UNK         0.5000 
     51 O           0.8826  -13.2773  -40.6560 O.2       4 UNK        -0.5000 
     52 CA         -0.1438  -12.2736  -42.5624 C.3       4 UNK         0.1400 
     53 CB         -0.0185  -10.7922  -42.1628 C.3       4 UNK        -0.1800 
     54 N          -0.1435  -12.3708  -44.0255 N.am      4 UNK        -0.5000 
     55 C          -1.2576  -12.3955  -44.7741 C.2       3 UNK         0.5000 
     56 O          -2.3935  -12.4665  -44.3025 O.2       3 UNK        -0.5000 
     57 CA         -1.0719  -12.2659  -46.2976 C.3       3 UNK         0.1400 
     58 CB         -2.3184  -11.7238  -47.0241 C.3       3 UNK        -0.1800 
     59 N           0.0861  -11.4219  -46.5759 N.am      3 UNK        -0.5000 
     60 C           0.8822  -11.5289  -47.6424 C.2       2 UNK         0.5000 
     61 O           0.6237  -12.2234  -48.6255 O.2       2 UNK        -0.5000 
     62 CA          2.2322  -10.7836  -47.5828 C.3       2 UNK         0.1400 
     63 CB          2.3592   -9.7831  -46.4106 C.3       2 UNK        -0.1800 
     64 N           3.3482  -11.7350  -47.5553 N.am      2 UNK        -0.5000 
     65 C           3.5231  -12.7521  -46.6934 C.2       1 UNK         0.5000 
     66 O           2.7854  -12.9800  -45.7291 O.2       1 UNK        -0.5000 
     67 C          -1.4646  -21.5912  -47.9104 C.2       11 UNK         0.5000 
     68 O          -1.9615  -22.2830  -48.7960 O.2       11 UNK        -0.5000 
     69 N          -2.1782  -20.7809  -47.1146 N.am      12 UNK        -0.5000 
     70 CA         -3.6351  -20.6417  -47.1446 C.3       12 UNK         0.1400 
     71 CB         -4.0664  -19.4628  -46.2600 C.3       12 UNK        -0.1800 
     72 C          -4.3663  -21.9191  -46.7029 C.2       12 UNK         0.5000 
     73 O          -5.3747  -22.2740  -47.3114 O.2       12 UNK        -0.5000 
     74 N          -3.8383  -22.6039  -45.6772 N.am      13 UNK        -0.5000 
     75 CA         -4.3564  -23.8825  -45.1828 C.3       13 UNK         0.1400 
     76 CB         -3.6553  -24.2545  -43.8676 C.3       13 UNK        -0.1800 
     77 C          -4.2246  -25.0142  -46.2197 C.2       13 UNK         0.5000 
     78 O          -5.1448  -25.8199  -46.3628 O.2       13 UNK        -0.5000 
     79 N          -3.1032  -25.0261  -46.9528 N.am      14 UNK        -0.5000 
     80 CA         -2.8708  -25.9061  -48.1006 C.3       14 UNK         0.1400 
     81 CB         -1.3572  -25.9816  -48.3573 C.3       14 UNK        -0.1800 
     82 C          -3.5960  -25.4375  -49.3797 C.2       14 UNK         0.5000 
     83 O          -3.7067  -26.2118  -50.3305 O.2       14 UNK        -0.5000 
     84 N          -4.0124  -24.1635  -49.4064 N.am      15 UNK        -0.5000 
     85 CA         -4.5429  -23.3956  -50.5380 C.3       15 UNK         0.1400 
     86 CB         -5.9672  -23.8650  -50.8767 C.3       15 UNK        -0.1800 
     87 C          -3.5903  -23.4027  -51.7539 C.2       15 UNK         0.5000 
     88 O          -4.0395  -23.5289  -52.8966 O.2       15 UNK        -0.5000 
     89 N          -2.2799  -23.3557  -51.4609 N.am      16 UNK        -0.5000 
     90 CA         -1.1244  -23.5443  -52.3520 C.3       16 UNK         0.1400 
     91 CB         -1.0026  -22.3636  -53.3344 C.3       16 UNK        -0.1800 
     92 C          -1.0965  -24.8971  -53.1021 C.2       16 UNK         0.5000 
     93 O          -0.3578  -25.0272  -54.0789 O.2       16 UNK        -0.5000 
     94 N          -1.9308  -25.8600  -52.6758 N.am      17 UNK        -0.5000 
     95 CA         -2.3079  -27.0917  -53.3823 C.3       17 UNK         0.1400 
     96 CB         -1.1000  -28.0362  -53.5510 C.3       17 UNK        -0.1800 
     97 C          -3.0557  -26.8313  -54.7135 C.2       17 UNK         0.5000 
     98 O          -3.1976  -27.7490  -55.5230 O.2       17 UNK        -0.5000 
     99 N          -3.5311  -25.5938  -54.9115 N.am      18 UNK        -0.5000 
    100 CA        -4.2474  -25.1252  -56.0961 C.3       18 UNK         0.1400 
    101 CB        -3.6833  -23.7483  -56.4847 C.3       18 UNK        -0.1800 
    102 C         -5.7624  -25.0220  -55.8480 C.2       18 UNK         0.5000 
    103 O         -6.5174  -24.9058  -56.8138 O.2       18 UNK        -0.5000 
    104 N         -6.1741  -25.0538  -54.5697 N.am      19 UNK        -0.5000 
    105 CA        -7.5475  -24.9064  -54.0759 C.3       19 UNK         0.1400 
    106 CB        -8.4401  -26.0701  -54.5579 C.3       19 UNK        -0.1800 
    107 C         -8.1358  -23.5131  -54.3845 C.2       19 UNK         0.5000 
    108 O         -9.3117  -23.4073  -54.7394 O.2       19 UNK        -0.5000 
    109 N         -7.3039  -22.4688  -54.2539 N.am      20 UNK        -0.5000 
    110 CA        -7.6781  -21.0890  -54.5638 C.3       20 UNK         0.1400 
    111 CB        -7.4355  -20.8009  -56.0565 C.3       20 UNK        -0.1800 
    112 C         -6.9526  -20.0663  -53.6779 C.2       20 UNK         0.5000 
    113 O         -7.6157  -19.2015  -53.1029 O.2       20 UNK        -0.5000 
    114 N         -5.6157  -20.1602  -53.6030 N.am      21 UNK        -0.5000 
    115 CA        -4.7261  -19.1792  -52.9689 C.3       21 UNK         0.1400 
    116 CB        -3.2725  -19.6367  -53.1470 C.3       21 UNK        -0.1800 
    117 C         -5.0443  -18.9320  -51.4816 C.2       21 UNK         0.5000 
    118 O         -4.7397  -19.7828  -50.6450 O.2       21 UNK        -0.5000 
    119 N         -5.6743  -17.7838  -51.1991 N.am      22 UNK        -0.5000 
    120 CA        -6.1960  -17.3813  -49.8801 C.3       22 UNK         0.1400 
    121 C         -7.3256  -18.3090  -49.3289 C.2       22 UNK         0.5000 
    122 N         -8.0398  -19.0460  -50.1725 N.am      22 UNK        -0.7600 
    123 O         -7.5881  -18.3387  -48.1296 O.2       22 UNK        -0.5000 
    124 C124       -5.0732  -17.0965  -48.8428 C.3       23 UNK        -0.0398 
    125 S125       -4.0250  -15.6784  -49.3177 S.3       23 UNK        -0.2404 
    126 C126       -2.6242  -15.8591  -48.1647 C.3       23 UNK        -0.0205 
    127 H127        8.6053  -11.5661  -45.8383 H         1 UNK         0.0600 
    128 H128        7.5813  -10.2074  -46.3146 H         1 UNK         0.0600 
    129 H129        8.0554  -11.4177  -47.5096 H         1 UNK         0.0600 
    130 H130        6.4121  -12.8209  -47.9852 H         1 UNK         0.3000 
    131 H131        4.8970  -14.2708  -46.0633 H         1 UNK         0.0600 
    132 H132        5.5384  -15.1138  -48.3339 H         1 UNK         0.0800 
    133 H133        4.4561  -13.9803  -49.0818 H         1 UNK         0.0800 
    134 H134        2.0172  -14.3353  -49.4320 H         1 UNK         0.0800 
    135 H135        2.8036  -15.5788  -50.3735 H         1 UNK         0.0800 
    136 H136       -0.1544  -14.7218  -48.3871 H         1 UNK         0.1150 
    137 H137       -2.3259  -18.2683  -49.4266 H         1 UNK         0.1150 
    138 H138        1.7837  -17.8534  -50.5685 H         1 UNK         0.1150 
    139 H139       -1.3277  -20.0302  -50.5880 H         1 UNK         0.0800 
    140 H140       -0.2402  -19.4318  -51.8179 H         1 UNK         0.0800 
    141 H141        0.4967  -19.5985  -48.0448 H         1 UNK         0.0800 
    142 H142        1.8886  -20.6282  -48.0299 H         1 UNK         0.0800 
    143 H143        0.3813  -22.6530  -48.0677 H         1 UNK         0.0600 
    144 H144        0.9193  -20.9689  -45.8655 H         1 UNK         0.3000 
    145 H145       -0.2599  -23.1919  -43.3095 H         1 UNK         0.0600 
    146 H146        2.0547  -23.8726  -43.9795 H         1 UNK         0.0600 
    147 H147        2.4992  -22.1816  -44.1872 H         1 UNK         0.0600 
    148 H148        2.0753  -22.7946  -42.5912 H         1 UNK         0.0600 
    149 H149        0.8956  -20.5925  -43.1602 H         1 UNK         0.3000 
    150 H150       -2.2036  -18.7523  -43.2070 H         1 UNK         0.0600 
    151 H151       -1.7534  -19.5129  -40.8838 H         1 UNK         0.0600 
    152 H152       -1.1067  -17.8991  -41.1451 H         1 UNK         0.0600 
    153 H153       -0.0253  -19.2896  -41.1187 H         1 UNK         0.0600 
    154 H154        0.4491  -17.7859  -43.1155 H         1 UNK         0.3000 
    155 H155        0.9957  -17.5132  -46.6481 H         1 UNK         0.0600 
    156 H156        1.3756  -15.1704  -45.9223 H         1 UNK         0.0600 
    157 H157        0.5237  -15.4664  -44.4098 H         1 UNK         0.0600 
    158 H158       -0.3377  -15.5417  -45.9311 H         1 UNK         0.0600 
    159 H159        2.6080  -16.8975  -44.3658 H         1 UNK         0.3000 
    160 H160        4.3280  -20.0516  -44.2157 H         1 UNK         0.0600 
    161 H161        5.1569  -17.2212  -45.0740 H         1 UNK         0.0600 
    162 H162        5.3931  -18.6830  -46.0220 H         1 UNK         0.0600 
    163 H163        6.2378  -18.4891  -44.4942 H         1 UNK         0.0600 
    164 H164        4.6055  -17.6635  -42.6956 H         1 UNK         0.3000 
    165 H165        2.0975  -18.1927  -40.2637 H         1 UNK         0.0600 
    166 H166        4.0291  -17.9930  -38.7165 H         1 UNK         0.0600 
    167 H167        3.9878  -19.5975  -39.4296 H         1 UNK         0.0600 
    168 H168        5.1482  -18.4111  -40.0145 H         1 UNK         0.0600 
    169 H169        4.1379  -16.2129  -40.5833 H         1 UNK         0.3000 
    170 H170        3.4097  -14.0188  -41.2161 H         1 UNK         0.0600 
    171 H171        4.9377  -15.1890  -42.8109 H         1 UNK         0.0600 
    172 H172        3.7204  -15.0881  -44.0791 H         1 UNK         0.0600 
    173 H173        4.4696  -13.6247  -43.4482 H         1 UNK         0.0600 
    174 H174        1.9314  -13.4847  -43.6310 H         1 UNK         0.3000 
    175 H175       -1.0901  -12.6517  -42.1698 H         1 UNK         0.0600 
    176 H176       -0.8492  -10.2059  -42.5559 H         1 UNK         0.0600 
    177 H177       -0.0254  -10.6736  -41.0785 H         1 UNK         0.0600 
    178 H178        0.9079  -10.3543  -42.5362 H         1 UNK         0.0600 
    179 H179        0.7555  -12.3564  -44.4884 H         1 UNK         0.3000 
    180 H180       -0.8699  -13.2729  -46.6637 H         1 UNK         0.0600 
    181 H181       -2.5764  -10.7217  -46.6801 H         1 UNK         0.0600 
    182 H182       -3.1835  -12.3661  -46.8549 H         1 UNK         0.0600 
    183 H183       -2.1600  -11.6785  -48.1016 H         1 UNK         0.0600 
    184 H184        0.3661  -10.8044  -45.8269 H         1 UNK         0.3000 
    185 H185        2.3157  -10.2207  -48.5136 H         1 UNK         0.0600 
    186 H186        1.5626   -9.0385  -46.4382 H         1 UNK         0.0600 
    187 H187        2.3279  -10.2748  -45.4376 H         1 UNK         0.0600 
    188 H188        3.3029   -9.2407  -46.4686 H         1 UNK         0.0600 
    189 H189        4.0182  -11.6319  -48.3033 H         1 UNK         0.3000 
    190 H190       -1.6878  -20.1801  -46.4550 H         1 UNK         0.3000 
    191 H191       -3.9273  -20.4253  -48.1736 H         1 UNK         0.0600 
    192 H192       -3.5815  -18.5394  -46.5682 H         1 UNK         0.0600 
    193 H193       -5.1436  -19.3019  -46.3220 H         1 UNK         0.0600 
    194 H194       -3.8171  -19.6315  -45.2121 H         1 UNK         0.0600 
    195 H195       -3.0412  -22.2128  -45.1850 H         1 UNK         0.3000 
    196 H196       -5.4196  -23.7505  -44.9716 H         1 UNK         0.0600 
    197 H197       -4.0488  -25.1894  -43.4669 H         1 UNK         0.0600 
    198 H198       -3.8075  -23.4861  -43.1094 H         1 UNK         0.0600 
    199 H199       -2.5814  -24.3820  -44.0025 H         1 UNK         0.0600 
    200 H200       -2.3649  -24.3691  -46.7218 H         1 UNK         0.3000 
    201 H201       -3.2314  -26.9085  -47.8610 H         1 UNK         0.0600 
    202 H202       -0.8277  -26.3592  -47.4823 H         1 UNK         0.0600 
    203 H203       -0.9420  -25.0028  -48.6013 H         1 UNK         0.0600 
    204 H204       -1.1318  -26.6513  -49.1884 H         1 UNK         0.0600 
    205 H205       -3.8246  -23.6092  -48.5819 H         1 UNK         0.3000 
    206 H206       -4.6035  -22.3608  -50.2015 H         1 UNK         0.0600 
    207 H207       -6.6102  -23.8253  -49.9974 H         1 UNK         0.0600 
    208 H208       -6.4176  -23.2229  -51.6327 H         1 UNK         0.0600 
    209 H209       -5.9715  -24.8895  -51.2486 H         1 UNK         0.0600 
    210 H210       -2.0503  -23.1881  -50.4837 H         1 UNK         0.3000 
    211 H211       -0.2425  -23.5360  -51.7101 H         1 UNK         0.0600 
    212 H212       -1.8466  -22.3197  -54.0231 H         1 UNK         0.0600 
    213 H213       -0.0945  -22.4363  -53.9337 H         1 UNK         0.0600 
    214 H214       -0.9485  -21.4181  -52.8018 H         1 UNK         0.0600 
    215 H215       -2.4871  -25.6752  -51.8473 H         1 UNK         0.3000 
    216 H216       -3.0261  -27.5948  -52.7336 H         1 UNK         0.0600 
    217 H217       -1.4186  -29.0158  -53.9090 H         1 UNK         0.0600 
    218 H218       -0.5852  -28.1908  -52.6028 H         1 UNK         0.0600 
    219 H219       -0.3762  -27.6497  -54.2685 H         1 UNK         0.0600 
    220 H220       -3.3994  -24.9034  -54.1794 H         1 UNK         0.3000 
    221 H221       -4.0909  -25.8112  -56.9309 H         1 UNK         0.0600 
    222 H222       -3.8345  -23.0126  -55.6936 H         1 UNK         0.0600 
    223 H223       -2.6135  -23.8047  -56.6874 H         1 UNK         0.0600 
    224 H224       -4.1656  -23.3665  -57.3854 H         1 UNK         0.0600 
    225 H225       -5.4569  -25.1064  -53.8593 H         1 UNK         0.3000 
    226 H226       -7.4996  -24.9792  -52.9908 H         1 UNK         0.0600 
    227 H227       -7.9900  -27.0348  -54.3239 H         1 UNK         0.0600 
    228 H228       -9.4147  -26.0414  -54.0692 H         1 UNK         0.0600 
    229 H229       -8.6154  -26.0335  -55.6333 H         1 UNK         0.0600 
    230 H230       -6.3620  -22.6333  -53.9271 H         1 UNK         0.3000 
    231 H231       -8.7441  -20.9554  -54.3661 H         1 UNK         0.0600 
    232 H232       -6.3958  -20.9728  -56.3372 H         1 UNK         0.0600 
    233 H233       -7.6777  -19.7659  -56.3012 H         1 UNK         0.0600 
    234 H234       -8.0584  -21.4367  -56.6859 H         1 UNK         0.0600 
    235 H235       -5.1531  -20.9040  -54.1023 H         1 UNK         0.3000 
    236 H236       -4.8430  -18.2376  -53.5093 H         1 UNK         0.0600 
    237 H237       -3.0188  -19.7702  -54.1987 H         1 UNK         0.0600 
    238 H238       -2.5803  -18.9020  -52.7343 H         1 UNK         0.0600 
    239 H239       -3.0966  -20.5804  -52.6330 H         1 UNK         0.0600 
    240 H240       -5.9116  -17.1655  -51.9612 H         1 UNK         0.3000 
    241 H241       -6.7087  -16.4346  -50.0532 H         1 UNK         0.0600 
    242 H242       -8.7761  -19.6325  -49.8145 H         1 UNK         0.3800 
    243 H243       -7.8529  -19.0229  -51.1705 H         1 UNK         0.3800 
    244 H244       -5.4959  -16.8622  -47.8647 H         1 UNK         0.0800 
    245 H245       -4.4564  -17.9822  -48.7043 H         1 UNK         0.0800 
    246 H246       -2.8969  -16.4873  -47.3176 H         1 UNK         0.0800 
    247 H247       -2.4090  -14.8746  -47.7486 H         1 UNK         0.0800 
@<TRIPOS>BOND
     1    1    2 1    
     2    1  127 1    
     3    1  128 1    
     4    1  129 1    
     5    2    3 2    
     6    2    4 am   BACKBONE|DICT|INTERRES
     7    4    5 1    
     8    4  130 1    
     9    5    6 1    
    10    5   65 1    
    11    5  131 1    
    12    6    7 1    
    13    6  132 1    
    14    6  133 1    
    15    7    8 1    
    16    8    9 1    
    17    8  134 1    
    18    8  135 1    
    19    9   10 ar   
    20    9   14 ar   
    21   10   11 ar   
    22   10  136 1    
    23   11   12 ar   
    24   11  126 1    
    25   12   13 ar   
    26   12  137 1    
    27   13   14 ar   
    28   13   15 1    
    29   14  138 1    
    30   15   16 1    
    31   15  139 1    
    32   15  140 1    
    33   16   17 1    
    34   17   18 1    
    35   17  141 1    
    36   17  142 1    
    37   18   19 1    
    38   18   67 1    
    39   18  143 1    
    40   19   20 am   BACKBONE|DICT|INTERRES
    41   19  144 1    
    42   20   21 2    
    43   20   22 1    
    44   22   23 1    
    45   22   24 1    
    46   22  145 1    
    47   23  146 1    
    48   23  147 1    
    49   23  148 1    
    50   24   25 am   BACKBONE|DICT|INTERRES
    51   24  149 1    
    52   25   26 2    
    53   25   27 1    
    54   27   28 1    
    55   27   29 1    
    56   27  150 1    
    57   28  151 1    
    58   28  152 1    
    59   28  153 1    
    60   29   30 am   BACKBONE|DICT|INTERRES
    61   29  154 1    
    62   30   31 2    
    63   30   32 1    
    64   32   33 1    
    65   32   34 1    
    66   32  155 1    
    67   33  156 1    
    68   33  157 1    
    69   33  158 1    
    70   34   35 am   BACKBONE|DICT|INTERRES
    71   34  159 1    
    72   35   36 2    
    73   35   37 1    
    74   37   38 1    
    75   37   39 1    
    76   37  160 1    
    77   38  161 1    
    78   38  162 1    
    79   38  163 1    
    80   39   40 am   BACKBONE|DICT|INTERRES
    81   39  164 1    
    82   40   41 2    
    83   40   42 1    
    84   42   43 1    
    85   42   44 1    
    86   42  165 1    
    87   43  166 1    
    88   43  167 1    
    89   43  168 1    
    90   44   45 am   BACKBONE|DICT|INTERRES
    91   44  169 1    
    92   45   46 2    
    93   45   47 1    
    94   47   48 1    
    95   47   49 1    
    96   47  170 1    
    97   48  171 1    
    98   48  172 1    
    99   48  173 1    
   100   49   50 am   BACKBONE|DICT|INTERRES
   101   49  174 1    
   102   50   51 2    
   103   50   52 1    
   104   52   53 1    
   105   52   54 1    
   106   52  175 1    
   107   53  176 1    
   108   53  177 1    
   109   53  178 1    
   110   54   55 am   BACKBONE|DICT|INTERRES
   111   54  179 1    
   112   55   56 2    
   113   55   57 1    
   114   57   58 1    
   115   57   59 1    
   116   57  180 1    
   117   58  181 1    
   118   58  182 1    
   119   58  183 1    
   120   59   60 am   BACKBONE|DICT|INTERRES
   121   59  184 1    
   122   60   61 2    
   123   60   62 1    
   124   62   63 1    
   125   62   64 1    
   126   62  185 1    
   127   63  186 1    
   128   63  187 1    
   129   63  188 1    
   130   64   65 am   BACKBONE|DICT|INTERRES
   131   64  189 1    
   132   65   66 2    
   133   67   68 2    
   134   67   69 am   BACKBONE|DICT|INTERRES
   135   69   70 1    
   136   69  190 1    
   137   70   71 1    
   138   70   72 1    
   139   70  191 1    
   140   71  192 1    
   141   71  193 1    
   142   71  194 1    
   143   72   73 2    
   144   72   74 am   BACKBONE|DICT|INTERRES
   145   74   75 1    
   146   74  195 1    
   147   75   76 1    
   148   75   77 1    
   149   75  196 1    
   150   76  197 1    
   151   76  198 1    
   152   76  199 1    
   153   77   78 2    
   154   77   79 am   BACKBONE|DICT|INTERRES
   155   79   80 1    
   156   79  200 1    
   157   80   81 1    
   158   80   82 1    
   159   80  201 1    
   160   81  202 1    
   161   81  203 1    
   162   81  204 1    
   163   82   83 2    
   164   82   84 am   BACKBONE|DICT|INTERRES
   165   84   85 1    
   166   84  205 1    
   167   85   86 1    
   168   85   87 1    
   169   85  206 1    
   170   86  207 1    
   171   86  208 1    
   172   86  209 1    
   173   87   88 2    
   174   87   89 am   BACKBONE|DICT|INTERRES
   175   89   90 1    
   176   89  210 1    
   177   90   91 1    
   178   90   92 1    
   179   90  211 1    
   180   91  212 1    
   181   91  213 1    
   182   91  214 1    
   183   92   93 2    
   184   92   94 am   BACKBONE|DICT|INTERRES
   185   94   95 1    
   186   94  215 1    
   187   95   96 1    
   188   95   97 1    
   189   95  216 1    
   190   96  217 1    
   191   96  218 1    
   192   96  219 1    
   193   97   98 2    
   194   97   99 am   BACKBONE|DICT|INTERRES
   195   99  100 1    
   196   99  220 1    
   197  100  101 1    
   198  100  102 1    
   199  100  221 1    
   200  101  222 1    
   201  101  223 1    
   202  101  224 1    
   203  102  103 2    
   204  102  104 am   BACKBONE|DICT|INTERRES
   205  104  105 1    
   206  104  225 1    
   207  105  106 1    
   208  105  107 1    
   209  105  226 1    
   210  106  227 1    
   211  106  228 1    
   212  106  229 1    
   213  107  108 2    
   214  107  109 am   BACKBONE|DICT|INTERRES
   215  109  110 1    
   216  109  230 1    
   217  110  111 1    
   218  110  112 1    
   219  110  231 1    
   220  111  232 1    
   221  111  233 1    
   222  111  234 1    
   223  112  113 2    
   224  112  114 am   BACKBONE|DICT|INTERRES
   225  114  115 1    
   226  114  235 1    
   227  115  116 1    
   228  115  117 1    
   229  115  236 1    
   230  116  237 1    
   231  116  238 1    
   232  116  239 1    
   233  117  118 2    
   234  117  119 am   BACKBONE|DICT|INTERRES
   235  119  120 1    
   236  119  240 1    
   237  120  121 1    
   238  120  124 1    
   239  120  241 1    
   240  121  122 am   BACKBONE|DICT|INTERRES
   241  121  123 2    
   242  122  242 1    
   243  122  243 1    
   244  124  125 1    
   245  124  244 1    
   246  124  245 1    
   247  125  126 1    
   248  126  246 1    
   249  126  247 1    
@<TRIPOS>SUBSTRUCTURE
     1 UNK         1 GROUP             0       ****    0 ROOT    
