@<TRIPOS>MOLECULE
3R540
247   249    1
SMALL
USER_CHARGES


@<TRIPOS>ATOM
      1 CA          4.4783  -11.7251  -44.2010 C.3       0 UNK        -0.1800 
      2 C           3.4172  -12.2035  -45.1804 C.2       0 UNK         0.5000 
      3 O           2.2294  -12.1810  -44.8586 O.2       0 UNK        -0.5000 
      4 N           3.8320  -12.6094  -46.3891 N.am      1 UNK        -0.5000 
      5 CA          2.9705  -13.1731  -47.4415 C.3       1 UNK         0.1400 
      6 C6          3.7717  -14.0287  -48.4600 C.3       23 UNK        -0.0398 
      7 S7          2.9453  -15.6141  -48.8255 S.3       23 UNK        -0.2404 
      8 C8          3.8905  -16.1566  -50.2760 C.3       23 UNK        -0.0205 
      9 C9          3.7436  -17.6529  -50.4988 C.ar      23 UNK        -0.0193 
     10 C10         2.7257  -18.1543  -51.3157 C.ar      23 UNK        -0.1150 
     11 C11         2.6287  -19.5271  -51.5634 C.ar      23 UNK        -0.0193 
     12 C12         3.5425  -20.3996  -50.9634 C.ar      23 UNK        -0.1150 
     13 C13         4.5598  -19.9127  -50.1362 C.ar      23 UNK        -0.0193 
     14 C14         4.6557  -18.5355  -49.9135 C.ar      23 UNK        -0.1150 
     15 C15         5.5833  -20.8791  -49.5464 C.3       23 UNK        -0.0205 
     16 S16         5.9741  -20.5901  -47.7851 S.3       23 UNK        -0.2404 
     17 C17         4.3556  -20.8152  -46.9770 C.3       23 UNK        -0.0398 
     18 CA          4.1863  -22.2073  -46.3083 C.3       11 UNK         0.1400 
     19 N           3.4183  -22.1153  -45.0576 N.am      11 UNK        -0.5000 
     20 C           3.3496  -23.0799  -44.1260 C.2       10 UNK         0.5000 
     21 O           3.9252  -24.1637  -44.2228 O.2       10 UNK        -0.5000 
     22 CA          2.4834  -22.7933  -42.8881 C.3       10 UNK         0.1400 
     23 CB          3.2358  -21.8907  -41.8976 C.3       10 UNK        -0.1800 
     24 N           1.2316  -22.1455  -43.2759 N.am      10 UNK        -0.5000 
     25 C           0.0257  -22.7361  -43.2809 C.2       9 UNK         0.5000 
     26 O          -0.1825  -23.8708  -42.8515 O.2       9 UNK        -0.5000 
     27 CA         -1.1531  -21.9285  -43.8631 C.3       9 UNK         0.1400 
     28 CB         -1.9904  -21.3124  -42.7321 C.3       9 UNK        -0.1800 
     29 N          -0.6727  -20.8737  -44.7570 N.am      9 UNK        -0.5000 
     30 C          -0.4057  -21.0646  -46.0560 C.2       8 UNK         0.5000 
     31 O          -0.8954  -21.9778  -46.7190 O.2       8 UNK        -0.5000 
     32 CA          0.6331  -20.1266  -46.7007 C.3       8 UNK         0.1400 
     33 CB          0.4310  -19.8911  -48.2026 C.3       8 UNK        -0.1800 
     34 N           0.7677  -18.8483  -46.0076 N.am      8 UNK        -0.5000 
     35 C           1.5692  -18.6318  -44.9595 C.2       7 UNK         0.5000 
     36 O           2.2560  -19.5186  -44.4475 O.2       7 UNK        -0.5000 
     37 CA          1.5357  -17.2218  -44.3456 C.3       7 UNK         0.1400 
     38 CB          2.2035  -16.1988  -45.2725 C.3       7 UNK        -0.1800 
     39 N           0.1741  -16.7791  -44.0459 N.am      7 UNK        -0.5000 
     40 C          -0.6215  -17.3377  -43.1240 C.2       6 UNK         0.5000 
     41 O          -0.2883  -18.2934  -42.4240 O.2       6 UNK        -0.5000 
     42 CA         -2.0307  -16.7418  -42.9769 C.3       6 UNK         0.1400 
     43 CB         -1.9964  -15.4366  -42.1663 C.3       6 UNK        -0.1800 
     44 N          -2.6409  -16.4982  -44.2832 N.am      6 UNK        -0.5000 
     45 C          -3.2237  -17.4541  -45.0197 C.2       5 UNK         0.5000 
     46 O          -3.3494  -18.6166  -44.6427 O.2       5 UNK        -0.5000 
     47 CA         -3.7408  -17.0630  -46.4172 C.3       5 UNK         0.1400 
     48 CB         -5.2252  -16.6734  -46.3643 C.3       5 UNK        -0.1800 
     49 N          -2.9763  -15.9838  -47.0450 N.am      5 UNK        -0.5000 
     50 C          -1.6956  -16.0926  -47.4233 C.2       4 UNK         0.5000 
     51 O          -1.0213  -17.1075  -47.2707 O.2       4 UNK        -0.5000 
     52 CA         -1.0397  -14.8396  -48.0223 C.3       4 UNK         0.1400 
     53 CB         -1.4127  -14.7009  -49.5062 C.3       4 UNK        -0.1800 
     54 N          -1.3593  -13.5967  -47.3136 N.am      4 UNK        -0.5000 
     55 C          -1.1836  -13.3766  -46.0024 C.2       3 UNK         0.5000 
     56 O          -0.8337  -14.2480  -45.2039 O.2       3 UNK        -0.5000 
     57 CA         -1.3740  -11.9226  -45.5363 C.3       3 UNK         0.1400 
     58 CB         -1.3284  -11.7793  -44.0047 C.3       3 UNK        -0.1800 
     59 N          -0.2964  -11.1308  -46.1198 N.am      3 UNK        -0.5000 
     60 C          -0.3862  -10.4025  -47.2427 C.2       2 UNK         0.5000 
     61 O          -1.4473  -10.1616  -47.8186 O.2       2 UNK        -0.5000 
     62 CA          0.9450   -9.9299  -47.8666 C.3       2 UNK         0.1400 
     63 CB          1.3589   -8.5648  -47.2976 C.3       2 UNK        -0.1800 
     64 N           2.0206  -10.8967  -47.6352 N.am      2 UNK        -0.5000 
     65 C           2.0349  -12.1457  -48.1245 C.2       1 UNK         0.5000 
     66 O           1.3027  -12.5095  -49.0440 O.2       1 UNK        -0.5000 
     67 C           3.5980  -23.2343  -47.3050 C.2       11 UNK         0.5000 
     68 O           4.3396  -23.7840  -48.1195 O.2       11 UNK        -0.5000 
     69 N           2.2857  -23.4809  -47.2229 N.am      12 UNK        -0.5000 
     70 CA          1.5426  -24.4170  -48.0592 C.3       12 UNK         0.1400 
     71 CB          1.0439  -23.7035  -49.3300 C.3       12 UNK        -0.1800 
     72 C           0.3896  -25.0152  -47.2381 C.2       12 UNK         0.5000 
     73 O           0.3019  -24.7766  -46.0308 O.2       12 UNK        -0.5000 
     74 N          -0.4595  -25.8036  -47.9031 N.am      13 UNK        -0.5000 
     75 CA         -1.6177  -26.4553  -47.3028 C.3       13 UNK         0.1400 
     76 CB         -1.8899  -27.7635  -48.0624 C.3       13 UNK        -0.1800 
     77 C          -2.8659  -25.5573  -47.3439 C.2       13 UNK         0.5000 
     78 O          -3.0478  -24.7809  -48.2869 O.2       13 UNK        -0.5000 
     79 N          -3.7365  -25.7587  -46.3451 N.am      14 UNK        -0.5000 
     80 CA         -5.1297  -25.3073  -46.2700 C.3       14 UNK         0.1400 
     81 CB         -5.9931  -26.1332  -47.2475 C.3       14 UNK        -0.1800 
     82 C          -5.3358  -23.7884  -46.4385 C.2       14 UNK         0.5000 
     83 O          -6.3091  -23.3792  -47.0691 O.2       14 UNK        -0.5000 
     84 N          -4.4280  -22.9818  -45.8695 N.am      15 UNK        -0.5000 
     85 CA         -4.4528  -21.5125  -45.8686 C.3       15 UNK         0.1400 
     86 CB         -5.6349  -20.9947  -45.0201 C.3       15 UNK        -0.1800 
     87 C          -4.4416  -20.9316  -47.2961 C.2       15 UNK         0.5000 
     88 O          -5.4172  -20.3138  -47.7271 O.2       15 UNK        -0.5000 
     89 N          -3.3441  -21.1932  -48.0192 N.am      16 UNK        -0.5000 
     90 CA         -3.1163  -20.8458  -49.4253 C.3       16 UNK         0.1400 
     91 CB         -3.0893  -19.3133  -49.6236 C.3       16 UNK        -0.1800 
     92 C          -4.1297  -21.5274  -50.3655 C.2       16 UNK         0.5000 
     93 O          -4.5973  -20.8914  -51.3131 O.2       16 UNK        -0.5000 
     94 N          -4.4567  -22.7977  -50.0829 N.am      17 UNK        -0.5000 
     95 CA         -5.4594  -23.6141  -50.7761 C.3       17 UNK         0.1400 
     96 CB         -4.9817  -23.9617  -52.2017 C.3       17 UNK        -0.1800 
     97 C          -6.8639  -22.9701  -50.7462 C.2       17 UNK         0.5000 
     98 O          -7.5014  -22.8215  -51.7888 O.2       17 UNK        -0.5000 
     99 N          -7.3024  -22.5868  -49.5392 N.am      18 UNK        -0.5000 
    100 CA        -8.5372  -21.8692  -49.2162 C.3       18 UNK         0.1400 
    101 CB        -9.7820  -22.7139  -49.5617 C.3       18 UNK        -0.1800 
    102 C         -8.5620  -20.4525  -49.8232 C.2       18 UNK         0.5000 
    103 O         -9.5289  -20.0793  -50.4906 O.2       18 UNK        -0.5000 
    104 N         -7.4863  -19.6923  -49.5651 N.am      19 UNK        -0.5000 
    105 CA        -7.2518  -18.3080  -49.9894 C.3       19 UNK         0.1400 
    106 CB        -8.2131  -17.3480  -49.2587 C.3       19 UNK        -0.1800 
    107 C         -7.2598  -18.1291  -51.5234 C.2       19 UNK         0.5000 
    108 O         -7.7924  -17.1402  -52.0303 O.2       19 UNK        -0.5000 
    109 N         -6.6592  -19.0915  -52.2332 N.am      20 UNK        -0.5000 
    110 CA        -6.5811  -19.1517  -53.6936 C.3       20 UNK         0.1400 
    111 CB        -7.1239  -20.5147  -54.1548 C.3       20 UNK        -0.1800 
    112 C         -5.1413  -18.9265  -54.1930 C.2       20 UNK         0.5000 
    113 O         -4.8196  -19.3272  -55.3132 O.2       20 UNK        -0.5000 
    114 N         -4.2861  -18.3269  -53.3485 N.am      21 UNK        -0.5000 
    115 CA        -2.8605  -18.0533  -53.5791 C.3       21 UNK         0.1400 
    116 CB        -2.6872  -16.9461  -54.6391 C.3       21 UNK        -0.1800 
    117 C         -2.0511  -19.3294  -53.9007 C.2       21 UNK         0.5000 
    118 O         -1.1587  -19.3030  -54.7496 O.2       21 UNK        -0.5000 
    119 N         -2.4118  -20.4264  -53.2223 N.am      22 UNK        -0.5000 
    120 CA        -1.8965  -21.7934  -53.4039 C.3       22 UNK         0.1400 
    121 C         -2.4289  -22.5173  -54.6788 C.2       22 UNK         0.5000 
    122 N         -3.3618  -21.9542  -55.4388 N.am      22 UNK        -0.7600 
    123 O         -2.0102  -23.6336  -54.9722 O.2       22 UNK        -0.5000 
    124 C124       -0.3530  -21.9271  -53.2641 C.3       23 UNK        -0.0398 
    125 S125        0.3499  -21.1325  -51.7737 S.3       23 UNK        -0.2404 
    126 C126        1.6011  -20.0619  -52.5508 C.3       23 UNK        -0.0205 
    127 H127        4.4554  -12.3356  -43.2983 H         1 UNK         0.0600 
    128 H128        4.2884  -10.6896  -43.9184 H         1 UNK         0.0600 
    129 H129        5.4802  -11.7844  -44.6269 H         1 UNK         0.0600 
    130 H130        4.8179  -12.5682  -46.6062 H         1 UNK         0.3000 
    131 H131        2.2850  -13.8400  -46.9159 H         1 UNK         0.0600 
    132 H132        3.9598  -13.4855  -49.3883 H         1 UNK         0.0800 
    133 H133        4.7558  -14.2794  -48.0615 H         1 UNK         0.0800 
    134 H134        3.5529  -15.6052  -51.1548 H         1 UNK         0.0800 
    135 H135        4.9446  -15.9082  -50.1421 H         1 UNK         0.0800 
    136 H136        2.0304  -17.4711  -51.7828 H         1 UNK         0.1150 
    137 H137        3.4745  -21.4592  -51.1669 H         1 UNK         0.1150 
    138 H138        5.4504  -18.1468  -49.2923 H         1 UNK         0.1150 
    139 H139        5.2515  -21.9098  -49.6705 H         1 UNK         0.0800 
    140 H140        6.5058  -20.7894  -50.1210 H         1 UNK         0.0800 
    141 H141        3.5542  -20.5958  -47.6834 H         1 UNK         0.0800 
    142 H142        4.2969  -20.0283  -46.2239 H         1 UNK         0.0800 
    143 H143        5.1761  -22.5744  -46.0276 H         1 UNK         0.0600 
    144 H144        2.9843  -21.2185  -44.8599 H         1 UNK         0.3000 
    145 H145        2.2856  -23.7459  -42.3923 H         1 UNK         0.0600 
    146 H146        2.6465  -21.7223  -40.9961 H         1 UNK         0.0600 
    147 H147        4.1770  -22.3483  -41.5901 H         1 UNK         0.0600 
    148 H148        3.4691  -20.9169  -42.3299 H         1 UNK         0.0600 
    149 H149        1.3165  -21.1966  -43.6167 H         1 UNK         0.3000 
    150 H150       -1.7853  -22.6245  -44.4171 H         1 UNK         0.0600 
    151 H151       -2.4144  -22.0905  -42.0964 H         1 UNK         0.0600 
    152 H152       -2.8216  -20.7262  -43.1213 H         1 UNK         0.0600 
    153 H153       -1.3917  -20.6628  -42.0941 H         1 UNK         0.0600 
    154 H154       -0.3051  -20.0461  -44.3084 H         1 UNK         0.3000 
    155 H155        1.5726  -20.6657  -46.6116 H         1 UNK         0.0600 
    156 H156        0.4035  -20.8290  -48.7528 H         1 UNK         0.0600 
    157 H157        1.2458  -19.2996  -48.6213 H         1 UNK         0.0600 
    158 H158       -0.4946  -19.3654  -48.4047 H         1 UNK         0.0600 
    159 H159        0.1804  -18.0933  -46.3613 H         1 UNK         0.3000 
    160 H160        2.0985  -17.2530  -43.4104 H         1 UNK         0.0600 
    161 H161        1.6342  -16.0721  -46.1934 H         1 UNK         0.0600 
    162 H162        3.2130  -16.5086  -45.5457 H         1 UNK         0.0600 
    163 H163        2.2783  -15.2236  -44.7910 H         1 UNK         0.0600 
    164 H164       -0.1722  -15.9750  -44.5620 H         1 UNK         0.3000 
    165 H165       -2.6436  -17.4589  -42.4260 H         1 UNK         0.0600 
    166 H166       -2.9962  -15.0186  -42.0491 H         1 UNK         0.0600 
    167 H167       -1.5981  -15.6126  -41.1664 H         1 UNK         0.0600 
    168 H168       -1.3694  -14.6793  -42.6370 H         1 UNK         0.0600 
    169 H169       -2.4936  -15.5838  -44.6897 H         1 UNK         0.3000 
    170 H170       -3.6538  -17.9480  -47.0480 H         1 UNK         0.0600 
    171 H171       -5.8234  -17.4780  -45.9344 H         1 UNK         0.0600 
    172 H172       -5.3869  -15.7813  -45.7581 H         1 UNK         0.0600 
    173 H173       -5.6178  -16.4802  -47.3628 H         1 UNK         0.0600 
    174 H174       -3.4511  -15.1044  -47.1860 H         1 UNK         0.3000 
    175 H175        0.0412  -14.9763  -47.9567 H         1 UNK         0.0600 
    176 H176       -2.4797  -14.5192  -49.6399 H         1 UNK         0.0600 
    177 H177       -0.8714  -13.8793  -49.9749 H         1 UNK         0.0600 
    178 H178       -1.1610  -15.6081  -50.0577 H         1 UNK         0.0600 
    179 H179       -1.6216  -12.8121  -47.8938 H         1 UNK         0.3000 
    180 H180       -2.3490  -11.5754  -45.8839 H         1 UNK         0.0600 
    181 H181       -1.4676  -10.7411  -43.7035 H         1 UNK         0.0600 
    182 H182       -0.3771  -12.1209  -43.5939 H         1 UNK         0.0600 
    183 H183       -2.1201  -12.3640  -43.5347 H         1 UNK         0.0600 
    184 H184        0.6252  -11.3243  -45.7390 H         1 UNK         0.3000 
    185 H185        0.7975   -9.8277  -48.9438 H         1 UNK         0.0600 
    186 H186        0.5829   -7.8185  -47.4728 H         1 UNK         0.0600 
    187 H187        1.5328   -8.6119  -46.2218 H         1 UNK         0.0600 
    188 H188        2.2715   -8.2009  -47.7702 H         1 UNK         0.0600 
    189 H189        2.6662  -10.6815  -46.8897 H         1 UNK         0.3000 
    190 H190        1.7535  -23.1068  -46.4494 H         1 UNK         0.3000 
    191 H191        2.1981  -25.2423  -48.3448 H         1 UNK         0.0600 
    192 H192        1.8315  -23.1083  -49.7925 H         1 UNK         0.0600 
    193 H193        0.7055  -24.4207  -50.0778 H         1 UNK         0.0600 
    194 H194        0.2043  -23.0431  -49.1142 H         1 UNK         0.0600 
    195 H195       -0.3575  -25.9078  -48.9017 H         1 UNK         0.3000 
    196 H196       -1.3939  -26.7054  -46.2632 H         1 UNK         0.0600 
    197 H197       -2.7351  -28.3003  -47.6294 H         1 UNK         0.0600 
    198 H198       -1.0283  -28.4301  -48.0214 H         1 UNK         0.0600 
    199 H199       -2.1224  -27.5793  -49.1122 H         1 UNK         0.0600 
    200 H200       -3.4634  -26.3979  -45.6114 H         1 UNK         0.3000 
    201 H201       -5.4709  -25.5387  -45.2601 H         1 UNK         0.0600 
    202 H202       -5.8823  -27.2018  -47.0635 H         1 UNK         0.0600 
    203 H203       -5.7191  -25.9443  -48.2852 H         1 UNK         0.0600 
    204 H204       -7.0526  -25.8978  -47.1383 H         1 UNK         0.0600 
    205 H205       -3.6374  -23.4158  -45.4165 H         1 UNK         0.3000 
    206 H206       -3.5327  -21.1770  -45.3930 H         1 UNK         0.0600 
    207 H207       -5.5669  -21.3533  -43.9932 H         1 UNK         0.0600 
    208 H208       -5.6422  -19.9055  -44.9827 H         1 UNK         0.0600 
    209 H209       -6.5989  -21.3065  -45.4224 H         1 UNK         0.0600 
    210 H210       -2.5874  -21.7086  -47.5749 H         1 UNK         0.3000 
    211 H211       -2.1310  -21.2375  -49.6820 H         1 UNK         0.0600 
    212 H212       -4.0888  -18.8823  -49.5997 H         1 UNK         0.0600 
    213 H213       -2.6423  -19.0549  -50.5828 H         1 UNK         0.0600 
    214 H214       -2.5114  -18.8119  -48.8531 H         1 UNK         0.0600 
    215 H215       -3.9975  -23.2520  -49.2990 H         1 UNK         0.3000 
    216 H216       -5.5349  -24.5478  -50.2186 H         1 UNK         0.0600 
    217 H217       -5.6657  -24.6628  -52.6810 H         1 UNK         0.0600 
    218 H218       -3.9973  -24.4293  -52.1852 H         1 UNK         0.0600 
    219 H219       -4.9236  -23.0788  -52.8385 H         1 UNK         0.0600 
    220 H220       -6.7201  -22.7874  -48.7275 H         1 UNK         0.3000 
    221 H221       -8.5285  -21.7341  -48.1335 H         1 UNK         0.0600 
    222 H222       -9.8943  -22.8571  -50.6366 H         1 UNK         0.0600 
    223 H223       -9.7313  -23.6976  -49.0950 H         1 UNK         0.0600 
    224 H224      -10.6906  -22.2303  -49.2017 H         1 UNK         0.0600 
    225 H225       -6.7500  -20.0867  -48.9812 H         1 UNK         0.3000 
    226 H226       -6.2429  -18.0585  -49.6618 H         1 UNK         0.0600 
    227 H227       -8.1572  -17.4832  -48.1785 H         1 UNK         0.0600 
    228 H228       -7.9608  -16.3076  -49.4668 H         1 UNK         0.0600 
    229 H229       -9.2487  -17.5014  -49.5636 H         1 UNK         0.0600 
    230 H230       -6.1933  -19.8508  -51.7428 H         1 UNK         0.3000 
    231 H231       -7.1991  -18.3727  -54.1435 H         1 UNK         0.0600 
    232 H232       -6.4787  -21.3310  -53.8278 H         1 UNK         0.0600 
    233 H233       -7.1940  -20.5658  -55.2418 H         1 UNK         0.0600 
    234 H234       -8.1220  -20.6980  -53.7562 H         1 UNK         0.0600 
    235 H235       -4.6458  -18.0664  -52.4422 H         1 UNK         0.3000 
    236 H236       -2.4618  -17.6708  -52.6386 H         1 UNK         0.0600 
    237 H237       -3.2558  -16.0547  -54.3744 H         1 UNK         0.0600 
    238 H238       -1.6416  -16.6483  -54.7267 H         1 UNK         0.0600 
    239 H239       -3.0176  -17.2743  -55.6251 H         1 UNK         0.0600 
    240 H240       -3.2035  -20.3558  -52.5912 H         1 UNK         0.3000 
    241 H241       -2.3276  -22.3594  -52.5787 H         1 UNK         0.0600 
    242 H242       -3.6948  -22.4498  -56.2501 H         1 UNK         0.3800 
    243 H243       -3.7212  -21.0267  -55.2431 H         1 UNK         0.3800 
    244 H244       -0.0744  -22.9812  -53.2216 H         1 UNK         0.0800 
    245 H245        0.1335  -21.5335  -54.1573 H         1 UNK         0.0800 
    246 H246        2.1336  -20.6251  -53.3185 H         1 UNK         0.0800 
    247 H247        1.0953  -19.2440  -53.0659 H         1 UNK         0.0800 
@<TRIPOS>BOND
     1    1    2 1    
     2    1  127 1    
     3    1  128 1    
     4    1  129 1    
     5    2    3 2    
     6    2    4 am   BACKBONE|DICT|INTERRES
     7    4    5 1    
     8    4  130 1    
     9    5    6 1    
    10    5   65 1    
    11    5  131 1    
    12    6    7 1    
    13    6  132 1    
    14    6  133 1    
    15    7    8 1    
    16    8    9 1    
    17    8  134 1    
    18    8  135 1    
    19    9   10 ar   
    20    9   14 ar   
    21   10   11 ar   
    22   10  136 1    
    23   11   12 ar   
    24   11  126 1    
    25   12   13 ar   
    26   12  137 1    
    27   13   14 ar   
    28   13   15 1    
    29   14  138 1    
    30   15   16 1    
    31   15  139 1    
    32   15  140 1    
    33   16   17 1    
    34   17   18 1    
    35   17  141 1    
    36   17  142 1    
    37   18   19 1    
    38   18   67 1    
    39   18  143 1    
    40   19   20 am   BACKBONE|DICT|INTERRES
    41   19  144 1    
    42   20   21 2    
    43   20   22 1    
    44   22   23 1    
    45   22   24 1    
    46   22  145 1    
    47   23  146 1    
    48   23  147 1    
    49   23  148 1    
    50   24   25 am   BACKBONE|DICT|INTERRES
    51   24  149 1    
    52   25   26 2    
    53   25   27 1    
    54   27   28 1    
    55   27   29 1    
    56   27  150 1    
    57   28  151 1    
    58   28  152 1    
    59   28  153 1    
    60   29   30 am   BACKBONE|DICT|INTERRES
    61   29  154 1    
    62   30   31 2    
    63   30   32 1    
    64   32   33 1    
    65   32   34 1    
    66   32  155 1    
    67   33  156 1    
    68   33  157 1    
    69   33  158 1    
    70   34   35 am   BACKBONE|DICT|INTERRES
    71   34  159 1    
    72   35   36 2    
    73   35   37 1    
    74   37   38 1    
    75   37   39 1    
    76   37  160 1    
    77   38  161 1    
    78   38  162 1    
    79   38  163 1    
    80   39   40 am   BACKBONE|DICT|INTERRES
    81   39  164 1    
    82   40   41 2    
    83   40   42 1    
    84   42   43 1    
    85   42   44 1    
    86   42  165 1    
    87   43  166 1    
    88   43  167 1    
    89   43  168 1    
    90   44   45 am   BACKBONE|DICT|INTERRES
    91   44  169 1    
    92   45   46 2    
    93   45   47 1    
    94   47   48 1    
    95   47   49 1    
    96   47  170 1    
    97   48  171 1    
    98   48  172 1    
    99   48  173 1    
   100   49   50 am   BACKBONE|DICT|INTERRES
   101   49  174 1    
   102   50   51 2    
   103   50   52 1    
   104   52   53 1    
   105   52   54 1    
   106   52  175 1    
   107   53  176 1    
   108   53  177 1    
   109   53  178 1    
   110   54   55 am   BACKBONE|DICT|INTERRES
   111   54  179 1    
   112   55   56 2    
   113   55   57 1    
   114   57   58 1    
   115   57   59 1    
   116   57  180 1    
   117   58  181 1    
   118   58  182 1    
   119   58  183 1    
   120   59   60 am   BACKBONE|DICT|INTERRES
   121   59  184 1    
   122   60   61 2    
   123   60   62 1    
   124   62   63 1    
   125   62   64 1    
   126   62  185 1    
   127   63  186 1    
   128   63  187 1    
   129   63  188 1    
   130   64   65 am   BACKBONE|DICT|INTERRES
   131   64  189 1    
   132   65   66 2    
   133   67   68 2    
   134   67   69 am   BACKBONE|DICT|INTERRES
   135   69   70 1    
   136   69  190 1    
   137   70   71 1    
   138   70   72 1    
   139   70  191 1    
   140   71  192 1    
   141   71  193 1    
   142   71  194 1    
   143   72   73 2    
   144   72   74 am   BACKBONE|DICT|INTERRES
   145   74   75 1    
   146   74  195 1    
   147   75   76 1    
   148   75   77 1    
   149   75  196 1    
   150   76  197 1    
   151   76  198 1    
   152   76  199 1    
   153   77   78 2    
   154   77   79 am   BACKBONE|DICT|INTERRES
   155   79   80 1    
   156   79  200 1    
   157   80   81 1    
   158   80   82 1    
   159   80  201 1    
   160   81  202 1    
   161   81  203 1    
   162   81  204 1    
   163   82   83 2    
   164   82   84 am   BACKBONE|DICT|INTERRES
   165   84   85 1    
   166   84  205 1    
   167   85   86 1    
   168   85   87 1    
   169   85  206 1    
   170   86  207 1    
   171   86  208 1    
   172   86  209 1    
   173   87   88 2    
   174   87   89 am   BACKBONE|DICT|INTERRES
   175   89   90 1    
   176   89  210 1    
   177   90   91 1    
   178   90   92 1    
   179   90  211 1    
   180   91  212 1    
   181   91  213 1    
   182   91  214 1    
   183   92   93 2    
   184   92   94 am   BACKBONE|DICT|INTERRES
   185   94   95 1    
   186   94  215 1    
   187   95   96 1    
   188   95   97 1    
   189   95  216 1    
   190   96  217 1    
   191   96  218 1    
   192   96  219 1    
   193   97   98 2    
   194   97   99 am   BACKBONE|DICT|INTERRES
   195   99  100 1    
   196   99  220 1    
   197  100  101 1    
   198  100  102 1    
   199  100  221 1    
   200  101  222 1    
   201  101  223 1    
   202  101  224 1    
   203  102  103 2    
   204  102  104 am   BACKBONE|DICT|INTERRES
   205  104  105 1    
   206  104  225 1    
   207  105  106 1    
   208  105  107 1    
   209  105  226 1    
   210  106  227 1    
   211  106  228 1    
   212  106  229 1    
   213  107  108 2    
   214  107  109 am   BACKBONE|DICT|INTERRES
   215  109  110 1    
   216  109  230 1    
   217  110  111 1    
   218  110  112 1    
   219  110  231 1    
   220  111  232 1    
   221  111  233 1    
   222  111  234 1    
   223  112  113 2    
   224  112  114 am   BACKBONE|DICT|INTERRES
   225  114  115 1    
   226  114  235 1    
   227  115  116 1    
   228  115  117 1    
   229  115  236 1    
   230  116  237 1    
   231  116  238 1    
   232  116  239 1    
   233  117  118 2    
   234  117  119 am   BACKBONE|DICT|INTERRES
   235  119  120 1    
   236  119  240 1    
   237  120  121 1    
   238  120  124 1    
   239  120  241 1    
   240  121  122 am   BACKBONE|DICT|INTERRES
   241  121  123 2    
   242  122  242 1    
   243  122  243 1    
   244  124  125 1    
   245  124  244 1    
   246  124  245 1    
   247  125  126 1    
   248  126  246 1    
   249  126  247 1    
@<TRIPOS>SUBSTRUCTURE
     1 UNK         1 GROUP             0       ****    0 ROOT    
