@<TRIPOS>MOLECULE
3R540
247   249    1
SMALL
USER_CHARGES


@<TRIPOS>ATOM
      1 CA         -3.8638  -12.3388  -43.8191 C.3       0 UNK        -0.1800 
      2 C          -2.6622  -13.1404  -44.2976 C.2       0 UNK         0.5000 
      3 O          -1.5255  -12.7500  -44.0407 O.2       0 UNK        -0.5000 
      4 N          -2.9065  -14.2662  -44.9805 N.am      1 UNK        -0.5000 
      5 CA         -1.8728  -15.1644  -45.5133 C.3       1 UNK         0.1400 
      6 C6         -2.4779  -16.1554  -46.5390 C.3       23 UNK        -0.0398 
      7 S7         -1.2758  -16.6861  -47.7981 S.3       23 UNK        -0.2404 
      8 C8         -2.1845  -18.0668  -48.5547 C.3       23 UNK        -0.0205 
      9 C9         -1.3980  -18.6728  -49.7044 C.ar      23 UNK        -0.0193 
     10 C10        -1.7484  -18.4002  -51.0294 C.ar      23 UNK        -0.1150 
     11 C11        -1.0127  -18.9417  -52.0883 C.ar      23 UNK        -0.0193 
     12 C12         0.0811  -19.7676  -51.8035 C.ar      23 UNK        -0.1150 
     13 C13         0.4480  -20.0424  -50.4822 C.ar      23 UNK        -0.0193 
     14 C14        -0.3002  -19.4924  -49.4378 C.ar      23 UNK        -0.1150 
     15 C15         1.6832  -20.8864  -50.1952 C.3       23 UNK        -0.0205 
     16 S16         1.2721  -22.5478  -49.5734 S.3       23 UNK        -0.2404 
     17 C17         1.3265  -22.2746  -47.7752 C.3       23 UNK        -0.0398 
     18 CA          0.3575  -23.1662  -46.9659 C.3       11 UNK         0.1400 
     19 N           0.8156  -23.2485  -45.5788 N.am      11 UNK        -0.5000 
     20 C           0.4512  -24.1751  -44.6869 C.2       10 UNK         0.5000 
     21 O          -0.3237  -25.0975  -44.9340 O.2       10 UNK        -0.5000 
     22 CA          1.0354  -24.0139  -43.2703 C.3       10 UNK         0.1400 
     23 CB          2.4194  -24.6731  -43.1778 C.3       10 UNK        -0.1800 
     24 N           1.1371  -22.6091  -42.8602 N.am      10 UNK        -0.5000 
     25 C           0.0738  -21.8335  -42.6110 C.2       9 UNK         0.5000 
     26 O          -1.0874  -22.2294  -42.6890 O.2       9 UNK        -0.5000 
     27 CA          0.3361  -20.3600  -42.2585 C.3       9 UNK         0.1400 
     28 CB          0.6443  -20.1998  -40.7631 C.3       9 UNK        -0.1800 
     29 N           1.3876  -19.7094  -43.0449 N.am      9 UNK        -0.5000 
     30 C           1.4087  -19.5953  -44.3807 C.2       8 UNK         0.5000 
     31 O           0.6029  -20.1609  -45.1187 O.2       8 UNK        -0.5000 
     32 CA          2.4995  -18.6904  -44.9844 C.3       8 UNK         0.1400 
     33 CB          2.1783  -18.2652  -46.4284 C.3       8 UNK        -0.1800 
     34 N           2.6810  -17.4841  -44.1772 N.am      8 UNK        -0.5000 
     35 C           3.6606  -17.2921  -43.2856 C.2       7 UNK         0.5000 
     36 O           4.4860  -18.1604  -42.9977 O.2       7 UNK        -0.5000 
     37 CA          3.7121  -15.9181  -42.5825 C.3       7 UNK         0.1400 
     38 CB          5.1093  -15.5879  -42.0183 C.3       7 UNK        -0.1800 
     39 N           3.2205  -14.8042  -43.3990 N.am      7 UNK        -0.5000 
     40 C           3.6810  -14.3798  -44.5857 C.2       6 UNK         0.5000 
     41 O           4.5981  -14.9211  -45.2041 O.2       6 UNK        -0.5000 
     42 CA          3.0299  -13.1129  -45.1656 C.3       6 UNK         0.1400 
     43 CB          1.6906  -13.4392  -45.8416 C.3       6 UNK        -0.1800 
     44 N           2.8071  -12.1086  -44.1246 N.am      6 UNK        -0.5000 
     45 C           3.3149  -10.8691  -44.1259 C.2       5 UNK         0.5000 
     46 O           4.0066  -10.4121  -45.0370 O.2       5 UNK        -0.5000 
     47 CA          3.0042   -9.9784  -42.9034 C.3       5 UNK         0.1400 
     48 CB          1.7888   -9.0832  -43.1898 C.3       5 UNK        -0.1800 
     49 N           2.7523  -10.7352  -41.6760 N.am      5 UNK        -0.5000 
     50 C           3.6586  -11.4822  -41.0314 C.2       4 UNK         0.5000 
     51 O           4.8484  -11.5278  -41.3452 O.2       4 UNK        -0.5000 
     52 CA          3.1590  -12.3416  -39.8500 C.3       4 UNK         0.1400 
     53 CB          3.5916  -11.7153  -38.5152 C.3       4 UNK        -0.1800 
     54 N           1.7123  -12.5985  -39.8008 N.am      4 UNK        -0.5000 
     55 C           0.9755  -13.1745  -40.7597 C.2       3 UNK         0.5000 
     56 O           1.3973  -13.4269  -41.8901 O.2       3 UNK        -0.5000 
     57 CA         -0.4863  -13.4906  -40.4032 C.3       3 UNK         0.1400 
     58 CB         -1.3688  -12.2455  -40.5803 C.3       3 UNK        -0.1800 
     59 N          -1.0048  -14.5751  -41.2373 N.am      3 UNK        -0.5000 
     60 C          -0.6633  -15.8645  -41.1011 C.2       2 UNK         0.5000 
     61 O           0.0764  -16.2803  -40.2085 O.2       2 UNK        -0.5000 
     62 CA         -1.2444  -16.8687  -42.1143 C.3       2 UNK         0.1400 
     63 CB         -2.3334  -17.7310  -41.4566 C.3       2 UNK        -0.1800 
     64 N          -1.8073  -16.2287  -43.3028 N.am      2 UNK        -0.5000 
     65 C          -1.0990  -15.8956  -44.3906 C.2       1 UNK         0.5000 
     66 O           0.1069  -16.1173  -44.5101 O.2       1 UNK        -0.5000 
     67 C          -1.1130  -22.6912  -47.0358 C.2       11 UNK         0.5000 
     68 O          -1.9027  -23.2281  -47.8159 O.2       11 UNK        -0.5000 
     69 N          -1.4694  -21.7378  -46.1626 N.am      12 UNK        -0.5000 
     70 CA         -2.8322  -21.2632  -45.9361 C.3       12 UNK         0.1400 
     71 CB         -2.7986  -20.0265  -45.0236 C.3       12 UNK        -0.1800 
     72 C          -3.7409  -22.3598  -45.3501 C.2       12 UNK         0.5000 
     73 O          -4.8582  -22.5347  -45.8343 O.2       12 UNK        -0.5000 
     74 N          -3.2370  -23.1124  -44.3599 N.am      13 UNK        -0.5000 
     75 CA         -3.9206  -24.2557  -43.7446 C.3       13 UNK         0.1400 
     76 CB         -3.1376  -24.7254  -42.5097 C.3       13 UNK        -0.1800 
     77 C          -4.1438  -25.4268  -44.7204 C.2       13 UNK         0.5000 
     78 O          -5.1694  -26.1026  -44.6330 O.2       13 UNK        -0.5000 
     79 N          -3.2067  -25.6163  -45.6597 N.am      14 UNK        -0.5000 
     80 CA         -3.3152  -26.5533  -46.7809 C.3       14 UNK         0.1400 
     81 CB         -1.9154  -26.7929  -47.3695 C.3       14 UNK        -0.1800 
     82 C          -4.2970  -26.0889  -47.8797 C.2       14 UNK         0.5000 
     83 O          -4.5922  -26.8713  -48.7839 O.2       14 UNK        -0.5000 
     84 N          -4.7814  -24.8405  -47.7845 N.am      15 UNK        -0.5000 
     85 CA         -5.7251  -24.1690  -48.6801 C.3       15 UNK         0.1400 
     86 CB         -7.1053  -24.8584  -48.6479 C.3       15 UNK        -0.1800 
     87 C          -5.1729  -23.9815  -50.1052 C.2       15 UNK         0.5000 
     88 O          -5.9292  -24.0753  -51.0733 O.2       15 UNK        -0.5000 
     89 N          -3.8666  -23.6911  -50.2143 N.am      16 UNK        -0.5000 
     90 CA         -3.1563  -23.4990  -51.4840 C.3       16 UNK         0.1400 
     91 CB         -1.6765  -23.2297  -51.1980 C.3       16 UNK        -0.1800 
     92 C          -3.7370  -22.3757  -52.3622 C.2       16 UNK         0.5000 
     93 O          -3.7389  -22.5027  -53.5859 O.2       16 UNK        -0.5000 
     94 N          -4.2823  -21.3342  -51.7173 N.am      17 UNK        -0.5000 
     95 CA         -4.9570  -20.1957  -52.3432 C.3       17 UNK         0.1400 
     96 CB         -5.4260  -19.2342  -51.2407 C.3       17 UNK        -0.1800 
     97 C          -6.1457  -20.5820  -53.2471 C.2       17 UNK         0.5000 
     98 O          -6.4342  -19.8590  -54.2011 O.2       17 UNK        -0.5000 
     99 N          -6.7945  -21.7210  -52.9587 N.am      18 UNK        -0.5000 
    100 CA        -7.9075  -22.2632  -53.7398 C.3       18 UNK         0.1400 
    101 CB        -8.6124  -23.3591  -52.9258 C.3       18 UNK        -0.1800 
    102 C         -7.4849  -22.8026  -55.1209 C.2       18 UNK         0.5000 
    103 O         -8.3384  -22.9166  -56.0017 O.2       18 UNK        -0.5000 
    104 N         -6.1915  -23.1135  -55.3026 N.am      19 UNK        -0.5000 
    105 CA        -5.6276  -23.5428  -56.5843 C.3       19 UNK         0.1400 
    106 CB        -4.2912  -24.2617  -56.3425 C.3       19 UNK        -0.1800 
    107 C         -5.4339  -22.3732  -57.5679 C.2       19 UNK         0.5000 
    108 O         -5.3415  -22.6148  -58.7715 O.2       19 UNK        -0.5000 
    109 N         -5.3523  -21.1396  -57.0432 N.am      20 UNK        -0.5000 
    110 CA        -5.2091  -19.8392  -57.7166 C.3       20 UNK         0.1400 
    111 CB        -6.4171  -19.5577  -58.6289 C.3       20 UNK        -0.1800 
    112 C         -3.8839  -19.6181  -58.4774 C.2       20 UNK         0.5000 
    113 O         -3.4060  -18.4838  -58.5313 O.2       20 UNK        -0.5000 
    114 N         -3.2960  -20.6884  -59.0269 N.am      21 UNK        -0.5000 
    115 CA        -2.0571  -20.7105  -59.8111 C.3       21 UNK         0.1400 
    116 CB        -1.8177  -22.1444  -60.3082 C.3       21 UNK        -0.1800 
    117 C         -0.8134  -20.1844  -59.0667 C.2       21 UNK         0.5000 
    118 O          0.1423  -19.7559  -59.7150 O.2       21 UNK        -0.5000 
    119 N         -0.8544  -20.2054  -57.7292 N.am      22 UNK        -0.5000 
    120 CA         0.1277  -19.5648  -56.8442 C.3       22 UNK         0.1400 
    121 C          0.0978  -18.0052  -56.8494 C.2       22 UNK         0.5000 
    122 N         -0.9206  -17.3512  -57.3976 N.am      22 UNK        -0.7600 
    123 O          1.0271  -17.3755  -56.3519 O.2       22 UNK        -0.5000 
    124 C124        0.0561  -20.1381  -55.4050 C.3       23 UNK        -0.0398 
    125 S125       -1.5965  -19.9990  -54.6284 S.3       23 UNK        -0.2404 
    126 C126       -1.3721  -18.5660  -53.5236 C.3       23 UNK        -0.0205 
    127 H127       -3.8297  -11.3309  -44.2326 H         1 UNK         0.0600 
    128 H128       -3.8544  -12.2623  -42.7319 H         1 UNK         0.0600 
    129 H129       -4.8052  -12.7987  -44.1204 H         1 UNK         0.0600 
    130 H130       -3.8638  -14.5308  -45.1654 H         1 UNK         0.3000 
    131 H131       -1.1550  -14.5301  -46.0379 H         1 UNK         0.0600 
    132 H132       -3.2951  -15.6791  -47.0829 H         1 UNK         0.0800 
    133 H133       -2.9161  -17.0248  -46.0460 H         1 UNK         0.0800 
    134 H134       -3.1582  -17.7150  -48.8986 H         1 UNK         0.0800 
    135 H135       -2.3760  -18.8335  -47.8043 H         1 UNK         0.0800 
    136 H136       -2.5828  -17.7452  -51.2354 H         1 UNK         0.1150 
    137 H137        0.6655  -20.1837  -52.6091 H         1 UNK         0.1150 
    138 H138       -0.0248  -19.6728  -48.4106 H         1 UNK         0.1150 
    139 H139        2.3306  -20.3658  -49.4881 H         1 UNK         0.0800 
    140 H140        2.2743  -21.0040  -51.1046 H         1 UNK         0.0800 
    141 H141        1.1732  -21.2256  -47.5343 H         1 UNK         0.0800 
    142 H142        2.3544  -22.4883  -47.4781 H         1 UNK         0.0800 
    143 H143        0.3952  -24.1757  -47.3811 H         1 UNK         0.0600 
    144 H144        1.4018  -22.4917  -45.2589 H         1 UNK         0.3000 
    145 H145        0.3676  -24.5272  -42.5751 H         1 UNK         0.0600 
    146 H146        2.3697  -25.7252  -43.4617 H         1 UNK         0.0600 
    147 H147        2.8088  -24.6306  -42.1604 H         1 UNK         0.0600 
    148 H148        3.1428  -24.1893  -43.8352 H         1 UNK         0.0600 
    149 H149        2.0622  -22.2135  -42.7777 H         1 UNK         0.3000 
    150 H150       -0.5923  -19.8289  -42.4684 H         1 UNK         0.0600 
    151 H151        1.5887  -20.6740  -40.4935 H         1 UNK         0.0600 
    152 H152       -0.1378  -20.6523  -40.1518 H         1 UNK         0.0600 
    153 H153        0.7044  -19.1479  -40.4825 H         1 UNK         0.0600 
    154 H154        2.1118  -19.2366  -42.5241 H         1 UNK         0.3000 
    155 H155        3.4222  -19.2730  -45.0095 H         1 UNK         0.0600 
    156 H156        1.2163  -17.7564  -46.4910 H         1 UNK         0.0600 
    157 H157        2.1412  -19.1256  -47.0954 H         1 UNK         0.0600 
    158 H158        2.9388  -17.5885  -46.8184 H         1 UNK         0.0600 
    159 H159        1.9782  -16.7610  -44.3076 H         1 UNK         0.3000 
    160 H160        3.0259  -15.9904  -41.7372 H         1 UNK         0.0600 
    161 H161        5.8656  -15.5670  -42.8036 H         1 UNK         0.0600 
    162 H162        5.4216  -16.3288  -41.2816 H         1 UNK         0.0600 
    163 H163        5.1163  -14.6171  -41.5231 H         1 UNK         0.0600 
    164 H164        2.4461  -14.2948  -42.9759 H         1 UNK         0.3000 
    165 H165        3.7082  -12.7313  -45.9314 H         1 UNK         0.0600 
    166 H166        1.7812  -14.2856  -46.5240 H         1 UNK         0.0600 
    167 H167        0.9296  -13.6862  -45.1024 H         1 UNK         0.0600 
    168 H168        1.3255  -12.5892  -46.4176 H         1 UNK         0.0600 
    169 H169        2.2641  -12.4073  -43.3205 H         1 UNK         0.3000 
    170 H170        3.8714   -9.3371  -42.7333 H         1 UNK         0.0600 
    171 H171        1.6019   -8.3947  -42.3655 H         1 UNK         0.0600 
    172 H172        0.8845   -9.6726  -43.3484 H         1 UNK         0.0600 
    173 H173        1.9493   -8.4809  -44.0849 H         1 UNK         0.0600 
    174 H174        1.7982  -10.7628  -41.3486 H         1 UNK         0.3000 
    175 H175        3.6496  -13.3124  -39.9421 H         1 UNK         0.0600 
    176 H176        4.6682  -11.5405  -38.4932 H         1 UNK         0.0600 
    177 H177        3.0999  -10.7568  -38.3445 H         1 UNK         0.0600 
    178 H178        3.3553  -12.3696  -37.6758 H         1 UNK         0.0600 
    179 H179        1.2674  -12.3957  -38.9171 H         1 UNK         0.3000 
    180 H180       -0.5329  -13.8053  -39.3585 H         1 UNK         0.0600 
    181 H181       -1.2973  -11.8373  -41.5883 H         1 UNK         0.0600 
    182 H182       -1.0717  -11.4554  -39.8897 H         1 UNK         0.0600 
    183 H183       -2.4167  -12.4707  -40.3817 H         1 UNK         0.0600 
    184 H184       -1.5308  -14.3001  -42.0532 H         1 UNK         0.3000 
    185 H185       -0.4249  -17.5210  -42.4175 H         1 UNK         0.0600 
    186 H186       -1.9398  -18.2670  -40.5919 H         1 UNK         0.0600 
    187 H187       -3.1730  -17.1256  -41.1130 H         1 UNK         0.0600 
    188 H188       -2.7204  -18.4769  -42.1510 H         1 UNK         0.0600 
    189 H189       -2.7902  -16.0000  -43.2743 H         1 UNK         0.3000 
    190 H190       -0.7409  -21.2985  -45.6042 H         1 UNK         0.3000 
    191 H191       -3.2444  -20.9664  -46.9025 H         1 UNK         0.0600 
    192 H192       -2.1229  -19.2640  -45.4109 H         1 UNK         0.0600 
    193 H193       -3.7886  -19.5773  -44.9388 H         1 UNK         0.0600 
    194 H194       -2.4661  -20.2776  -44.0168 H         1 UNK         0.0600 
    195 H195       -2.3348  -22.8625  -43.9632 H         1 UNK         0.3000 
    196 H196       -4.9031  -23.9144  -43.4123 H         1 UNK         0.0600 
    197 H197       -3.6336  -25.5695  -42.0291 H         1 UNK         0.0600 
    198 H198       -3.0586  -23.9310  -41.7676 H         1 UNK         0.0600 
    199 H199       -2.1279  -25.0426  -42.7709 H         1 UNK         0.0600 
    200 H200       -2.3573  -25.0656  -45.6141 H         1 UNK         0.3000 
    201 H201       -3.6875  -27.5051  -46.3967 H         1 UNK         0.0600 
    202 H202       -1.9485  -27.5283  -48.1741 H         1 UNK         0.0600 
    203 H203       -1.2288  -27.1726  -46.6127 H         1 UNK         0.0600 
    204 H204       -1.4887  -25.8783  -47.7805 H         1 UNK         0.0600 
    205 H205       -4.4689  -24.2753  -47.0046 H         1 UNK         0.3000 
    206 H206       -5.8573  -23.1630  -48.2806 H         1 UNK         0.0600 
    207 H207       -7.4692  -24.9625  -47.6257 H         1 UNK         0.0600 
    208 H208       -7.8459  -24.2759  -49.1973 H         1 UNK         0.0600 
    209 H209       -7.0744  -25.8514  -49.0968 H         1 UNK         0.0600 
    210 H210       -3.3068  -23.6258  -49.3699 H         1 UNK         0.3000 
    211 H211       -3.2337  -24.4302  -52.0486 H         1 UNK         0.0600 
    212 H212       -1.1119  -23.0967  -52.1219 H         1 UNK         0.0600 
    213 H213       -1.2230  -24.0575  -50.6526 H         1 UNK         0.0600 
    214 H214       -1.5484  -22.3245  -50.6030 H         1 UNK         0.0600 
    215 H215       -4.2366  -21.3323  -50.7097 H         1 UNK         0.3000 
    216 H216       -4.2228  -19.6810  -52.9651 H         1 UNK         0.0600 
    217 H217       -4.5991  -18.9220  -50.6046 H         1 UNK         0.0600 
    218 H218       -6.1809  -19.6945  -50.6019 H         1 UNK         0.0600 
    219 H219       -5.8642  -18.3324  -51.6701 H         1 UNK         0.0600 
    220 H220       -6.4648  -22.2948  -52.1910 H         1 UNK         0.3000 
    221 H221       -8.6230  -21.4559  -53.9093 H         1 UNK         0.0600 
    222 H222       -7.9676  -24.2253  -52.7745 H         1 UNK         0.0600 
    223 H223       -8.9187  -22.9921  -51.9460 H         1 UNK         0.0600 
    224 H224       -9.5100  -23.7074  -53.4380 H         1 UNK         0.0600 
    225 H225       -5.5338  -22.9765  -54.5422 H         1 UNK         0.3000 
    226 H226       -6.3144  -24.2554  -57.0460 H         1 UNK         0.0600 
    227 H227       -4.4011  -25.0738  -55.6237 H         1 UNK         0.0600 
    228 H228       -3.9115  -24.6954  -57.2684 H         1 UNK         0.0600 
    229 H229       -3.5270  -23.5804  -55.9675 H         1 UNK         0.0600 
    230 H230       -5.4296  -21.0755  -56.0367 H         1 UNK         0.3000 
    231 H231       -5.2262  -19.0983  -56.9155 H         1 UNK         0.0600 
    232 H232       -6.4639  -20.2510  -59.4691 H         1 UNK         0.0600 
    233 H233       -6.3663  -18.5494  -59.0417 H         1 UNK         0.0600 
    234 H234       -7.3537  -19.6357  -58.0764 H         1 UNK         0.0600 
    235 H235       -3.8111  -21.5624  -58.9711 H         1 UNK         0.3000 
    236 H236       -2.2094  -20.0663  -60.6791 H         1 UNK         0.0600 
    237 H237       -1.6922  -22.8403  -59.4776 H         1 UNK         0.0600 
    238 H238       -2.6515  -22.4955  -60.9165 H         1 UNK         0.0600 
    239 H239       -0.9198  -22.2017  -60.9249 H         1 UNK         0.0600 
    240 H240       -1.6828  -20.5653  -57.2786 H         1 UNK         0.3000 
    241 H241        1.1135  -19.8286  -57.2321 H         1 UNK         0.0600 
    242 H242       -1.7098  -17.8446  -57.8038 H         1 UNK         0.3800 
    243 H243       -0.9163  -16.3439  -57.3962 H         1 UNK         0.3800 
    244 H244        0.3151  -21.1973  -55.4286 H         1 UNK         0.0800 
    245 H245        0.8138  -19.6703  -54.7758 H         1 UNK         0.0800 
    246 H246       -0.6062  -17.8981  -53.9188 H         1 UNK         0.0800 
    247 H247       -2.3009  -17.9941  -53.5397 H         1 UNK         0.0800 
@<TRIPOS>BOND
     1    1    2 1    
     2    1  127 1    
     3    1  128 1    
     4    1  129 1    
     5    2    3 2    
     6    2    4 am   BACKBONE|DICT|INTERRES
     7    4    5 1    
     8    4  130 1    
     9    5    6 1    
    10    5   65 1    
    11    5  131 1    
    12    6    7 1    
    13    6  132 1    
    14    6  133 1    
    15    7    8 1    
    16    8    9 1    
    17    8  134 1    
    18    8  135 1    
    19    9   10 ar   
    20    9   14 ar   
    21   10   11 ar   
    22   10  136 1    
    23   11   12 ar   
    24   11  126 1    
    25   12   13 ar   
    26   12  137 1    
    27   13   14 ar   
    28   13   15 1    
    29   14  138 1    
    30   15   16 1    
    31   15  139 1    
    32   15  140 1    
    33   16   17 1    
    34   17   18 1    
    35   17  141 1    
    36   17  142 1    
    37   18   19 1    
    38   18   67 1    
    39   18  143 1    
    40   19   20 am   BACKBONE|DICT|INTERRES
    41   19  144 1    
    42   20   21 2    
    43   20   22 1    
    44   22   23 1    
    45   22   24 1    
    46   22  145 1    
    47   23  146 1    
    48   23  147 1    
    49   23  148 1    
    50   24   25 am   BACKBONE|DICT|INTERRES
    51   24  149 1    
    52   25   26 2    
    53   25   27 1    
    54   27   28 1    
    55   27   29 1    
    56   27  150 1    
    57   28  151 1    
    58   28  152 1    
    59   28  153 1    
    60   29   30 am   BACKBONE|DICT|INTERRES
    61   29  154 1    
    62   30   31 2    
    63   30   32 1    
    64   32   33 1    
    65   32   34 1    
    66   32  155 1    
    67   33  156 1    
    68   33  157 1    
    69   33  158 1    
    70   34   35 am   BACKBONE|DICT|INTERRES
    71   34  159 1    
    72   35   36 2    
    73   35   37 1    
    74   37   38 1    
    75   37   39 1    
    76   37  160 1    
    77   38  161 1    
    78   38  162 1    
    79   38  163 1    
    80   39   40 am   BACKBONE|DICT|INTERRES
    81   39  164 1    
    82   40   41 2    
    83   40   42 1    
    84   42   43 1    
    85   42   44 1    
    86   42  165 1    
    87   43  166 1    
    88   43  167 1    
    89   43  168 1    
    90   44   45 am   BACKBONE|DICT|INTERRES
    91   44  169 1    
    92   45   46 2    
    93   45   47 1    
    94   47   48 1    
    95   47   49 1    
    96   47  170 1    
    97   48  171 1    
    98   48  172 1    
    99   48  173 1    
   100   49   50 am   BACKBONE|DICT|INTERRES
   101   49  174 1    
   102   50   51 2    
   103   50   52 1    
   104   52   53 1    
   105   52   54 1    
   106   52  175 1    
   107   53  176 1    
   108   53  177 1    
   109   53  178 1    
   110   54   55 am   BACKBONE|DICT|INTERRES
   111   54  179 1    
   112   55   56 2    
   113   55   57 1    
   114   57   58 1    
   115   57   59 1    
   116   57  180 1    
   117   58  181 1    
   118   58  182 1    
   119   58  183 1    
   120   59   60 am   BACKBONE|DICT|INTERRES
   121   59  184 1    
   122   60   61 2    
   123   60   62 1    
   124   62   63 1    
   125   62   64 1    
   126   62  185 1    
   127   63  186 1    
   128   63  187 1    
   129   63  188 1    
   130   64   65 am   BACKBONE|DICT|INTERRES
   131   64  189 1    
   132   65   66 2    
   133   67   68 2    
   134   67   69 am   BACKBONE|DICT|INTERRES
   135   69   70 1    
   136   69  190 1    
   137   70   71 1    
   138   70   72 1    
   139   70  191 1    
   140   71  192 1    
   141   71  193 1    
   142   71  194 1    
   143   72   73 2    
   144   72   74 am   BACKBONE|DICT|INTERRES
   145   74   75 1    
   146   74  195 1    
   147   75   76 1    
   148   75   77 1    
   149   75  196 1    
   150   76  197 1    
   151   76  198 1    
   152   76  199 1    
   153   77   78 2    
   154   77   79 am   BACKBONE|DICT|INTERRES
   155   79   80 1    
   156   79  200 1    
   157   80   81 1    
   158   80   82 1    
   159   80  201 1    
   160   81  202 1    
   161   81  203 1    
   162   81  204 1    
   163   82   83 2    
   164   82   84 am   BACKBONE|DICT|INTERRES
   165   84   85 1    
   166   84  205 1    
   167   85   86 1    
   168   85   87 1    
   169   85  206 1    
   170   86  207 1    
   171   86  208 1    
   172   86  209 1    
   173   87   88 2    
   174   87   89 am   BACKBONE|DICT|INTERRES
   175   89   90 1    
   176   89  210 1    
   177   90   91 1    
   178   90   92 1    
   179   90  211 1    
   180   91  212 1    
   181   91  213 1    
   182   91  214 1    
   183   92   93 2    
   184   92   94 am   BACKBONE|DICT|INTERRES
   185   94   95 1    
   186   94  215 1    
   187   95   96 1    
   188   95   97 1    
   189   95  216 1    
   190   96  217 1    
   191   96  218 1    
   192   96  219 1    
   193   97   98 2    
   194   97   99 am   BACKBONE|DICT|INTERRES
   195   99  100 1    
   196   99  220 1    
   197  100  101 1    
   198  100  102 1    
   199  100  221 1    
   200  101  222 1    
   201  101  223 1    
   202  101  224 1    
   203  102  103 2    
   204  102  104 am   BACKBONE|DICT|INTERRES
   205  104  105 1    
   206  104  225 1    
   207  105  106 1    
   208  105  107 1    
   209  105  226 1    
   210  106  227 1    
   211  106  228 1    
   212  106  229 1    
   213  107  108 2    
   214  107  109 am   BACKBONE|DICT|INTERRES
   215  109  110 1    
   216  109  230 1    
   217  110  111 1    
   218  110  112 1    
   219  110  231 1    
   220  111  232 1    
   221  111  233 1    
   222  111  234 1    
   223  112  113 2    
   224  112  114 am   BACKBONE|DICT|INTERRES
   225  114  115 1    
   226  114  235 1    
   227  115  116 1    
   228  115  117 1    
   229  115  236 1    
   230  116  237 1    
   231  116  238 1    
   232  116  239 1    
   233  117  118 2    
   234  117  119 am   BACKBONE|DICT|INTERRES
   235  119  120 1    
   236  119  240 1    
   237  120  121 1    
   238  120  124 1    
   239  120  241 1    
   240  121  122 am   BACKBONE|DICT|INTERRES
   241  121  123 2    
   242  122  242 1    
   243  122  243 1    
   244  124  125 1    
   245  124  244 1    
   246  124  245 1    
   247  125  126 1    
   248  126  246 1    
   249  126  247 1    
@<TRIPOS>SUBSTRUCTURE
     1 UNK         1 GROUP             0       ****    0 ROOT    
