@<TRIPOS>MOLECULE
3R540
247   249    1
SMALL
USER_CHARGES


@<TRIPOS>ATOM
      1 CA          2.9514  -12.2026  -45.8194 C.3       0 UNK        -0.1800 
      2 C           1.8416  -12.8148  -46.6591 C.2       0 UNK         0.5000 
      3 O           0.8132  -13.2251  -46.1133 O.2       0 UNK        -0.5000 
      4 N           2.0501  -12.8735  -47.9806 N.am      1 UNK        -0.5000 
      5 CA          1.1863  -13.4694  -49.0119 C.3       1 UNK         0.1400 
      6 C6          1.9617  -13.6522  -50.3430 C.3       23 UNK        -0.0398 
      7 S7          3.3990  -14.7676  -50.1798 S.3       23 UNK        -0.2404 
      8 C8          2.8556  -16.2198  -51.1349 C.3       23 UNK        -0.0205 
      9 C9          1.8802  -17.0875  -50.3537 C.ar      23 UNK        -0.0193 
     10 C10         0.5056  -16.8302  -50.4022 C.ar      23 UNK        -0.1150 
     11 C11        -0.3929  -17.6387  -49.7012 C.ar      23 UNK        -0.0193 
     12 C12         0.0943  -18.7155  -48.9606 C.ar      23 UNK        -0.1150 
     13 C13         1.4615  -18.9933  -48.9115 C.ar      23 UNK        -0.0193 
     14 C14         2.3530  -18.1696  -49.6033 C.ar      23 UNK        -0.1150 
     15 C15         1.9536  -20.1935  -48.1200 C.3       23 UNK        -0.0205 
     16 S16         1.4933  -21.7358  -48.9641 S.3       23 UNK        -0.2404 
     17 C17         1.5638  -22.9523  -47.6013 C.3       23 UNK        -0.0398 
     18 CA          0.3925  -22.9940  -46.5669 C.3       11 UNK         0.1400 
     19 N           0.8326  -22.5187  -45.2491 N.am      11 UNK        -0.5000 
     20 C           0.1934  -22.7254  -44.0888 C.2       10 UNK         0.5000 
     21 O          -0.8989  -23.2879  -44.0168 O.2       10 UNK        -0.5000 
     22 CA          0.8358  -22.1641  -42.8045 C.3       10 UNK         0.1400 
     23 CB          1.0841  -23.2622  -41.7522 C.3       10 UNK        -0.1800 
     24 N           2.0303  -21.3400  -43.0354 N.am      10 UNK        -0.5000 
     25 C           3.2632  -21.7239  -43.3972 C.2       9 UNK         0.5000 
     26 O           3.5960  -22.8951  -43.5727 O.2       9 UNK        -0.5000 
     27 CA          4.2903  -20.6083  -43.6485 C.3       9 UNK         0.1400 
     28 CB          4.2559  -20.1757  -45.1240 C.3       9 UNK        -0.1800 
     29 N           4.0541  -19.4330  -42.8049 N.am      9 UNK        -0.5000 
     30 C           4.9648  -18.8958  -41.9830 C.2       8 UNK         0.5000 
     31 O           6.0960  -19.3550  -41.8178 O.2       8 UNK        -0.5000 
     32 CA          4.5629  -17.6188  -41.2227 C.3       8 UNK         0.1400 
     33 CB          4.8721  -16.3705  -42.0637 C.3       8 UNK        -0.1800 
     34 N           3.1597  -17.5829  -40.8105 N.am      8 UNK        -0.5000 
     35 C           2.6417  -18.3225  -39.8194 C.2       7 UNK         0.5000 
     36 O           3.2682  -19.1935  -39.2154 O.2       7 UNK        -0.5000 
     37 CA          1.1852  -18.0287  -39.4248 C.3       7 UNK         0.1400 
     38 CB          1.1061  -16.7619  -38.5577 C.3       7 UNK        -0.1800 
     39 N           0.3503  -17.8510  -40.6102 N.am      7 UNK        -0.5000 
     40 C          -0.4937  -18.7733  -41.0892 C.2       6 UNK         0.5000 
     41 O          -0.7245  -19.8444  -40.5286 O.2       6 UNK        -0.5000 
     42 CA         -1.1947  -18.4677  -42.4286 C.3       6 UNK         0.1400 
     43 CB         -2.6297  -17.9797  -42.1806 C.3       6 UNK        -0.1800 
     44 N          -0.4880  -17.4888  -43.2600 N.am      6 UNK        -0.5000 
     45 C           0.7165  -17.6902  -43.8161 C.2       5 UNK         0.5000 
     46 O           1.3340  -18.7498  -43.7226 O.2       5 UNK        -0.5000 
     47 CA          1.3826  -16.5058  -44.5433 C.3       5 UNK         0.1400 
     48 CB          1.0888  -16.5765  -46.0485 C.3       5 UNK        -0.1800 
     49 N           0.9919  -15.1915  -44.0296 N.am      5 UNK        -0.5000 
     50 C           1.0672  -14.7892  -42.7530 C.2       4 UNK         0.5000 
     51 O           1.5777  -15.4644  -41.8581 O.2       4 UNK        -0.5000 
     52 CA          0.3926  -13.4517  -42.3921 C.3       4 UNK         0.1400 
     53 CB          1.4307  -12.3296  -42.2596 C.3       4 UNK        -0.1800 
     54 N          -0.6740  -13.0297  -43.3100 N.am      4 UNK        -0.5000 
     55 C          -1.7997  -13.7200  -43.5518 C.2       3 UNK         0.5000 
     56 O          -2.0207  -14.8471  -43.1079 O.2       3 UNK        -0.5000 
     57 CA         -2.8434  -13.0442  -44.4488 C.3       3 UNK         0.1400 
     58 CB         -3.5290  -11.8815  -43.7031 C.3       3 UNK        -0.1800 
     59 N          -2.2421  -12.5878  -45.7031 N.am      3 UNK        -0.5000 
     60 C          -2.9459  -12.2562  -46.7977 C.2       2 UNK         0.5000 
     61 O          -4.1754  -12.2993  -46.8551 O.2       2 UNK        -0.5000 
     62 CA         -2.1638  -11.8168  -48.0459 C.3       2 UNK         0.1400 
     63 CB         -1.9541  -10.2918  -48.0506 C.3       2 UNK        -0.1800 
     64 N          -0.8815  -12.5057  -48.1284 N.am      2 UNK        -0.5000 
     65 C          -0.1348  -12.6862  -49.2181 C.2       1 UNK         0.5000 
     66 O          -0.4475  -12.2614  -50.3320 O.2       1 UNK        -0.5000 
     67 C          -0.9346  -22.3384  -47.0245 C.2       11 UNK         0.5000 
     68 O          -1.6680  -22.9346  -47.8148 O.2       11 UNK        -0.5000 
     69 N          -1.2462  -21.1489  -46.4846 N.am      12 UNK        -0.5000 
     70 CA         -2.4853  -20.4072  -46.7282 C.3       12 UNK         0.1400 
     71 CB         -2.3735  -19.0098  -46.1013 C.3       12 UNK        -0.1800 
     72 C          -3.7431  -21.1287  -46.2113 C.2       12 UNK         0.5000 
     73 O          -4.8169  -20.9305  -46.7775 O.2       12 UNK        -0.5000 
     74 N          -3.5920  -21.9954  -45.1971 N.am      13 UNK        -0.5000 
     75 CA         -4.6656  -22.8501  -44.6792 C.3       13 UNK         0.1400 
     76 CB         -4.2148  -23.4878  -43.3568 C.3       13 UNK        -0.1800 
     77 C          -5.1042  -23.9355  -45.6844 C.2       13 UNK         0.5000 
     78 O          -6.2495  -24.3840  -45.6318 O.2       13 UNK        -0.5000 
     79 N          -4.1960  -24.3099  -46.5952 N.am      14 UNK        -0.5000 
     80 CA         -4.4389  -25.2100  -47.7214 C.3       14 UNK         0.1400 
     81 CB         -3.2595  -26.1938  -47.8143 C.3       14 UNK        -0.1800 
     82 C          -4.6034  -24.4376  -49.0462 C.2       14 UNK         0.5000 
     83 O          -4.6904  -25.0732  -50.0968 O.2       14 UNK        -0.5000 
     84 N          -4.5945  -23.0952  -48.9915 N.am      15 UNK        -0.5000 
     85 CA         -4.6125  -22.1520  -50.1162 C.3       15 UNK         0.1400 
     86 CB         -6.0117  -22.1134  -50.7623 C.3       15 UNK        -0.1800 
     87 C          -3.4831  -22.4107  -51.1364 C.2       15 UNK         0.5000 
     88 O          -3.7251  -22.3851  -52.3427 O.2       15 UNK        -0.5000 
     89 N          -2.2787  -22.7097  -50.6249 N.am      16 UNK        -0.5000 
     90 CA         -1.0765  -23.0837  -51.3780 C.3       16 UNK         0.1400 
     91 CB         -0.5111  -21.8673  -52.1382 C.3       16 UNK        -0.1800 
     92 C          -1.3055  -24.3180  -52.2780 C.2       16 UNK         0.5000 
     93 O          -0.9372  -24.3102  -53.4536 O.2       16 UNK        -0.5000 
     94 N          -1.9327  -25.3467  -51.6878 N.am      17 UNK        -0.5000 
     95 CA         -2.3849  -26.5951  -52.3092 C.3       17 UNK         0.1400 
     96 CB         -1.2040  -27.4051  -52.8861 C.3       17 UNK        -0.1800 
     97 C          -3.5265  -26.3562  -53.3187 C.2       17 UNK         0.5000 
     98 O          -3.4462  -26.7912  -54.4692 O.2       17 UNK        -0.5000 
     99 N          -4.5792  -25.6780  -52.8393 N.am      18 UNK        -0.5000 
    100 CA        -5.8418  -25.3779  -53.5211 C.3       18 UNK         0.1400 
    101 CB        -6.6499  -26.6729  -53.7479 C.3       18 UNK        -0.1800 
    102 C         -5.6778  -24.5354  -54.8035 C.2       18 UNK         0.5000 
    103 O         -6.3726  -24.7768  -55.7935 O.2       18 UNK        -0.5000 
    104 N         -4.7710  -23.5533  -54.7651 N.am      19 UNK        -0.5000 
    105 CA        -4.5624  -22.5854  -55.8359 C.3       19 UNK         0.1400 
    106 CB        -3.0829  -22.1780  -55.8536 C.3       19 UNK        -0.1800 
    107 C         -5.4756  -21.3673  -55.6180 C.2       19 UNK         0.5000 
    108 O         -5.6691  -20.9387  -54.4769 O.2       19 UNK        -0.5000 
    109 N         -6.0151  -20.8210  -56.7158 N.am      20 UNK        -0.5000 
    110 CA        -6.9032  -19.6562  -56.7277 C.3       20 UNK         0.1400 
    111 CB        -7.4096  -19.4208  -58.1598 C.3       20 UNK        -0.1800 
    112 C         -6.1924  -18.4087  -56.1738 C.2       20 UNK         0.5000 
    113 O         -5.2531  -17.9179  -56.8039 O.2       20 UNK        -0.5000 
    114 N         -6.6058  -17.9732  -54.9744 N.am      21 UNK        -0.5000 
    115 CA        -6.0045  -16.8980  -54.1724 C.3       21 UNK         0.1400 
    116 CB        -6.2810  -15.5254  -54.8211 C.3       21 UNK        -0.1800 
    117 C         -4.5046  -17.1306  -53.8730 C.2       21 UNK         0.5000 
    118 O         -3.7294  -16.1740  -53.8306 O.2       21 UNK        -0.5000 
    119 N         -4.1282  -18.4068  -53.7080 N.am      22 UNK        -0.5000 
    120 CA        -2.7488  -18.9092  -53.5889 C.3       22 UNK         0.1400 
    121 C         -1.9171  -18.8420  -54.9085 C.2       22 UNK         0.5000 
    122 N         -2.4949  -18.5277  -56.0626 N.am      22 UNK        -0.7600 
    123 O         -0.7200  -19.1134  -54.8989 O.2       22 UNK        -0.5000 
    124 C124       -1.9593  -18.3282  -52.3828 C.3       23 UNK        -0.0398 
    125 S125       -2.7676  -18.6017  -50.7706 S.3       23 UNK        -0.2404 
    126 C126       -1.8903  -17.3684  -49.7564 C.3       23 UNK        -0.0205 
    127 H127        3.8312  -11.9686  -46.4191 H         1 UNK         0.0600 
    128 H128        3.2527  -12.8979  -45.0359 H         1 UNK         0.0600 
    129 H129        2.6032  -11.2811  -45.3537 H         1 UNK         0.0600 
    130 H130        2.9185  -12.5020  -48.3377 H         1 UNK         0.3000 
    131 H131        0.8967  -14.4616  -48.6597 H         1 UNK         0.0600 
    132 H132        1.3072  -14.0300  -51.1290 H         1 UNK         0.0800 
    133 H133        2.3231  -12.6876  -50.7034 H         1 UNK         0.0800 
    134 H134        2.4127  -15.9045  -52.0809 H         1 UNK         0.0800 
    135 H135        3.7359  -16.8069  -51.4009 H         1 UNK         0.0800 
    136 H136        0.1314  -16.0079  -50.9942 H         1 UNK         0.1150 
    137 H137       -0.5956  -19.3622  -48.4456 H         1 UNK         0.1150 
    138 H138        3.4131  -18.3783  -49.5708 H         1 UNK         0.1150 
    139 H139        3.0362  -20.1608  -47.9895 H         1 UNK         0.0800 
    140 H140        1.5143  -20.1646  -47.1226 H         1 UNK         0.0800 
    141 H141        2.5294  -22.8540  -47.1026 H         1 UNK         0.0800 
    142 H142        1.6122  -23.9264  -48.0904 H         1 UNK         0.0800 
    143 H143        0.1469  -24.0489  -46.4239 H         1 UNK         0.0600 
    144 H144        1.7253  -22.0517  -45.2098 H         1 UNK         0.3000 
    145 H145        0.0927  -21.4864  -42.3884 H         1 UNK         0.0600 
    146 H146        1.5179  -22.8450  -40.8433 H         1 UNK         0.0600 
    147 H147        0.1487  -23.7474  -41.4710 H         1 UNK         0.0600 
    148 H148        1.7523  -24.0406  -42.1203 H         1 UNK         0.0600 
    149 H149        1.8417  -20.3408  -43.0469 H         1 UNK         0.3000 
    150 H150        5.2731  -21.0389  -43.4463 H         1 UNK         0.0600 
    151 H151        4.4014  -21.0281  -45.7890 H         1 UNK         0.0600 
    152 H152        5.0480  -19.4583  -45.3392 H         1 UNK         0.0600 
    153 H153        3.3063  -19.7084  -45.3855 H         1 UNK         0.0600 
    154 H154        3.1440  -18.9951  -42.8831 H         1 UNK         0.3000 
    155 H155        5.1765  -17.5706  -40.3204 H         1 UNK         0.0600 
    156 H156        5.9257  -16.3394  -42.3443 H         1 UNK         0.0600 
    157 H157        4.6565  -15.4573  -41.5086 H         1 UNK         0.0600 
    158 H158        4.2878  -16.3477  -42.9829 H         1 UNK         0.0600 
    159 H159        2.5872  -16.8520  -41.2257 H         1 UNK         0.3000 
    160 H160        0.8270  -18.8669  -38.8234 H         1 UNK         0.0600 
    161 H161        1.4525  -15.8782  -39.0950 H         1 UNK         0.0600 
    162 H162        1.7199  -16.8635  -37.6618 H         1 UNK         0.0600 
    163 H163        0.0832  -16.5740  -38.2313 H         1 UNK         0.0600 
    164 H164        0.5037  -17.0026  -41.1433 H         1 UNK         0.3000 
    165 H165       -1.2438  -19.4058  -42.9840 H         1 UNK         0.0600 
    166 H166       -3.1512  -17.7787  -43.1163 H         1 UNK         0.0600 
    167 H167       -3.2091  -18.7287  -41.6393 H         1 UNK         0.0600 
    168 H168       -2.6436  -17.0637  -41.5887 H         1 UNK         0.0600 
    169 H169       -0.9259  -16.5771  -43.3498 H         1 UNK         0.3000 
    170 H170        2.4593  -16.6079  -44.4050 H         1 UNK         0.0600 
    171 H171        1.3226  -17.5648  -46.4440 H         1 UNK         0.0600 
    172 H172        0.0401  -16.3724  -46.2677 H         1 UNK         0.0600 
    173 H173        1.6942  -15.8613  -46.6044 H         1 UNK         0.0600 
    174 H174        0.6206  -14.5366  -44.7106 H         1 UNK         0.3000 
    175 H175       -0.0670  -13.5945  -41.4120 H         1 UNK         0.0600 
    176 H176        1.8738  -12.0772  -43.2206 H         1 UNK         0.0600 
    177 H177        0.9817  -11.4246  -41.8503 H         1 UNK         0.0600 
    178 H178        2.2409  -12.6203  -41.5892 H         1 UNK         0.0600 
    179 H179       -0.5718  -12.1101  -43.7125 H         1 UNK         0.3000 
    180 H180       -3.5986  -13.7980  -44.6825 H         1 UNK         0.0600 
    181 H181       -2.8403  -11.0554  -43.5230 H         1 UNK         0.0600 
    182 H182       -3.9108  -12.2089  -42.7351 H         1 UNK         0.0600 
    183 H183       -4.3773  -11.4905  -44.2643 H         1 UNK         0.0600 
    184 H184       -1.2307  -12.5727  -45.7280 H         1 UNK         0.3000 
    185 H185       -2.7620  -12.0925  -48.9170 H         1 UNK         0.0600 
    186 H186       -2.9056   -9.7661  -47.9620 H         1 UNK         0.0600 
    187 H187       -1.3220   -9.9724  -47.2212 H         1 UNK         0.0600 
    188 H188       -1.4857   -9.9577  -48.9764 H         1 UNK         0.0600 
    189 H189       -0.5037  -12.8821  -47.2632 H         1 UNK         0.3000 
    190 H190       -0.5957  -20.7408  -45.8306 H         1 UNK         0.3000 
    191 H191       -2.6005  -20.2929  -47.8081 H         1 UNK         0.0600 
    192 H192       -1.4828  -18.4815  -46.4393 H         1 UNK         0.0600 
    193 H193       -3.2352  -18.3953  -46.3649 H         1 UNK         0.0600 
    194 H194       -2.3355  -19.0661  -45.0156 H         1 UNK         0.0600 
    195 H195       -2.6709  -22.1441  -44.8039 H         1 UNK         0.3000 
    196 H196       -5.5325  -22.2183  -44.4745 H         1 UNK         0.0600 
    197 H197       -5.0262  -24.0593  -42.9044 H         1 UNK         0.0600 
    198 H198       -3.9083  -22.7305  -42.6350 H         1 UNK         0.0600 
    199 H199       -3.3777  -24.1710  -43.5038 H         1 UNK         0.0600 
    200 H200       -3.2832  -23.8733  -46.5758 H         1 UNK         0.3000 
    201 H201       -5.3539  -25.7839  -47.5631 H         1 UNK         0.0600 
    202 H202       -3.1395  -26.7516  -46.8854 H         1 UNK         0.0600 
    203 H203       -2.3199  -25.6788  -48.0187 H         1 UNK         0.0600 
    204 H204       -3.4152  -26.9236  -48.6099 H         1 UNK         0.0600 
    205 H205       -4.5449  -22.6654  -48.0774 H         1 UNK         0.3000 
    206 H206       -4.4170  -21.1647  -49.6957 H         1 UNK         0.0600 
    207 H207       -6.7756  -21.8582  -50.0282 H         1 UNK         0.0600 
    208 H208       -6.0588  -21.3635  -51.5533 H         1 UNK         0.0600 
    209 H209       -6.2790  -23.0726  -51.2035 H         1 UNK         0.0600 
    210 H210       -2.1804  -22.7416  -49.6127 H         1 UNK         0.3000 
    211 H211       -0.3351  -23.3842  -50.6374 H         1 UNK         0.0600 
    212 H212       -1.1685  -21.5546  -52.9484 H         1 UNK         0.0600 
    213 H213        0.4596  -22.0993  -52.5771 H         1 UNK         0.0600 
    214 H214       -0.3696  -21.0180  -51.4697 H         1 UNK         0.0600 
    215 H215       -2.2366  -25.2123  -50.7340 H         1 UNK         0.3000 
    216 H216       -2.8167  -27.1906  -51.5032 H         1 UNK         0.0600 
    217 H217       -1.5364  -28.3893  -53.2179 H         1 UNK         0.0600 
    218 H218       -0.4286  -27.5604  -52.1360 H         1 UNK         0.0600 
    219 H219       -0.7474  -26.9123  -53.7446 H         1 UNK         0.0600 
    220 H220       -4.5394  -25.3730  -51.8676 H         1 UNK         0.3000 
    221 H221       -6.4148  -24.7585  -52.8312 H         1 UNK         0.0600 
    222 H222       -6.1639  -27.3323  -54.4677 H         1 UNK         0.0600 
    223 H223       -6.7759  -27.2263  -52.8173 H         1 UNK         0.0600 
    224 H224       -7.6477  -26.4513  -54.1285 H         1 UNK         0.0600 
    225 H225       -4.3109  -23.3368  -53.8834 H         1 UNK         0.3000 
    226 H226       -4.7986  -23.0398  -56.8005 H         1 UNK         0.0600 
    227 H227       -2.4443  -23.0337  -56.0734 H         1 UNK         0.0600 
    228 H228       -2.8907  -21.4218  -56.6154 H         1 UNK         0.0600 
    229 H229       -2.7667  -21.7730  -54.8933 H         1 UNK         0.0600 
    230 H230       -5.7842  -21.2108  -57.6180 H         1 UNK         0.3000 
    231 H231       -7.7659  -19.8833  -56.0979 H         1 UNK         0.0600 
    232 H232       -6.5889  -19.2342  -58.8537 H         1 UNK         0.0600 
    233 H233       -8.0758  -18.5580  -58.2002 H         1 UNK         0.0600 
    234 H234       -7.9702  -20.2808  -58.5267 H         1 UNK         0.0600 
    235 H235       -7.3526  -18.4808  -54.5202 H         1 UNK         0.3000 
    236 H236       -6.5102  -16.9145  -53.2060 H         1 UNK         0.0600 
    237 H237       -7.3458  -15.3842  -55.0064 H         1 UNK         0.0600 
    238 H238       -5.9560  -14.7120  -54.1714 H         1 UNK         0.0600 
    239 H239       -5.7576  -15.4144  -55.7712 H         1 UNK         0.0600 
    240 H240       -4.8337  -19.1307  -53.7953 H         1 UNK         0.3000 
    241 H241       -2.8696  -19.9743  -53.3976 H         1 UNK         0.0600 
    242 H242       -1.9300  -18.4999  -56.8959 H         1 UNK         0.3800 
    243 H243       -3.4797  -18.2894  -56.1258 H         1 UNK         0.3800 
    244 H244       -0.9714  -18.7871  -52.3215 H         1 UNK         0.0800 
    245 H245       -1.7819  -17.2613  -52.5204 H         1 UNK         0.0800 
    246 H246       -2.0900  -16.3703  -50.1494 H         1 UNK         0.0800 
    247 H247       -2.2983  -17.3856  -48.7452 H         1 UNK         0.0800 
@<TRIPOS>BOND
     1    1    2 1    
     2    1  127 1    
     3    1  128 1    
     4    1  129 1    
     5    2    3 2    
     6    2    4 am   BACKBONE|DICT|INTERRES
     7    4    5 1    
     8    4  130 1    
     9    5    6 1    
    10    5   65 1    
    11    5  131 1    
    12    6    7 1    
    13    6  132 1    
    14    6  133 1    
    15    7    8 1    
    16    8    9 1    
    17    8  134 1    
    18    8  135 1    
    19    9   10 ar   
    20    9   14 ar   
    21   10   11 ar   
    22   10  136 1    
    23   11   12 ar   
    24   11  126 1    
    25   12   13 ar   
    26   12  137 1    
    27   13   14 ar   
    28   13   15 1    
    29   14  138 1    
    30   15   16 1    
    31   15  139 1    
    32   15  140 1    
    33   16   17 1    
    34   17   18 1    
    35   17  141 1    
    36   17  142 1    
    37   18   19 1    
    38   18   67 1    
    39   18  143 1    
    40   19   20 am   BACKBONE|DICT|INTERRES
    41   19  144 1    
    42   20   21 2    
    43   20   22 1    
    44   22   23 1    
    45   22   24 1    
    46   22  145 1    
    47   23  146 1    
    48   23  147 1    
    49   23  148 1    
    50   24   25 am   BACKBONE|DICT|INTERRES
    51   24  149 1    
    52   25   26 2    
    53   25   27 1    
    54   27   28 1    
    55   27   29 1    
    56   27  150 1    
    57   28  151 1    
    58   28  152 1    
    59   28  153 1    
    60   29   30 am   BACKBONE|DICT|INTERRES
    61   29  154 1    
    62   30   31 2    
    63   30   32 1    
    64   32   33 1    
    65   32   34 1    
    66   32  155 1    
    67   33  156 1    
    68   33  157 1    
    69   33  158 1    
    70   34   35 am   BACKBONE|DICT|INTERRES
    71   34  159 1    
    72   35   36 2    
    73   35   37 1    
    74   37   38 1    
    75   37   39 1    
    76   37  160 1    
    77   38  161 1    
    78   38  162 1    
    79   38  163 1    
    80   39   40 am   BACKBONE|DICT|INTERRES
    81   39  164 1    
    82   40   41 2    
    83   40   42 1    
    84   42   43 1    
    85   42   44 1    
    86   42  165 1    
    87   43  166 1    
    88   43  167 1    
    89   43  168 1    
    90   44   45 am   BACKBONE|DICT|INTERRES
    91   44  169 1    
    92   45   46 2    
    93   45   47 1    
    94   47   48 1    
    95   47   49 1    
    96   47  170 1    
    97   48  171 1    
    98   48  172 1    
    99   48  173 1    
   100   49   50 am   BACKBONE|DICT|INTERRES
   101   49  174 1    
   102   50   51 2    
   103   50   52 1    
   104   52   53 1    
   105   52   54 1    
   106   52  175 1    
   107   53  176 1    
   108   53  177 1    
   109   53  178 1    
   110   54   55 am   BACKBONE|DICT|INTERRES
   111   54  179 1    
   112   55   56 2    
   113   55   57 1    
   114   57   58 1    
   115   57   59 1    
   116   57  180 1    
   117   58  181 1    
   118   58  182 1    
   119   58  183 1    
   120   59   60 am   BACKBONE|DICT|INTERRES
   121   59  184 1    
   122   60   61 2    
   123   60   62 1    
   124   62   63 1    
   125   62   64 1    
   126   62  185 1    
   127   63  186 1    
   128   63  187 1    
   129   63  188 1    
   130   64   65 am   BACKBONE|DICT|INTERRES
   131   64  189 1    
   132   65   66 2    
   133   67   68 2    
   134   67   69 am   BACKBONE|DICT|INTERRES
   135   69   70 1    
   136   69  190 1    
   137   70   71 1    
   138   70   72 1    
   139   70  191 1    
   140   71  192 1    
   141   71  193 1    
   142   71  194 1    
   143   72   73 2    
   144   72   74 am   BACKBONE|DICT|INTERRES
   145   74   75 1    
   146   74  195 1    
   147   75   76 1    
   148   75   77 1    
   149   75  196 1    
   150   76  197 1    
   151   76  198 1    
   152   76  199 1    
   153   77   78 2    
   154   77   79 am   BACKBONE|DICT|INTERRES
   155   79   80 1    
   156   79  200 1    
   157   80   81 1    
   158   80   82 1    
   159   80  201 1    
   160   81  202 1    
   161   81  203 1    
   162   81  204 1    
   163   82   83 2    
   164   82   84 am   BACKBONE|DICT|INTERRES
   165   84   85 1    
   166   84  205 1    
   167   85   86 1    
   168   85   87 1    
   169   85  206 1    
   170   86  207 1    
   171   86  208 1    
   172   86  209 1    
   173   87   88 2    
   174   87   89 am   BACKBONE|DICT|INTERRES
   175   89   90 1    
   176   89  210 1    
   177   90   91 1    
   178   90   92 1    
   179   90  211 1    
   180   91  212 1    
   181   91  213 1    
   182   91  214 1    
   183   92   93 2    
   184   92   94 am   BACKBONE|DICT|INTERRES
   185   94   95 1    
   186   94  215 1    
   187   95   96 1    
   188   95   97 1    
   189   95  216 1    
   190   96  217 1    
   191   96  218 1    
   192   96  219 1    
   193   97   98 2    
   194   97   99 am   BACKBONE|DICT|INTERRES
   195   99  100 1    
   196   99  220 1    
   197  100  101 1    
   198  100  102 1    
   199  100  221 1    
   200  101  222 1    
   201  101  223 1    
   202  101  224 1    
   203  102  103 2    
   204  102  104 am   BACKBONE|DICT|INTERRES
   205  104  105 1    
   206  104  225 1    
   207  105  106 1    
   208  105  107 1    
   209  105  226 1    
   210  106  227 1    
   211  106  228 1    
   212  106  229 1    
   213  107  108 2    
   214  107  109 am   BACKBONE|DICT|INTERRES
   215  109  110 1    
   216  109  230 1    
   217  110  111 1    
   218  110  112 1    
   219  110  231 1    
   220  111  232 1    
   221  111  233 1    
   222  111  234 1    
   223  112  113 2    
   224  112  114 am   BACKBONE|DICT|INTERRES
   225  114  115 1    
   226  114  235 1    
   227  115  116 1    
   228  115  117 1    
   229  115  236 1    
   230  116  237 1    
   231  116  238 1    
   232  116  239 1    
   233  117  118 2    
   234  117  119 am   BACKBONE|DICT|INTERRES
   235  119  120 1    
   236  119  240 1    
   237  120  121 1    
   238  120  124 1    
   239  120  241 1    
   240  121  122 am   BACKBONE|DICT|INTERRES
   241  121  123 2    
   242  122  242 1    
   243  122  243 1    
   244  124  125 1    
   245  124  244 1    
   246  124  245 1    
   247  125  126 1    
   248  126  246 1    
   249  126  247 1    
@<TRIPOS>SUBSTRUCTURE
     1 UNK         1 GROUP             0       ****    0 ROOT    
