@<TRIPOS>MOLECULE
3R540
247   249    1
SMALL
USER_CHARGES


@<TRIPOS>ATOM
      1 CA          1.0013  -13.8263  -43.5994 C.3       0 UNK        -0.1800 
      2 C          -0.0835  -12.8431  -44.0146 C.2       0 UNK         0.5000 
      3 O          -1.0981  -12.7213  -43.3279 O.2       0 UNK        -0.5000 
      4 N           0.1229  -12.1352  -45.1319 N.am      1 UNK        -0.5000 
      5 CA         -0.8251  -11.1892  -45.7369 C.3       1 UNK         0.1400 
      6 C6         -0.6116  -11.0512  -47.2689 C.3       23 UNK        -0.0398 
      7 S7         -0.5984  -12.6516  -48.1431 S.3       23 UNK        -0.2404 
      8 C8         -2.3757  -12.9347  -48.3937 C.3       23 UNK        -0.0205 
      9 C9         -2.6175  -14.3195  -48.9698 C.ar      23 UNK        -0.0193 
     10 C10        -2.7566  -14.4979  -50.3491 C.ar      23 UNK        -0.1150 
     11 C11        -2.9469  -15.7760  -50.8831 C.ar      23 UNK        -0.0193 
     12 C12        -3.0063  -16.8773  -50.0245 C.ar      23 UNK        -0.1150 
     13 C13        -2.8760  -16.7105  -48.6433 C.ar      23 UNK        -0.0193 
     14 C14        -2.6838  -15.4283  -48.1211 C.ar      23 UNK        -0.1150 
     15 C15        -2.9163  -17.9166  -47.7198 C.3       23 UNK        -0.0205 
     16 S16        -4.5875  -18.6135  -47.5891 S.3       23 UNK        -0.2404 
     17 C17        -4.4059  -19.7429  -46.1686 C.3       23 UNK        -0.0398 
     18 CA         -3.9164  -21.1502  -46.5885 C.3       11 UNK         0.1400 
     19 N          -2.4636  -21.2167  -46.7858 N.am      11 UNK        -0.5000 
     20 C          -1.8212  -22.2538  -47.3437 C.2       10 UNK         0.5000 
     21 O          -2.3935  -23.2215  -47.8443 O.2       10 UNK        -0.5000 
     22 CA         -0.2846  -22.2362  -47.2836 C.3       10 UNK         0.1400 
     23 CB          0.3086  -21.4859  -48.4827 C.3       10 UNK        -0.1800 
     24 N           0.2009  -21.6435  -46.0377 N.am      10 UNK        -0.5000 
     25 C           0.1901  -22.2802  -44.8575 C.2       9 UNK         0.5000 
     26 O          -0.2090  -23.4352  -44.7153 O.2       9 UNK        -0.5000 
     27 CA          0.6691  -21.4922  -43.6229 C.3       9 UNK         0.1400 
     28 CB          2.1830  -21.6620  -43.4310 C.3       9 UNK        -0.1800 
     29 N           0.3481  -20.0666  -43.6885 N.am      9 UNK        -0.5000 
     30 C          -0.8968  -19.5676  -43.7037 C.2       8 UNK         0.5000 
     31 O          -1.9103  -20.2616  -43.6269 O.2       8 UNK        -0.5000 
     32 CA         -1.0437  -18.0464  -43.9011 C.3       8 UNK         0.1400 
     33 CB         -1.1320  -17.3343  -42.5437 C.3       8 UNK        -0.1800 
     34 N           0.0293  -17.4377  -44.6903 N.am      8 UNK        -0.5000 
     35 C           0.4138  -17.8053  -45.9213 C.2       7 UNK         0.5000 
     36 O          -0.1032  -18.7268  -46.5518 O.2       7 UNK        -0.5000 
     37 CA          1.6075  -17.0465  -46.5275 C.3       7 UNK         0.1400 
     38 CB          1.1030  -15.8822  -47.3921 C.3       7 UNK        -0.1800 
     39 N           2.5545  -16.5267  -45.5348 N.am      7 UNK        -0.5000 
     40 C           3.2427  -17.2546  -44.6415 C.2       6 UNK         0.5000 
     41 O           3.0970  -18.4705  -44.5061 O.2       6 UNK        -0.5000 
     42 CA          4.2179  -16.4965  -43.7121 C.3       6 UNK         0.1400 
     43 CB          5.5264  -17.2791  -43.4786 C.3       6 UNK        -0.1800 
     44 N           4.4977  -15.1086  -44.1127 N.am      6 UNK        -0.5000 
     45 C           5.1383  -14.6776  -45.2125 C.2       5 UNK         0.5000 
     46 O           5.5828  -15.4214  -46.0864 O.2       5 UNK        -0.5000 
     47 CA          5.2803  -13.1518  -45.3804 C.3       5 UNK         0.1400 
     48 CB          4.2464  -12.6257  -46.3897 C.3       5 UNK        -0.1800 
     49 N           5.1154  -12.4245  -44.1207 N.am      5 UNK        -0.5000 
     50 C           6.0554  -12.2726  -43.1807 C.2       4 UNK         0.5000 
     51 O           7.2011  -12.7103  -43.2995 O.2       4 UNK        -0.5000 
     52 CA          5.6401  -11.5090  -41.8984 C.3       4 UNK         0.1400 
     53 CB          6.8491  -11.1108  -41.0321 C.3       4 UNK        -0.1800 
     54 N           4.8300  -10.3093  -42.1482 N.am      4 UNK        -0.5000 
     55 C           3.5456  -10.2908  -42.5227 C.2       3 UNK         0.5000 
     56 O           2.8943  -11.3115  -42.7672 O.2       3 UNK        -0.5000 
     57 CA          2.8911   -8.9126  -42.6912 C.3       3 UNK         0.1400 
     58 CB          3.3908   -8.2185  -43.9718 C.3       3 UNK        -0.1800 
     59 N           1.4513   -9.1173  -42.7679 N.am      3 UNK        -0.5000 
     60 C           0.4893   -8.2080  -42.5843 C.2       2 UNK         0.5000 
     61 O           0.7102   -7.0324  -42.2878 O.2       2 UNK        -0.5000 
     62 CA         -0.9616   -8.7144  -42.7584 C.3       2 UNK         0.1400 
     63 CB         -1.9562   -7.5881  -43.1100 C.3       2 UNK        -0.1800 
     64 N          -1.0685   -9.8321  -43.7082 N.am      2 UNK        -0.5000 
     65 C          -0.7713   -9.8224  -45.0166 C.2       1 UNK         0.5000 
     66 O          -0.4246   -8.8126  -45.6317 O.2       1 UNK        -0.5000 
     67 C          -4.3841  -22.2295  -45.5921 C.2       11 UNK         0.5000 
     68 O          -5.3454  -22.9405  -45.8890 O.2       11 UNK        -0.5000 
     69 N          -3.6638  -22.3714  -44.4679 N.am      12 UNK        -0.5000 
     70 CA         -3.8849  -23.4021  -43.4492 C.3       12 UNK         0.1400 
     71 CB         -2.9444  -23.1612  -42.2595 C.3       12 UNK        -0.1800 
     72 C          -3.7242  -24.8358  -43.9900 C.2       12 UNK         0.5000 
     73 O          -4.4740  -25.7237  -43.5842 O.2       12 UNK        -0.5000 
     74 N          -2.8112  -25.0244  -44.9525 N.am      13 UNK        -0.5000 
     75 CA         -2.6173  -26.2516  -45.7298 C.3       13 UNK         0.1400 
     76 CB         -1.1760  -26.2756  -46.2695 C.3       13 UNK        -0.1800 
     77 C          -3.6660  -26.4244  -46.8548 C.2       13 UNK         0.5000 
     78 O          -3.3242  -26.8813  -47.9468 O.2       13 UNK        -0.5000 
     79 N          -4.9237  -26.0552  -46.5719 N.am      14 UNK        -0.5000 
     80 CA         -6.1090  -26.1500  -47.4285 C.3       14 UNK         0.1400 
     81 CB         -6.5300  -27.6262  -47.5854 C.3       14 UNK        -0.1800 
     82 C          -5.9431  -25.4297  -48.7819 C.2       14 UNK         0.5000 
     83 O          -6.2826  -25.9967  -49.8203 O.2       14 UNK        -0.5000 
     84 N          -5.3973  -24.2047  -48.7470 N.am      15 UNK        -0.5000 
     85 CA         -5.0608  -23.3680  -49.9079 C.3       15 UNK         0.1400 
     86 CB         -6.3390  -22.8657  -50.6106 C.3       15 UNK        -0.1800 
     87 C          -4.0855  -24.0802  -50.8672 C.2       15 UNK         0.5000 
     88 O          -4.3741  -24.2300  -52.0568 O.2       15 UNK        -0.5000 
     89 N          -2.9611  -24.5361  -50.2988 N.am      16 UNK        -0.5000 
     90 CA         -1.9014  -25.3270  -50.9282 C.3       16 UNK         0.1400 
     91 CB         -1.1207  -24.4653  -51.9428 C.3       16 UNK        -0.1800 
     92 C          -2.4386  -26.6407  -51.5333 C.2       16 UNK         0.5000 
     93 O          -2.2054  -26.9209  -52.7087 O.2       16 UNK        -0.5000 
     94 N          -3.1883  -27.4016  -50.7225 N.am      17 UNK        -0.5000 
     95 CA         -3.8832  -28.6463  -51.0738 C.3       17 UNK         0.1400 
     96 CB         -2.8687  -29.7862  -51.2997 C.3       17 UNK        -0.1800 
     97 C          -4.8661  -28.4651  -52.2521 C.2       17 UNK         0.5000 
     98 O          -4.8809  -29.2693  -53.1857 O.2       17 UNK        -0.5000 
     99 N          -5.6492  -27.3803  -52.1842 N.am      18 UNK        -0.5000 
    100 CA        -6.6458  -26.9082  -53.1484 C.3       18 UNK         0.1400 
    101 CB        -7.7895  -27.9321  -53.3030 C.3       18 UNK        -0.1800 
    102 C         -6.0735  -26.4522  -54.5085 C.2       18 UNK         0.5000 
    103 O         -6.8506  -26.2323  -55.4395 O.2       18 UNK        -0.5000 
    104 N         -4.7470  -26.2854  -54.6149 N.am      19 UNK        -0.5000 
    105 CA        -4.0796  -25.7916  -55.8227 C.3       19 UNK         0.1400 
    106 CB        -2.6105  -26.2401  -55.8137 C.3       19 UNK        -0.1800 
    107 C         -4.1654  -24.2603  -55.9768 C.2       19 UNK         0.5000 
    108 O         -3.9566  -23.7681  -57.0860 O.2       19 UNK        -0.5000 
    109 N         -4.4626  -23.5569  -54.8722 N.am      20 UNK        -0.5000 
    110 CA        -4.4312  -22.1083  -54.6629 C.3       20 UNK         0.1400 
    111 CB        -5.2423  -21.3259  -55.7146 C.3       20 UNK        -0.1800 
    112 C         -2.9791  -21.6150  -54.5550 C.2       20 UNK         0.5000 
    113 O         -2.2325  -21.6532  -55.5348 O.2       20 UNK        -0.5000 
    114 N         -2.6042  -21.1562  -53.3538 N.am      21 UNK        -0.5000 
    115 CA        -1.2422  -20.7597  -52.9790 C.3       21 UNK         0.1400 
    116 CB        -1.2363  -20.3811  -51.4913 C.3       21 UNK        -0.1800 
    117 C         -0.6406  -19.6194  -53.8253 C.2       21 UNK         0.5000 
    118 O          0.5788  -19.5713  -53.9918 O.2       21 UNK        -0.5000 
    119 N         -1.5045  -18.7446  -54.3525 N.am      22 UNK        -0.5000 
    120 CA        -1.1459  -17.6501  -55.2694 C.3       22 UNK         0.1400 
    121 C         -1.3210  -18.0191  -56.7734 C.2       22 UNK         0.5000 
    122 N         -1.6626  -19.2514  -57.1336 N.am      22 UNK        -0.7600 
    123 O         -1.1274  -17.1720  -57.6412 O.2       22 UNK        -0.5000 
    124 C124       -1.8869  -16.3358  -54.9089 C.3       23 UNK        -0.0398 
    125 S125       -1.4837  -15.7619  -53.2229 S.3       23 UNK        -0.2404 
    126 C126       -3.0847  -15.9672  -52.3852 C.3       23 UNK        -0.0205 
    127 H127        1.8596  -13.7847  -44.2681 H         1 UNK         0.0600 
    128 H128        0.6079  -14.8410  -43.6044 H         1 UNK         0.0600 
    129 H129        1.3457  -13.5997  -42.5904 H         1 UNK         0.0600 
    130 H130        0.9813  -12.2612  -45.6465 H         1 UNK         0.3000 
    131 H131       -1.8352  -11.5768  -45.5887 H         1 UNK         0.0600 
    132 H132        0.3421  -10.5632  -47.4778 H         1 UNK         0.0800 
    133 H133       -1.3807  -10.4138  -47.7089 H         1 UNK         0.0800 
    134 H134       -2.7786  -12.1681  -49.0574 H         1 UNK         0.0800 
    135 H135       -2.9037  -12.8353  -47.4443 H         1 UNK         0.0800 
    136 H136       -2.6994  -13.6450  -51.0111 H         1 UNK         0.1150 
    137 H137       -3.1600  -17.8675  -50.4267 H         1 UNK         0.1150 
    138 H138       -2.5691  -15.2916  -47.0548 H         1 UNK         0.1150 
    139 H139       -2.2362  -18.6807  -48.0979 H         1 UNK         0.0800 
    140 H140       -2.5634  -17.6385  -46.7274 H         1 UNK         0.0800 
    141 H141       -5.3944  -19.7996  -45.7081 H         1 UNK         0.0800 
    142 H142       -3.7555  -19.3028  -45.4126 H         1 UNK         0.0800 
    143 H143       -4.3880  -21.3936  -47.5411 H         1 UNK         0.0600 
    144 H144       -1.9104  -20.4664  -46.3962 H         1 UNK         0.3000 
    145 H145        0.0657  -23.2692  -47.3337 H         1 UNK         0.0600 
    146 H146       -0.0902  -20.4748  -48.5701 H         1 UNK         0.0600 
    147 H147        1.3936  -21.4135  -48.4075 H         1 UNK         0.0600 
    148 H148        0.0854  -22.0138  -49.4098 H         1 UNK         0.0600 
    149 H149        0.4731  -20.6679  -46.0750 H         1 UNK         0.3000 
    150 H150        0.1664  -21.9080  -42.7476 H         1 UNK         0.0600 
    151 H151        2.4490  -22.7157  -43.3370 H         1 UNK         0.0600 
    152 H152        2.5260  -21.1579  -42.5274 H         1 UNK         0.0600 
    153 H153        2.7431  -21.2555  -44.2742 H         1 UNK         0.0600 
    154 H154        1.1297  -19.4329  -43.8009 H         1 UNK         0.3000 
    155 H155       -1.9803  -17.8762  -44.4334 H         1 UNK         0.0600 
    156 H156       -1.3491  -16.2730  -42.6674 H         1 UNK         0.0600 
    157 H157       -0.2026  -17.4250  -41.9802 H         1 UNK         0.0600 
    158 H158       -1.9300  -17.7570  -41.9316 H         1 UNK         0.0600 
    159 H159        0.5385  -16.6887  -44.2487 H         1 UNK         0.3000 
    160 H160        2.1482  -17.7459  -47.1681 H         1 UNK         0.0600 
    161 H161        1.9252  -15.3784  -47.9005 H         1 UNK         0.0600 
    162 H162        0.5725  -15.1404  -46.7939 H         1 UNK         0.0600 
    163 H163        0.4136  -16.2335  -48.1617 H         1 UNK         0.0600 
    164 H164        2.7590  -15.5413  -45.5854 H         1 UNK         0.3000 
    165 H165        3.7076  -16.4277  -42.7505 H         1 UNK         0.0600 
    166 H166        6.0626  -17.4616  -44.4101 H         1 UNK         0.0600 
    167 H167        6.1941  -16.7396  -42.8068 H         1 UNK         0.0600 
    168 H168        5.3270  -18.2501  -43.0237 H         1 UNK         0.0600 
    169 H169        4.1795  -14.4020  -43.4651 H         1 UNK         0.3000 
    170 H170        6.2782  -12.9534  -45.7772 H         1 UNK         0.0600 
    171 H171        3.2248  -12.7883  -46.0471 H         1 UNK         0.0600 
    172 H172        4.3746  -11.5568  -46.5622 H         1 UNK         0.0600 
    173 H173        4.3521  -13.1237  -47.3545 H         1 UNK         0.0600 
    174 H174        4.1962  -12.0423  -43.9177 H         1 UNK         0.3000 
    175 H175        5.0355  -12.2040  -41.3120 H         1 UNK         0.0600 
    176 H176        7.5128  -10.4253  -41.5604 H         1 UNK         0.0600 
    177 H177        6.5308  -10.6258  -40.1090 H         1 UNK         0.0600 
    178 H178        7.4362  -11.9850  -40.7475 H         1 UNK         0.0600 
    179 H179        5.3032   -9.4274  -42.0130 H         1 UNK         0.3000 
    180 H180        3.1253   -8.3036  -41.8159 H         1 UNK         0.0600 
    181 H181        3.1631   -8.8081  -44.8610 H         1 UNK         0.0600 
    182 H182        4.4703   -8.0666  -43.9445 H         1 UNK         0.0600 
    183 H183        2.9317   -7.2378  -44.0970 H         1 UNK         0.0600 
    184 H184        1.1938  -10.0771  -42.9622 H         1 UNK         0.3000 
    185 H185       -1.2549   -9.1165  -41.7877 H         1 UNK         0.0600 
    186 H186       -2.9675   -7.9774  -43.2273 H         1 UNK         0.0600 
    187 H187       -1.9893   -6.8362  -42.3209 H         1 UNK         0.0600 
    188 H188       -1.6832   -7.0776  -44.0338 H         1 UNK         0.0600 
    189 H189       -1.3004  -10.7351  -43.3038 H         1 UNK         0.3000 
    190 H190       -2.9175  -21.7073  -44.2766 H         1 UNK         0.3000 
    191 H191       -4.9127  -23.2975  -43.0960 H         1 UNK         0.0600 
    192 H192       -1.8980  -23.2498  -42.5501 H         1 UNK         0.0600 
    193 H193       -3.0914  -22.1683  -41.8339 H         1 UNK         0.0600 
    194 H194       -3.1265  -23.8860  -41.4652 H         1 UNK         0.0600 
    195 H195       -2.2134  -24.2459  -45.1999 H         1 UNK         0.3000 
    196 H196       -2.7320  -27.1060  -45.0601 H         1 UNK         0.0600 
    197 H197       -0.4504  -26.1665  -45.4634 H         1 UNK         0.0600 
    198 H198       -1.0037  -25.4731  -46.9866 H         1 UNK         0.0600 
    199 H199       -0.9591  -27.2185  -46.7728 H         1 UNK         0.0600 
    200 H200       -5.0895  -25.6847  -45.6443 H         1 UNK         0.3000 
    201 H201       -6.9112  -25.6294  -46.9037 H         1 UNK         0.0600 
    202 H202       -7.4687  -27.7108  -48.1343 H         1 UNK         0.0600 
    203 H203       -6.6802  -28.0980  -46.6145 H         1 UNK         0.0600 
    204 H204       -5.7808  -28.2050  -48.1262 H         1 UNK         0.0600 
    205 H205       -5.1376  -23.8367  -47.8389 H         1 UNK         0.3000 
    206 H206       -4.5301  -22.4943  -49.5311 H         1 UNK         0.0600 
    207 H207       -6.9929  -22.3451  -49.9111 H         1 UNK         0.0600 
    208 H208       -6.9076  -23.6822  -51.0568 H         1 UNK         0.0600 
    209 H209       -6.0948  -22.1647  -51.4091 H         1 UNK         0.0600 
    210 H210       -2.8232  -24.3279  -49.3124 H         1 UNK         0.3000 
    211 H211       -1.2123  -25.6118  -50.1318 H         1 UNK         0.0600 
    212 H212       -0.7185  -23.5711  -51.4678 H         1 UNK         0.0600 
    213 H213       -0.2778  -25.0186  -52.3581 H         1 UNK         0.0600 
    214 H214       -1.7475  -24.1503  -52.7778 H         1 UNK         0.0600 
    215 H215       -3.3115  -27.0939  -49.7584 H         1 UNK         0.3000 
    216 H216       -4.4904  -28.9117  -50.2075 H         1 UNK         0.0600 
    217 H217       -3.3785  -30.7386  -51.4496 H         1 UNK         0.0600 
    218 H218       -2.2456  -29.6070  -52.1764 H         1 UNK         0.0600 
    219 H219       -2.2107  -29.9030  -50.4387 H         1 UNK         0.0600 
    220 H220       -5.5854  -26.8036  -51.3474 H         1 UNK         0.3000 
    221 H221       -7.0731  -26.0107  -52.6989 H         1 UNK         0.0600 
    222 H222       -7.4581  -28.8368  -53.8131 H         1 UNK         0.0600 
    223 H223       -8.1929  -28.2211  -52.3325 H         1 UNK         0.0600 
    224 H224       -8.6138  -27.5154  -53.8828 H         1 UNK         0.0600 
    225 H225       -4.1586  -26.4785  -53.8131 H         1 UNK         0.3000 
    226 H226       -4.5595  -26.2409  -56.6948 H         1 UNK         0.0600 
    227 H227       -2.5224  -27.3147  -55.6521 H         1 UNK         0.0600 
    228 H228       -2.1296  -26.0122  -56.7656 H         1 UNK         0.0600 
    229 H229       -2.0411  -25.7325  -55.0344 H         1 UNK         0.0600 
    230 H230       -4.5658  -24.0853  -54.0098 H         1 UNK         0.3000 
    231 H231       -4.9202  -21.9464  -53.7013 H         1 UNK         0.0600 
    232 H232       -5.3363  -20.2788  -55.4251 H         1 UNK         0.0600 
    233 H233       -6.2502  -21.7282  -55.8156 H         1 UNK         0.0600 
    234 H234       -4.7718  -21.3437  -56.6979 H         1 UNK         0.0600 
    235 H235       -3.2845  -21.1475  -52.6089 H         1 UNK         0.3000 
    236 H236       -0.6014  -21.6333  -53.1136 H         1 UNK         0.0600 
    237 H237       -1.8472  -19.4996  -51.3023 H         1 UNK         0.0600 
    238 H238       -1.6196  -21.1930  -50.8730 H         1 UNK         0.0600 
    239 H239       -0.2249  -20.1552  -51.1516 H         1 UNK         0.0600 
    240 H240       -2.4886  -18.8774  -54.1779 H         1 UNK         0.3000 
    241 H241       -0.0796  -17.4421  -55.1635 H         1 UNK         0.0600 
    242 H242       -1.7950  -19.9926  -56.4521 H         1 UNK         0.3800 
    243 H243       -1.7620  -19.4634  -58.1135 H         1 UNK         0.3800 
    244 H244       -1.6036  -15.5355  -55.5946 H         1 UNK         0.0800 
    245 H245       -2.9653  -16.4596  -55.0187 H         1 UNK         0.0800 
    246 H246       -3.4852  -16.9580  -52.6054 H         1 UNK         0.0800 
    247 H247       -3.7996  -15.2457  -52.7836 H         1 UNK         0.0800 
@<TRIPOS>BOND
     1    1    2 1    
     2    1  127 1    
     3    1  128 1    
     4    1  129 1    
     5    2    3 2    
     6    2    4 am   BACKBONE|DICT|INTERRES
     7    4    5 1    
     8    4  130 1    
     9    5    6 1    
    10    5   65 1    
    11    5  131 1    
    12    6    7 1    
    13    6  132 1    
    14    6  133 1    
    15    7    8 1    
    16    8    9 1    
    17    8  134 1    
    18    8  135 1    
    19    9   10 ar   
    20    9   14 ar   
    21   10   11 ar   
    22   10  136 1    
    23   11   12 ar   
    24   11  126 1    
    25   12   13 ar   
    26   12  137 1    
    27   13   14 ar   
    28   13   15 1    
    29   14  138 1    
    30   15   16 1    
    31   15  139 1    
    32   15  140 1    
    33   16   17 1    
    34   17   18 1    
    35   17  141 1    
    36   17  142 1    
    37   18   19 1    
    38   18   67 1    
    39   18  143 1    
    40   19   20 am   BACKBONE|DICT|INTERRES
    41   19  144 1    
    42   20   21 2    
    43   20   22 1    
    44   22   23 1    
    45   22   24 1    
    46   22  145 1    
    47   23  146 1    
    48   23  147 1    
    49   23  148 1    
    50   24   25 am   BACKBONE|DICT|INTERRES
    51   24  149 1    
    52   25   26 2    
    53   25   27 1    
    54   27   28 1    
    55   27   29 1    
    56   27  150 1    
    57   28  151 1    
    58   28  152 1    
    59   28  153 1    
    60   29   30 am   BACKBONE|DICT|INTERRES
    61   29  154 1    
    62   30   31 2    
    63   30   32 1    
    64   32   33 1    
    65   32   34 1    
    66   32  155 1    
    67   33  156 1    
    68   33  157 1    
    69   33  158 1    
    70   34   35 am   BACKBONE|DICT|INTERRES
    71   34  159 1    
    72   35   36 2    
    73   35   37 1    
    74   37   38 1    
    75   37   39 1    
    76   37  160 1    
    77   38  161 1    
    78   38  162 1    
    79   38  163 1    
    80   39   40 am   BACKBONE|DICT|INTERRES
    81   39  164 1    
    82   40   41 2    
    83   40   42 1    
    84   42   43 1    
    85   42   44 1    
    86   42  165 1    
    87   43  166 1    
    88   43  167 1    
    89   43  168 1    
    90   44   45 am   BACKBONE|DICT|INTERRES
    91   44  169 1    
    92   45   46 2    
    93   45   47 1    
    94   47   48 1    
    95   47   49 1    
    96   47  170 1    
    97   48  171 1    
    98   48  172 1    
    99   48  173 1    
   100   49   50 am   BACKBONE|DICT|INTERRES
   101   49  174 1    
   102   50   51 2    
   103   50   52 1    
   104   52   53 1    
   105   52   54 1    
   106   52  175 1    
   107   53  176 1    
   108   53  177 1    
   109   53  178 1    
   110   54   55 am   BACKBONE|DICT|INTERRES
   111   54  179 1    
   112   55   56 2    
   113   55   57 1    
   114   57   58 1    
   115   57   59 1    
   116   57  180 1    
   117   58  181 1    
   118   58  182 1    
   119   58  183 1    
   120   59   60 am   BACKBONE|DICT|INTERRES
   121   59  184 1    
   122   60   61 2    
   123   60   62 1    
   124   62   63 1    
   125   62   64 1    
   126   62  185 1    
   127   63  186 1    
   128   63  187 1    
   129   63  188 1    
   130   64   65 am   BACKBONE|DICT|INTERRES
   131   64  189 1    
   132   65   66 2    
   133   67   68 2    
   134   67   69 am   BACKBONE|DICT|INTERRES
   135   69   70 1    
   136   69  190 1    
   137   70   71 1    
   138   70   72 1    
   139   70  191 1    
   140   71  192 1    
   141   71  193 1    
   142   71  194 1    
   143   72   73 2    
   144   72   74 am   BACKBONE|DICT|INTERRES
   145   74   75 1    
   146   74  195 1    
   147   75   76 1    
   148   75   77 1    
   149   75  196 1    
   150   76  197 1    
   151   76  198 1    
   152   76  199 1    
   153   77   78 2    
   154   77   79 am   BACKBONE|DICT|INTERRES
   155   79   80 1    
   156   79  200 1    
   157   80   81 1    
   158   80   82 1    
   159   80  201 1    
   160   81  202 1    
   161   81  203 1    
   162   81  204 1    
   163   82   83 2    
   164   82   84 am   BACKBONE|DICT|INTERRES
   165   84   85 1    
   166   84  205 1    
   167   85   86 1    
   168   85   87 1    
   169   85  206 1    
   170   86  207 1    
   171   86  208 1    
   172   86  209 1    
   173   87   88 2    
   174   87   89 am   BACKBONE|DICT|INTERRES
   175   89   90 1    
   176   89  210 1    
   177   90   91 1    
   178   90   92 1    
   179   90  211 1    
   180   91  212 1    
   181   91  213 1    
   182   91  214 1    
   183   92   93 2    
   184   92   94 am   BACKBONE|DICT|INTERRES
   185   94   95 1    
   186   94  215 1    
   187   95   96 1    
   188   95   97 1    
   189   95  216 1    
   190   96  217 1    
   191   96  218 1    
   192   96  219 1    
   193   97   98 2    
   194   97   99 am   BACKBONE|DICT|INTERRES
   195   99  100 1    
   196   99  220 1    
   197  100  101 1    
   198  100  102 1    
   199  100  221 1    
   200  101  222 1    
   201  101  223 1    
   202  101  224 1    
   203  102  103 2    
   204  102  104 am   BACKBONE|DICT|INTERRES
   205  104  105 1    
   206  104  225 1    
   207  105  106 1    
   208  105  107 1    
   209  105  226 1    
   210  106  227 1    
   211  106  228 1    
   212  106  229 1    
   213  107  108 2    
   214  107  109 am   BACKBONE|DICT|INTERRES
   215  109  110 1    
   216  109  230 1    
   217  110  111 1    
   218  110  112 1    
   219  110  231 1    
   220  111  232 1    
   221  111  233 1    
   222  111  234 1    
   223  112  113 2    
   224  112  114 am   BACKBONE|DICT|INTERRES
   225  114  115 1    
   226  114  235 1    
   227  115  116 1    
   228  115  117 1    
   229  115  236 1    
   230  116  237 1    
   231  116  238 1    
   232  116  239 1    
   233  117  118 2    
   234  117  119 am   BACKBONE|DICT|INTERRES
   235  119  120 1    
   236  119  240 1    
   237  120  121 1    
   238  120  124 1    
   239  120  241 1    
   240  121  122 am   BACKBONE|DICT|INTERRES
   241  121  123 2    
   242  122  242 1    
   243  122  243 1    
   244  124  125 1    
   245  124  244 1    
   246  124  245 1    
   247  125  126 1    
   248  126  246 1    
   249  126  247 1    
@<TRIPOS>SUBSTRUCTURE
     1 UNK         1 GROUP             0       ****    0 ROOT    
