@<TRIPOS>MOLECULE
3R540
247   249    1
SMALL
USER_CHARGES


@<TRIPOS>ATOM
      1 CA         -2.6617  -12.1002  -48.5804 C.3       0 UNK        -0.1800 
      2 C          -2.3143  -12.8380  -49.8736 C.2       0 UNK         0.5000 
      3 O          -3.0528  -12.7179  -50.8473 O.2       0 UNK        -0.5000 
      4 N          -1.2236  -13.6175  -49.9448 N.am      1 UNK        -0.5000 
      5 CA         -0.2512  -13.9285  -48.8859 C.3       1 UNK         0.1400 
      6 C6          1.0381  -14.5683  -49.4583 C.3       23 UNK        -0.0398 
      7 S7          0.7886  -16.1389  -50.3656 S.3       23 UNK        -0.2404 
      8 C8          1.2170  -17.3569  -49.0755 C.3       23 UNK        -0.0205 
      9 C9          1.4852  -18.7550  -49.6197 C.ar      23 UNK        -0.0193 
     10 C10         0.6348  -19.3480  -50.5589 C.ar      23 UNK        -0.1150 
     11 C11         0.9034  -20.6281  -51.0530 C.ar      23 UNK        -0.0193 
     12 C12         2.0131  -21.3317  -50.5778 C.ar      23 UNK        -0.1150 
     13 C13         2.8575  -20.7613  -49.6223 C.ar      23 UNK        -0.0193 
     14 C14         2.5907  -19.4723  -49.1530 C.ar      23 UNK        -0.1150 
     15 C15         4.0698  -21.5268  -49.1108 C.3       23 UNK        -0.0205 
     16 S16         3.6184  -22.9456  -48.0607 S.3       23 UNK        -0.2404 
     17 C17         2.7940  -22.1359  -46.6462 C.3       23 UNK        -0.0398 
     18 CA          1.4991  -22.8597  -46.2076 C.3       11 UNK         0.1400 
     19 N           1.0509  -22.4004  -44.8909 N.am      11 UNK        -0.5000 
     20 C           0.0775  -22.9768  -44.1721 C.2       10 UNK         0.5000 
     21 O          -0.5309  -23.9856  -44.5267 O.2       10 UNK        -0.5000 
     22 CA         -0.3145  -22.2856  -42.8550 C.3       10 UNK         0.1400 
     23 CB          0.6971  -22.6093  -41.7457 C.3       10 UNK        -0.1800 
     24 N          -0.4500  -20.8356  -42.9975 N.am      10 UNK        -0.5000 
     25 C          -1.3446  -20.2343  -43.7950 C.2       9 UNK         0.5000 
     26 O          -2.1707  -20.8400  -44.4754 O.2       9 UNK        -0.5000 
     27 CA         -1.2813  -18.7020  -43.8846 C.3       9 UNK         0.1400 
     28 CB         -1.9168  -18.0537  -42.6454 C.3       9 UNK        -0.1800 
     29 N           0.0802  -18.2019  -44.0560 N.am      9 UNK        -0.5000 
     30 C           0.8823  -18.4830  -45.0922 C.2       8 UNK         0.5000 
     31 O           0.5499  -19.1724  -46.0546 O.2       8 UNK        -0.5000 
     32 CA          2.3251  -17.9608  -45.0002 C.3       8 UNK         0.1400 
     33 CB          2.4025  -16.4652  -45.3430 C.3       8 UNK        -0.1800 
     34 N           2.8989  -18.1916  -43.6748 N.am      8 UNK        -0.5000 
     35 C           3.1578  -19.4016  -43.1586 C.2       7 UNK         0.5000 
     36 O           2.9764  -20.4591  -43.7625 O.2       7 UNK        -0.5000 
     37 CA          3.6678  -19.4305  -41.7068 C.3       7 UNK         0.1400 
     38 CB          5.1822  -19.1796  -41.6584 C.3       7 UNK        -0.1800 
     39 N           2.9846  -18.4536  -40.8564 N.am      7 UNK        -0.5000 
     40 C           1.6932  -18.5333  -40.5054 C.2       6 UNK         0.5000 
     41 O           0.9490  -19.4531  -40.8424 O.2       6 UNK        -0.5000 
     42 CA          1.1284  -17.3620  -39.6805 C.3       6 UNK         0.1400 
     43 CB          1.4551  -17.5400  -38.1903 C.3       6 UNK        -0.1800 
     44 N           1.6081  -16.0528  -40.1348 N.am      6 UNK        -0.5000 
     45 C           1.3655  -15.5436  -41.3487 C.2       5 UNK         0.5000 
     46 O           0.7309  -16.1363  -42.2247 O.2       5 UNK        -0.5000 
     47 CA          1.9588  -14.1644  -41.6552 C.3       5 UNK         0.1400 
     48 CB          3.4540  -14.2827  -42.0066 C.3       5 UNK        -0.1800 
     49 N           1.2198  -13.6027  -42.7793 N.am      5 UNK        -0.5000 
     50 C           1.1976  -12.3207  -43.1544 C.2       4 UNK         0.5000 
     51 O           1.8261  -11.4287  -42.5829 O.2       4 UNK        -0.5000 
     52 CA          0.3254  -11.9722  -44.3746 C.3       4 UNK         0.1400 
     53 CB          1.1730  -11.9804  -45.6560 C.3       4 UNK        -0.1800 
     54 N          -0.8199  -12.8741  -44.5441 N.am      4 UNK        -0.5000 
     55 C          -1.9515  -12.7873  -43.8245 C.2       3 UNK         0.5000 
     56 O          -2.1099  -11.9603  -42.9254 O.2       3 UNK        -0.5000 
     57 CA         -3.1060  -13.7541  -44.1635 C.3       3 UNK         0.1400 
     58 CB         -4.4652  -13.0330  -44.2229 C.3       3 UNK        -0.1800 
     59 N          -2.8785  -14.4453  -45.4309 N.am      3 UNK        -0.5000 
     60 C          -3.1320  -15.7359  -45.6705 C.2       2 UNK         0.5000 
     61 O          -3.7024  -16.4704  -44.8651 O.2       2 UNK        -0.5000 
     62 CA         -2.6838  -16.3204  -47.0315 C.3       2 UNK         0.1400 
     63 CB         -3.8780  -16.9313  -47.7834 C.3       2 UNK        -0.1800 
     64 N          -1.9973  -15.3951  -47.9410 N.am      2 UNK        -0.5000 
     65 C          -0.8265  -14.7779  -47.7301 C.2       1 UNK         0.5000 
     66 O          -0.2170  -14.8327  -46.6634 O.2       1 UNK        -0.5000 
     67 C           0.3724  -22.7641  -47.2601 C.2       11 UNK         0.5000 
     68 O           0.1252  -23.7372  -47.9745 O.2       11 UNK        -0.5000 
     69 N          -0.3321  -21.6241  -47.2906 N.am      12 UNK        -0.5000 
     70 CA         -1.4795  -21.3832  -48.1632 C.3       12 UNK         0.1400 
     71 CB         -1.9251  -19.9214  -48.0237 C.3       12 UNK        -0.1800 
     72 C          -2.6490  -22.3466  -47.8907 C.2       12 UNK         0.5000 
     73 O          -3.2166  -22.8900  -48.8376 O.2       12 UNK        -0.5000 
     74 N          -2.9653  -22.5724  -46.6080 N.am      13 UNK        -0.5000 
     75 CA         -3.9994  -23.5054  -46.1589 C.3       13 UNK         0.1400 
     76 CB         -4.2439  -23.3202  -44.6539 C.3       13 UNK        -0.1800 
     77 C          -3.6681  -24.9746  -46.4763 C.2       13 UNK         0.5000 
     78 O          -4.5673  -25.7233  -46.8597 O.2       13 UNK        -0.5000 
     79 N          -2.3918  -25.3578  -46.3263 N.am      14 UNK        -0.5000 
     80 CA         -1.8833  -26.6893  -46.6593 C.3       14 UNK         0.1400 
     81 CB         -0.4601  -26.8547  -46.1049 C.3       14 UNK        -0.1800 
     82 C          -1.9160  -26.9730  -48.1717 C.2       14 UNK         0.5000 
     83 O          -2.2675  -28.0836  -48.5724 O.2       14 UNK        -0.5000 
     84 N          -1.5643  -25.9641  -48.9802 N.am      15 UNK        -0.5000 
     85 CA         -1.6336  -26.0095  -50.4402 C.3       15 UNK         0.1400 
     86 CB         -0.8720  -24.8084  -51.0128 C.3       15 UNK        -0.1800 
     87 C          -3.0820  -26.0297  -50.9641 C.2       15 UNK         0.5000 
     88 O          -3.3797  -26.7873  -51.8891 O.2       15 UNK        -0.5000 
     89 N          -3.9457  -25.2102  -50.3471 N.am      16 UNK        -0.5000 
     90 CA         -5.3602  -25.0025  -50.6619 C.3       16 UNK         0.1400 
     91 CB         -6.1749  -26.2867  -50.3878 C.3       16 UNK        -0.1800 
     92 C          -5.5702  -24.4085  -52.0737 C.2       16 UNK         0.5000 
     93 O          -4.6974  -23.6893  -52.5666 O.2       16 UNK        -0.5000 
     94 N          -6.7358  -24.6859  -52.6798 N.am      17 UNK        -0.5000 
     95 CA         -7.2091  -24.1691  -53.9699 C.3       17 UNK         0.1400 
     96 CB         -6.3710  -24.7520  -55.1308 C.3       17 UNK        -0.1800 
     97 C          -7.2956  -22.6273  -53.9537 C.2       17 UNK         0.5000 
     98 O          -7.8987  -22.0716  -53.0320 O.2       17 UNK        -0.5000 
     99 N          -6.6759  -21.9544  -54.9322 N.am      18 UNK        -0.5000 
    100 CA        -6.5057  -20.5005  -54.9868 C.3       18 UNK         0.1400 
    101 CB        -6.2415  -20.0873  -56.4458 C.3       18 UNK        -0.1800 
    102 C         -5.3838  -20.0469  -54.0279 C.2       18 UNK         0.5000 
    103 O         -4.3516  -19.5430  -54.4718 O.2       18 UNK        -0.5000 
    104 N         -5.5970  -20.2865  -52.7285 N.am      19 UNK        -0.5000 
    105 CA        -4.6332  -20.1144  -51.6416 C.3       19 UNK         0.1400 
    106 CB        -5.2983  -20.5707  -50.3334 C.3       19 UNK        -0.1800 
    107 C         -4.0888  -18.6805  -51.5119 C.2       19 UNK         0.5000 
    108 O         -2.8890  -18.4996  -51.3009 O.2       19 UNK        -0.5000 
    109 N         -4.9765  -17.6891  -51.6689 N.am      20 UNK        -0.5000 
    110 CA        -4.6586  -16.2629  -51.6585 C.3       20 UNK         0.1400 
    111 CB        -5.9645  -15.4527  -51.6603 C.3       20 UNK        -0.1800 
    112 C         -3.7524  -15.8844  -52.8446 C.2       20 UNK         0.5000 
    113 O         -4.2206  -15.8497  -53.9835 O.2       20 UNK        -0.5000 
    114 N         -2.4687  -15.6510  -52.5390 N.am      21 UNK        -0.5000 
    115 CA        -1.3687  -15.3238  -53.4559 C.3       21 UNK         0.1400 
    116 CB        -1.6773  -14.0710  -54.3026 C.3       21 UNK        -0.1800 
    117 C         -0.8820  -16.5177  -54.3042 C.2       21 UNK         0.5000 
    118 O         -0.0668  -16.3187  -55.2058 O.2       21 UNK        -0.5000 
    119 N         -1.3379  -17.7317  -53.9667 N.am      22 UNK        -0.5000 
    120 CA        -0.9290  -19.0133  -54.5553 C.3       22 UNK         0.1400 
    121 C         -1.2069  -19.1184  -56.0848 C.2       22 UNK         0.5000 
    122 N         -2.4692  -19.0893  -56.4862 N.am      22 UNK        -0.7600 
    123 O         -0.3017  -19.2215  -56.9095 O.2       22 UNK        -0.5000 
    124 C124        0.5188  -19.3986  -54.1354 C.3       23 UNK        -0.0398 
    125 S125        0.6766  -21.1775  -53.7738 S.3       23 UNK        -0.2404 
    126 C126       -0.0119  -21.2607  -52.0883 C.3       23 UNK        -0.0205 
    127 H127       -3.2748  -12.7306  -47.9371 H         1 UNK         0.0600 
    128 H128       -3.2378  -11.2034  -48.8090 H         1 UNK         0.0600 
    129 H129       -1.7805  -11.7810  -48.0265 H         1 UNK         0.0600 
    130 H130       -1.0064  -14.0353  -50.8364 H         1 UNK         0.3000 
    131 H131        0.0564  -12.9807  -48.4436 H         1 UNK         0.0600 
    132 H132        1.7785  -14.7078  -48.6683 H         1 UNK         0.0800 
    133 H133        1.5017  -13.8669  -50.1533 H         1 UNK         0.0800 
    134 H134        0.4155  -17.4100  -48.3387 H         1 UNK         0.0800 
    135 H135        2.1031  -17.0019  -48.5494 H         1 UNK         0.0800 
    136 H136       -0.2324  -18.8083  -50.9130 H         1 UNK         0.1150 
    137 H137        2.2185  -22.3258  -50.9495 H         1 UNK         0.1150 
    138 H138        3.2455  -19.0274  -48.4172 H         1 UNK         0.1150 
    139 H139        4.6449  -21.8904  -49.9634 H         1 UNK         0.0800 
    140 H140        4.7377  -20.8691  -48.5523 H         1 UNK         0.0800 
    141 H141        2.5920  -21.0857  -46.8579 H         1 UNK         0.0800 
    142 H142        3.5110  -22.1380  -45.8243 H         1 UNK         0.0800 
    143 H143        1.7388  -23.9194  -46.0957 H         1 UNK         0.0600 
    144 H144        1.5228  -21.5851  -44.5113 H         1 UNK         0.3000 
    145 H145       -1.2864  -22.6801  -42.5517 H         1 UNK         0.0600 
    146 H146        0.3727  -22.2040  -40.7872 H         1 UNK         0.0600 
    147 H147        1.6827  -22.1983  -41.9658 H         1 UNK         0.0600 
    148 H148        0.8097  -23.6870  -41.6214 H         1 UNK         0.0600 
    149 H149        0.1655  -20.2630  -42.4268 H         1 UNK         0.3000 
    150 H150       -1.8548  -18.4048  -44.7625 H         1 UNK         0.0600 
    151 H151       -2.9515  -18.3767  -42.5254 H         1 UNK         0.0600 
    152 H152       -1.9247  -16.9670  -42.7305 H         1 UNK         0.0600 
    153 H153       -1.3814  -18.3124  -41.7321 H         1 UNK         0.0600 
    154 H154        0.4271  -17.5881  -43.3228 H         1 UNK         0.3000 
    155 H155        2.9256  -18.5088  -45.7295 H         1 UNK         0.0600 
    156 H156        2.0225  -16.2759  -46.3455 H         1 UNK         0.0600 
    157 H157        3.4305  -16.1043  -45.3135 H         1 UNK         0.0600 
    158 H158        1.8130  -15.8572  -44.6577 H         1 UNK         0.0600 
    159 H159        3.0383  -17.3807  -43.0924 H         1 UNK         0.3000 
    160 H160        3.4744  -20.4276  -41.3054 H         1 UNK         0.0600 
    161 H161        5.4400  -18.1848  -42.0239 H         1 UNK         0.0600 
    162 H162        5.7171  -19.9044  -42.2737 H         1 UNK         0.0600 
    163 H163        5.5646  -19.2734  -40.6418 H         1 UNK         0.0600 
    164 H164        3.5256  -17.6642  -40.5358 H         1 UNK         0.3000 
    165 H165        0.0422  -17.3756  -39.7931 H         1 UNK         0.0600 
    166 H166        0.9804  -16.7656  -37.5874 H         1 UNK         0.0600 
    167 H167        1.0938  -18.5019  -37.8240 H         1 UNK         0.0600 
    168 H168        2.5290  -17.5001  -38.0039 H         1 UNK         0.0600 
    169 H169        2.1425  -15.5117  -39.4702 H         1 UNK         0.3000 
    170 H170        1.8279  -13.5240  -40.7807 H         1 UNK         0.0600 
    171 H171        3.6114  -14.9001  -42.8916 H         1 UNK         0.0600 
    172 H172        3.8949  -13.3052  -42.2014 H         1 UNK         0.0600 
    173 H173        4.0179  -14.7303  -41.1875 H         1 UNK         0.0600 
    174 H174        0.6437  -14.2770  -43.2675 H         1 UNK         0.3000 
    175 H175       -0.0486  -10.9562  -44.2304 H         1 UNK         0.0600 
    176 H176        1.5732  -12.9721  -45.8703 H         1 UNK         0.0600 
    177 H177        0.5875  -11.6554  -46.5153 H         1 UNK         0.0600 
    178 H178        2.0203  -11.2992  -45.5673 H         1 UNK         0.0600 
    179 H179       -0.7034  -13.6245  -45.2178 H         1 UNK         0.3000 
    180 H180       -3.1349  -14.4809  -43.3490 H         1 UNK         0.0600 
    181 H181       -5.2740  -13.7350  -44.4265 H         1 UNK         0.0600 
    182 H182       -4.4792  -12.2704  -45.0024 H         1 UNK         0.0600 
    183 H183       -4.6959  -12.5431  -43.2762 H         1 UNK         0.0600 
    184 H184       -2.4121  -13.9142  -46.1498 H         1 UNK         0.3000 
    185 H185       -1.9792  -17.1228  -46.8056 H         1 UNK         0.0600 
    186 H186       -4.6236  -16.1760  -48.0345 H         1 UNK         0.0600 
    187 H187       -3.5583  -17.4087  -48.7089 H         1 UNK         0.0600 
    188 H188       -4.3731  -17.6967  -47.1842 H         1 UNK         0.0600 
    189 H189       -2.4282  -15.2704  -48.8436 H         1 UNK         0.3000 
    190 H190       -0.0529  -20.8504  -46.6924 H         1 UNK         0.3000 
    191 H191       -1.1498  -21.5425  -49.1912 H         1 UNK         0.0600 
    192 H192       -1.0980  -19.2381  -48.2054 H         1 UNK         0.0600 
    193 H193       -2.3203  -19.7095  -47.0299 H         1 UNK         0.0600 
    194 H194       -2.6966  -19.6773  -48.7497 H         1 UNK         0.0600 
    195 H195       -2.4824  -22.0485  -45.8816 H         1 UNK         0.3000 
    196 H196       -4.9230  -23.2549  -46.6850 H         1 UNK         0.0600 
    197 H197       -4.5748  -22.3057  -44.4310 H         1 UNK         0.0600 
    198 H198       -3.3406  -23.5124  -44.0738 H         1 UNK         0.0600 
    199 H199       -5.0173  -24.0007  -44.2956 H         1 UNK         0.0600 
    200 H200       -1.7210  -24.6977  -45.9442 H         1 UNK         0.3000 
    201 H201       -2.5238  -27.4258  -46.1697 H         1 UNK         0.0600 
    202 H202       -0.4458  -26.7481  -45.0201 H         1 UNK         0.0600 
    203 H203        0.2238  -26.1151  -46.5224 H         1 UNK         0.0600 
    204 H204       -0.0608  -27.8421  -46.3397 H         1 UNK         0.0600 
    205 H205       -1.2260  -25.1006  -48.5659 H         1 UNK         0.3000 
    206 H206       -1.1385  -26.9218  -50.7794 H         1 UNK         0.0600 
    207 H207       -1.3060  -23.8714  -50.6629 H         1 UNK         0.0600 
    208 H208        0.1765  -24.8236  -50.7142 H         1 UNK         0.0600 
    209 H209       -0.9046  -24.8041  -52.1030 H         1 UNK         0.0600 
    210 H210       -3.5703  -24.5603  -49.6611 H         1 UNK         0.3000 
    211 H211       -5.7042  -24.2401  -49.9617 H         1 UNK         0.0600 
    212 H212       -5.9746  -27.0623  -51.1279 H         1 UNK         0.0600 
    213 H213       -7.2470  -26.0883  -50.3944 H         1 UNK         0.0600 
    214 H214       -5.9361  -26.6963  -49.4058 H         1 UNK         0.0600 
    215 H215       -7.3986  -25.2602  -52.1790 H         1 UNK         0.3000 
    216 H216       -8.2324  -24.5275  -54.0901 H         1 UNK         0.0600 
    217 H217       -6.7853  -24.4687  -56.0991 H         1 UNK         0.0600 
    218 H218       -6.3658  -25.8415  -55.0951 H         1 UNK         0.0600 
    219 H219       -5.3329  -24.4191  -55.0994 H         1 UNK         0.0600 
    220 H220       -6.1696  -22.4858  -55.6253 H         1 UNK         0.3000 
    221 H221       -7.4306  -20.0173  -54.6651 H         1 UNK         0.0600 
    222 H222       -5.3369  -20.5519  -56.8404 H         1 UNK         0.0600 
    223 H223       -7.0725  -20.3708  -57.0918 H         1 UNK         0.0600 
    224 H224       -6.1202  -19.0065  -56.5299 H         1 UNK         0.0600 
    225 H225       -6.4644  -20.7550  -52.4893 H         1 UNK         0.3000 
    226 H226       -3.7856  -20.7726  -51.8442 H         1 UNK         0.0600 
    227 H227       -5.5775  -21.6232  -50.3833 H         1 UNK         0.0600 
    228 H228       -4.6296  -20.4603  -49.4825 H         1 UNK         0.0600 
    229 H229       -6.1987  -19.9950  -50.1162 H         1 UNK         0.0600 
    230 H230       -5.9305  -17.9365  -51.8857 H         1 UNK         0.3000 
    231 H231       -4.1332  -16.0381  -50.7285 H         1 UNK         0.0600 
    232 H232       -5.7558  -14.3819  -51.6524 H         1 UNK         0.0600 
    233 H233       -6.5662  -15.6727  -50.7783 H         1 UNK         0.0600 
    234 H234       -6.5709  -15.6633  -52.5421 H         1 UNK         0.0600 
    235 H235       -2.1885  -15.8197  -51.5844 H         1 UNK         0.3000 
    236 H236       -0.5241  -15.0661  -52.8172 H         1 UNK         0.0600 
    237 H237       -2.4348  -14.2675  -55.0613 H         1 UNK         0.0600 
    238 H238       -2.0292  -13.2494  -53.6785 H         1 UNK         0.0600 
    239 H239       -0.7841  -13.7228  -54.8223 H         1 UNK         0.0600 
    240 H240       -2.0065  -17.7959  -53.2094 H         1 UNK         0.3000 
    241 H241       -1.6090  -19.7316  -54.0964 H         1 UNK         0.0600 
    242 H242       -2.6849  -19.1475  -57.4680 H         1 UNK         0.3800 
    243 H243       -3.2202  -19.0821  -55.7966 H         1 UNK         0.3800 
    244 H244        0.8245  -18.8469  -53.2469 H         1 UNK         0.0800 
    245 H245        1.2507  -19.1197  -54.8945 H         1 UNK         0.0800 
    246 H246       -0.1567  -22.3083  -51.8370 H         1 UNK         0.0800 
    247 H247       -1.0015  -20.8020  -52.0603 H         1 UNK         0.0800 
@<TRIPOS>BOND
     1    1    2 1    
     2    1  127 1    
     3    1  128 1    
     4    1  129 1    
     5    2    3 2    
     6    2    4 am   BACKBONE|DICT|INTERRES
     7    4    5 1    
     8    4  130 1    
     9    5    6 1    
    10    5   65 1    
    11    5  131 1    
    12    6    7 1    
    13    6  132 1    
    14    6  133 1    
    15    7    8 1    
    16    8    9 1    
    17    8  134 1    
    18    8  135 1    
    19    9   10 ar   
    20    9   14 ar   
    21   10   11 ar   
    22   10  136 1    
    23   11   12 ar   
    24   11  126 1    
    25   12   13 ar   
    26   12  137 1    
    27   13   14 ar   
    28   13   15 1    
    29   14  138 1    
    30   15   16 1    
    31   15  139 1    
    32   15  140 1    
    33   16   17 1    
    34   17   18 1    
    35   17  141 1    
    36   17  142 1    
    37   18   19 1    
    38   18   67 1    
    39   18  143 1    
    40   19   20 am   BACKBONE|DICT|INTERRES
    41   19  144 1    
    42   20   21 2    
    43   20   22 1    
    44   22   23 1    
    45   22   24 1    
    46   22  145 1    
    47   23  146 1    
    48   23  147 1    
    49   23  148 1    
    50   24   25 am   BACKBONE|DICT|INTERRES
    51   24  149 1    
    52   25   26 2    
    53   25   27 1    
    54   27   28 1    
    55   27   29 1    
    56   27  150 1    
    57   28  151 1    
    58   28  152 1    
    59   28  153 1    
    60   29   30 am   BACKBONE|DICT|INTERRES
    61   29  154 1    
    62   30   31 2    
    63   30   32 1    
    64   32   33 1    
    65   32   34 1    
    66   32  155 1    
    67   33  156 1    
    68   33  157 1    
    69   33  158 1    
    70   34   35 am   BACKBONE|DICT|INTERRES
    71   34  159 1    
    72   35   36 2    
    73   35   37 1    
    74   37   38 1    
    75   37   39 1    
    76   37  160 1    
    77   38  161 1    
    78   38  162 1    
    79   38  163 1    
    80   39   40 am   BACKBONE|DICT|INTERRES
    81   39  164 1    
    82   40   41 2    
    83   40   42 1    
    84   42   43 1    
    85   42   44 1    
    86   42  165 1    
    87   43  166 1    
    88   43  167 1    
    89   43  168 1    
    90   44   45 am   BACKBONE|DICT|INTERRES
    91   44  169 1    
    92   45   46 2    
    93   45   47 1    
    94   47   48 1    
    95   47   49 1    
    96   47  170 1    
    97   48  171 1    
    98   48  172 1    
    99   48  173 1    
   100   49   50 am   BACKBONE|DICT|INTERRES
   101   49  174 1    
   102   50   51 2    
   103   50   52 1    
   104   52   53 1    
   105   52   54 1    
   106   52  175 1    
   107   53  176 1    
   108   53  177 1    
   109   53  178 1    
   110   54   55 am   BACKBONE|DICT|INTERRES
   111   54  179 1    
   112   55   56 2    
   113   55   57 1    
   114   57   58 1    
   115   57   59 1    
   116   57  180 1    
   117   58  181 1    
   118   58  182 1    
   119   58  183 1    
   120   59   60 am   BACKBONE|DICT|INTERRES
   121   59  184 1    
   122   60   61 2    
   123   60   62 1    
   124   62   63 1    
   125   62   64 1    
   126   62  185 1    
   127   63  186 1    
   128   63  187 1    
   129   63  188 1    
   130   64   65 am   BACKBONE|DICT|INTERRES
   131   64  189 1    
   132   65   66 2    
   133   67   68 2    
   134   67   69 am   BACKBONE|DICT|INTERRES
   135   69   70 1    
   136   69  190 1    
   137   70   71 1    
   138   70   72 1    
   139   70  191 1    
   140   71  192 1    
   141   71  193 1    
   142   71  194 1    
   143   72   73 2    
   144   72   74 am   BACKBONE|DICT|INTERRES
   145   74   75 1    
   146   74  195 1    
   147   75   76 1    
   148   75   77 1    
   149   75  196 1    
   150   76  197 1    
   151   76  198 1    
   152   76  199 1    
   153   77   78 2    
   154   77   79 am   BACKBONE|DICT|INTERRES
   155   79   80 1    
   156   79  200 1    
   157   80   81 1    
   158   80   82 1    
   159   80  201 1    
   160   81  202 1    
   161   81  203 1    
   162   81  204 1    
   163   82   83 2    
   164   82   84 am   BACKBONE|DICT|INTERRES
   165   84   85 1    
   166   84  205 1    
   167   85   86 1    
   168   85   87 1    
   169   85  206 1    
   170   86  207 1    
   171   86  208 1    
   172   86  209 1    
   173   87   88 2    
   174   87   89 am   BACKBONE|DICT|INTERRES
   175   89   90 1    
   176   89  210 1    
   177   90   91 1    
   178   90   92 1    
   179   90  211 1    
   180   91  212 1    
   181   91  213 1    
   182   91  214 1    
   183   92   93 2    
   184   92   94 am   BACKBONE|DICT|INTERRES
   185   94   95 1    
   186   94  215 1    
   187   95   96 1    
   188   95   97 1    
   189   95  216 1    
   190   96  217 1    
   191   96  218 1    
   192   96  219 1    
   193   97   98 2    
   194   97   99 am   BACKBONE|DICT|INTERRES
   195   99  100 1    
   196   99  220 1    
   197  100  101 1    
   198  100  102 1    
   199  100  221 1    
   200  101  222 1    
   201  101  223 1    
   202  101  224 1    
   203  102  103 2    
   204  102  104 am   BACKBONE|DICT|INTERRES
   205  104  105 1    
   206  104  225 1    
   207  105  106 1    
   208  105  107 1    
   209  105  226 1    
   210  106  227 1    
   211  106  228 1    
   212  106  229 1    
   213  107  108 2    
   214  107  109 am   BACKBONE|DICT|INTERRES
   215  109  110 1    
   216  109  230 1    
   217  110  111 1    
   218  110  112 1    
   219  110  231 1    
   220  111  232 1    
   221  111  233 1    
   222  111  234 1    
   223  112  113 2    
   224  112  114 am   BACKBONE|DICT|INTERRES
   225  114  115 1    
   226  114  235 1    
   227  115  116 1    
   228  115  117 1    
   229  115  236 1    
   230  116  237 1    
   231  116  238 1    
   232  116  239 1    
   233  117  118 2    
   234  117  119 am   BACKBONE|DICT|INTERRES
   235  119  120 1    
   236  119  240 1    
   237  120  121 1    
   238  120  124 1    
   239  120  241 1    
   240  121  122 am   BACKBONE|DICT|INTERRES
   241  121  123 2    
   242  122  242 1    
   243  122  243 1    
   244  124  125 1    
   245  124  244 1    
   246  124  245 1    
   247  125  126 1    
   248  126  246 1    
   249  126  247 1    
@<TRIPOS>SUBSTRUCTURE
     1 UNK         1 GROUP             0       ****    0 ROOT    
