@<TRIPOS>MOLECULE
3R540
247   249    1
SMALL
USER_CHARGES


@<TRIPOS>ATOM
      1 CA         -3.7976  -14.2631  -50.1126 C.3       0 UNK        -0.1800 
      2 C          -2.7832  -13.2992  -49.5153 C.2       0 UNK         0.5000 
      3 O          -2.9235  -12.0854  -49.6701 O.2       0 UNK        -0.5000 
      4 N          -1.7555  -13.8376  -48.8499 N.am      1 UNK        -0.5000 
      5 CA         -0.6875  -13.0828  -48.1864 C.3       1 UNK         0.1400 
      6 C6          0.4938  -13.9880  -47.7500 C.3       23 UNK        -0.0398 
      7 S7          1.1907  -14.9969  -49.1010 S.3       23 UNK        -0.2404 
      8 C8          0.8544  -16.6793  -48.4941 C.3       23 UNK        -0.0205 
      9 C9         -0.6016  -17.0751  -48.6900 C.ar      23 UNK        -0.0193 
     10 C10        -1.0107  -17.6399  -49.8992 C.ar      23 UNK        -0.1150 
     11 C11        -2.3418  -18.0152  -50.0942 C.ar      23 UNK        -0.0193 
     12 C12        -3.2697  -17.8277  -49.0657 C.ar      23 UNK        -0.1150 
     13 C13        -2.8798  -17.2379  -47.8611 C.ar      23 UNK        -0.0193 
     14 C14        -1.5406  -16.8796  -47.6730 C.ar      23 UNK        -0.1150 
     15 C15        -3.9156  -16.9255  -46.7910 C.3       23 UNK        -0.0205 
     16 S16        -3.5084  -17.6813  -45.1910 S.3       23 UNK        -0.2404 
     17 C17        -4.3211  -19.3116  -45.2853 C.3       23 UNK        -0.0398 
     18 CA         -3.5622  -20.4010  -46.0927 C.3       11 UNK         0.1400 
     19 N          -2.1091  -20.3635  -45.9235 N.am      11 UNK        -0.5000 
     20 C          -1.2356  -21.0675  -46.6571 C.2       10 UNK         0.5000 
     21 O          -1.5550  -21.7913  -47.6016 O.2       10 UNK        -0.5000 
     22 CA          0.2403  -20.9815  -46.2319 C.3       10 UNK         0.1400 
     23 CB          0.9289  -19.7878  -46.9017 C.3       10 UNK        -0.1800 
     24 N           0.3947  -20.8795  -44.7798 N.am      10 UNK        -0.5000 
     25 C           0.1265  -21.8798  -43.9286 C.2       9 UNK         0.5000 
     26 O          -0.2347  -22.9999  -44.2843 O.2       9 UNK        -0.5000 
     27 CA          0.2283  -21.5654  -42.4269 C.3       9 UNK         0.1400 
     28 CB          1.6589  -21.8000  -41.9210 C.3       9 UNK        -0.1800 
     29 N          -0.2072  -20.2051  -42.1017 N.am      9 UNK        -0.5000 
     30 C          -1.4722  -19.7762  -42.2370 C.2       8 UNK         0.5000 
     31 O          -2.3820  -20.4828  -42.6734 O.2       8 UNK        -0.5000 
     32 CA         -1.7900  -18.3244  -41.8308 C.3       8 UNK         0.1400 
     33 CB         -2.3929  -18.2896  -40.4187 C.3       8 UNK        -0.1800 
     34 N          -0.6486  -17.4114  -41.8798 N.am      8 UNK        -0.5000 
     35 C           0.0535  -17.0863  -42.9738 C.2       7 UNK         0.5000 
     36 O          -0.1629  -17.5563  -44.0925 O.2       7 UNK        -0.5000 
     37 CA          1.2265  -16.0990  -42.7817 C.3       7 UNK         0.1400 
     38 CB          1.3675  -15.5488  -41.3437 C.3       7 UNK        -0.1800 
     39 N           2.5016  -16.6745  -43.2130 N.am      7 UNK        -0.5000 
     40 C           3.0276  -17.8517  -42.8384 C.2       6 UNK         0.5000 
     41 O           2.4878  -18.6256  -42.0466 O.2       6 UNK        -0.5000 
     42 CA          4.3896  -18.2335  -43.4506 C.3       6 UNK         0.1400 
     43 CB          4.1833  -19.1093  -44.6959 C.3       6 UNK        -0.1800 
     44 N           5.2043  -17.0715  -43.8134 N.am      6 UNK        -0.5000 
     45 C           5.7708  -16.2363  -42.9322 C.2       5 UNK         0.5000 
     46 O           5.7343  -16.4061  -41.7120 O.2       5 UNK        -0.5000 
     47 CA          6.4806  -14.9833  -43.4881 C.3       5 UNK         0.1400 
     48 CB          6.6413  -14.9652  -45.0260 C.3       5 UNK        -0.1800 
     49 N           5.8223  -13.7596  -43.0173 N.am      5 UNK        -0.5000 
     50 C           4.5473  -13.4040  -43.2291 C.2       4 UNK         0.5000 
     51 O           3.7582  -14.0424  -43.9325 O.2       4 UNK        -0.5000 
     52 CA          4.0836  -12.1115  -42.5416 C.3       4 UNK         0.1400 
     53 CB          4.5523  -10.8691  -43.3184 C.3       4 UNK        -0.1800 
     54 N           2.6285  -12.1136  -42.4672 N.am      4 UNK        -0.5000 
     55 C           1.8779  -11.5528  -41.5163 C.2       3 UNK         0.5000 
     56 O           2.3440  -10.9158  -40.5698 O.2       3 UNK        -0.5000 
     57 CA          0.3486  -11.7192  -41.6717 C.3       3 UNK         0.1400 
     58 CB         -0.4339  -11.1880  -40.4574 C.3       3 UNK        -0.1800 
     59 N          -0.1578  -11.0646  -42.8808 N.am      3 UNK        -0.5000 
     60 C          -0.0023  -11.5201  -44.1298 C.2       2 UNK         0.5000 
     61 O           0.5683  -12.5832  -44.3934 O.2       2 UNK        -0.5000 
     62 CA         -0.5425  -10.6188  -45.2620 C.3       2 UNK         0.1400 
     63 CB          0.2435   -9.2979  -45.3301 C.3       2 UNK        -0.1800 
     64 N          -0.4423  -11.2790  -46.5634 N.am      2 UNK        -0.5000 
     65 C          -1.2033  -12.3082  -46.9550 C.2       1 UNK         0.5000 
     66 O          -2.2115  -12.6856  -46.3506 O.2       1 UNK        -0.5000 
     67 C          -4.1008  -21.7997  -45.7299 C.2       11 UNK         0.5000 
     68 O          -4.8147  -22.4118  -46.5263 O.2       11 UNK        -0.5000 
     69 N          -3.7079  -22.2786  -44.5382 N.am      12 UNK        -0.5000 
     70 CA         -4.0779  -23.5742  -43.9682 C.3       12 UNK         0.1400 
     71 CB         -3.5388  -23.6691  -42.5333 C.3       12 UNK        -0.1800 
     72 C          -3.5977  -24.7710  -44.8060 C.2       12 UNK         0.5000 
     73 O          -4.3254  -25.7583  -44.9213 O.2       12 UNK        -0.5000 
     74 N          -2.4134  -24.6499  -45.4208 N.am      13 UNK        -0.5000 
     75 CA         -1.8342  -25.6069  -46.3654 C.3       13 UNK         0.1400 
     76 CB         -0.3164  -25.3663  -46.4542 C.3       13 UNK        -0.1800 
     77 C          -2.5177  -25.5582  -47.7498 C.2       13 UNK         0.5000 
     78 O          -1.8380  -25.4154  -48.7663 O.2       13 UNK        -0.5000 
     79 N          -3.8526  -25.6769  -47.7600 N.am      14 UNK        -0.5000 
     80 CA         -4.7473  -25.7444  -48.9190 C.3       14 UNK         0.1400 
     81 CB         -4.5972  -27.1124  -49.6168 C.3       14 UNK        -0.1800 
     82 C          -4.5972  -24.5601  -49.8968 C.2       14 UNK         0.5000 
     83 O          -4.6247  -24.7679  -51.1101 O.2       14 UNK        -0.5000 
     84 N          -4.4280  -23.3431  -49.3557 N.am      15 UNK        -0.5000 
     85 CA         -4.2116  -22.0910  -50.0901 C.3       15 UNK         0.1400 
     86 CB         -5.5048  -21.6738  -50.8213 C.3       15 UNK        -0.1800 
     87 C          -2.9787  -22.1763  -51.0174 C.2       15 UNK         0.5000 
     88 O          -3.0946  -22.0185  -52.2373 O.2       15 UNK        -0.5000 
     89 N          -1.8275  -22.4579  -50.3920 N.am      16 UNK        -0.5000 
     90 CA         -0.5184  -22.7211  -50.9913 C.3       16 UNK         0.1400 
     91 CB          0.0485  -21.4527  -51.6576 C.3       16 UNK        -0.1800 
     92 C          -0.5504  -23.9431  -51.9302 C.2       16 UNK         0.5000 
     93 O          -0.2430  -23.8283  -53.1186 O.2       16 UNK        -0.5000 
     94 N          -0.9631  -25.0904  -51.3710 N.am      17 UNK        -0.5000 
     95 CA         -1.0367  -26.4219  -51.9869 C.3       17 UNK         0.1400 
     96 CB          0.3852  -26.9592  -52.2493 C.3       17 UNK        -0.1800 
     97 C          -1.9302  -26.4858  -53.2441 C.2       17 UNK         0.5000 
     98 O          -1.7028  -27.3248  -54.1172 O.2       17 UNK        -0.5000 
     99 N          -2.9046  -25.5685  -53.3274 N.am      18 UNK        -0.5000 
    100 CA        -3.7814  -25.2808  -54.4645 C.3       18 UNK         0.1400 
    101 CB        -4.7509  -26.4532  -54.7153 C.3       18 UNK        -0.1800 
    102 C         -3.0330  -24.8427  -55.7451 C.2       18 UNK         0.5000 
    103 O         -3.6279  -24.8563  -56.8238 O.2       18 UNK        -0.5000 
    104 N         -1.7556  -24.4500  -55.6206 N.am      19 UNK        -0.5000 
    105 CA        -0.9362  -23.9572  -56.7262 C.3       19 UNK         0.1400 
    106 CB         0.5533  -24.1261  -56.3882 C.3       19 UNK        -0.1800 
    107 C         -1.2731  -22.4918  -57.0360 C.2       19 UNK         0.5000 
    108 O         -1.4419  -22.1386  -58.2039 O.2       19 UNK        -0.5000 
    109 N         -1.3987  -21.6784  -55.9785 N.am      20 UNK        -0.5000 
    110 CA        -1.8957  -20.3071  -56.0629 C.3       20 UNK         0.1400 
    111 CB        -1.3013  -19.4702  -54.9246 C.3       20 UNK        -0.1800 
    112 C         -3.4323  -20.2861  -56.0179 C.2       20 UNK         0.5000 
    113 O         -4.0448  -19.5945  -56.8318 O.2       20 UNK        -0.5000 
    114 N         -4.0157  -21.0658  -55.0891 N.am      21 UNK        -0.5000 
    115 CA        -5.4557  -21.2520  -54.8728 C.3       21 UNK         0.1400 
    116 CB        -6.0845  -22.0373  -56.0422 C.3       21 UNK        -0.1800 
    117 C         -6.1815  -19.9232  -54.5727 C.2       21 UNK         0.5000 
    118 O         -7.1654  -19.5827  -55.2319 O.2       21 UNK        -0.5000 
    119 N         -5.6437  -19.1857  -53.5933 N.am      22 UNK        -0.5000 
    120 CA        -6.0618  -17.8275  -53.1982 C.3       22 UNK         0.1400 
    121 C         -7.5263  -17.6832  -52.6839 C.2       22 UNK         0.5000 
    122 N         -8.2047  -18.7538  -52.2893 N.am      22 UNK        -0.7600 
    123 O         -8.0530  -16.5750  -52.6378 O.2       22 UNK        -0.5000 
    124 C124       -5.0883  -17.1968  -52.1660 C.3       23 UNK        -0.0398 
    125 S125       -3.3221  -17.3563  -52.6089 S.3       23 UNK        -0.2404 
    126 C126       -2.7645  -18.6193  -51.4207 C.3       23 UNK        -0.0205 
    127 H127       -3.3617  -15.2495  -50.2652 H         1 UNK         0.0600 
    128 H128       -4.1451  -13.8996  -51.0797 H         1 UNK         0.0600 
    129 H129       -4.6586  -14.3639  -49.4521 H         1 UNK         0.0600 
    130 H130       -1.6944  -14.8427  -48.7603 H         1 UNK         0.3000 
    131 H131       -0.3100  -12.3548  -48.9078 H         1 UNK         0.0600 
    132 H132        1.3103  -13.3780  -47.3590 H         1 UNK         0.0800 
    133 H133        0.1980  -14.6329  -46.9214 H         1 UNK         0.0800 
    134 H134        1.4974  -17.3791  -49.0298 H         1 UNK         0.0800 
    135 H135        1.1385  -16.7545  -47.4435 H         1 UNK         0.0800 
    136 H136       -0.2913  -17.7824  -50.6935 H         1 UNK         0.1150 
    137 H137       -4.3009  -18.1135  -49.2095 H         1 UNK         0.1150 
    138 H138       -1.2366  -16.4391  -46.7337 H         1 UNK         0.1150 
    139 H139       -4.9165  -17.2282  -47.1018 H         1 UNK         0.0800 
    140 H140       -3.9519  -15.8429  -46.6604 H         1 UNK         0.0800 
    141 H141       -5.3276  -19.1839  -45.6865 H         1 UNK         0.0800 
    142 H142       -4.4603  -19.6238  -44.2486 H         1 UNK         0.0800 
    143 H143       -3.7647  -20.2270  -47.1511 H         1 UNK         0.0600 
    144 H144       -1.7624  -19.7810  -45.1748 H         1 UNK         0.3000 
    145 H145        0.7351  -21.8942  -46.5704 H         1 UNK         0.0600 
    146 H146        2.0046  -19.8073  -46.7319 H         1 UNK         0.0600 
    147 H147        0.7696  -19.7966  -47.9809 H         1 UNK         0.0600 
    148 H148        0.5419  -18.8451  -46.5153 H         1 UNK         0.0600 
    149 H149        0.6327  -19.9715  -44.4043 H         1 UNK         0.3000 
    150 H150       -0.4303  -22.2571  -41.8977 H         1 UNK         0.0600 
    151 H151        1.9435  -22.8461  -42.0400 H         1 UNK         0.0600 
    152 H152        1.7520  -21.5553  -40.8629 H         1 UNK         0.0600 
    153 H153        2.3865  -21.2032  -42.4709 H         1 UNK         0.0600 
    154 H154        0.5076  -19.5578  -41.7893 H         1 UNK         0.3000 
    155 H155       -2.5421  -17.9486  -42.5237 H         1 UNK         0.0600 
    156 H156       -3.2687  -18.9367  -40.3515 H         1 UNK         0.0600 
    157 H157       -2.7145  -17.2830  -40.1507 H         1 UNK         0.0600 
    158 H158       -1.6774  -18.6266  -39.6675 H         1 UNK         0.0600 
    159 H159       -0.3694  -17.0019  -41.0005 H         1 UNK         0.3000 
    160 H160        1.0264  -15.2551  -43.4437 H         1 UNK         0.0600 
    161 H161        1.6043  -16.3345  -40.6253 H         1 UNK         0.0600 
    162 H162        0.4536  -15.0550  -41.0125 H         1 UNK         0.0600 
    163 H163        2.1674  -14.8103  -41.2906 H         1 UNK         0.0600 
    164 H164        3.0413  -16.0866  -43.8371 H         1 UNK         0.3000 
    165 H165        4.9338  -18.8184  -42.7061 H         1 UNK         0.0600 
    166 H166        5.1349  -19.4695  -45.0870 H         1 UNK         0.0600 
    167 H167        3.5753  -19.9852  -44.4648 H         1 UNK         0.0600 
    168 H168        3.6794  -18.5595  -45.4915 H         1 UNK         0.0600 
    169 H169        5.2739  -16.8533  -44.7966 H         1 UNK         0.3000 
    170 H170        7.4818  -14.9847  -43.0547 H         1 UNK         0.0600 
    171 H171        5.6837  -14.9510  -45.5473 H         1 UNK         0.0600 
    172 H172        7.1991  -14.0848  -45.3452 H         1 UNK         0.0600 
    173 H173        7.1976  -15.8369  -45.3731 H         1 UNK         0.0600 
    174 H174        6.3836  -13.1797  -42.4093 H         1 UNK         0.3000 
    175 H175        4.5011  -12.0936  -41.5327 H         1 UNK         0.0600 
    176 H176        4.1494  -10.8564  -44.3321 H         1 UNK         0.0600 
    177 H177        4.2367   -9.9513  -42.8221 H         1 UNK         0.0600 
    178 H178        5.6397  -10.8388  -43.3952 H         1 UNK         0.0600 
    179 H179        2.1661  -12.6176  -43.2210 H         1 UNK         0.3000 
    180 H180        0.1458  -12.7887  -41.7488 H         1 UNK         0.0600 
    181 H181       -0.2982  -10.1135  -40.3277 H         1 UNK         0.0600 
    182 H182       -0.1065  -11.6749  -39.5378 H         1 UNK         0.0600 
    183 H183       -1.5018  -11.3810  -40.5616 H         1 UNK         0.0600 
    184 H184       -0.6068  -10.1707  -42.7429 H         1 UNK         0.3000 
    185 H185       -1.5921  -10.3985  -45.0562 H         1 UNK         0.0600 
    186 H186        1.3084   -9.4712  -45.4915 H         1 UNK         0.0600 
    187 H187       -0.1194   -8.6647  -46.1401 H         1 UNK         0.0600 
    188 H188        0.1414   -8.7255  -44.4075 H         1 UNK         0.0600 
    189 H189        0.3793  -11.0520  -47.1041 H         1 UNK         0.3000 
    190 H190       -3.1291  -21.6849  -43.9487 H         1 UNK         0.3000 
    191 H191       -5.1681  -23.6159  -43.9279 H         1 UNK         0.0600 
    192 H192       -2.4501  -23.6134  -42.5099 H         1 UNK         0.0600 
    193 H193       -3.9281  -22.8630  -41.9111 H         1 UNK         0.0600 
    194 H194       -3.8305  -24.6108  -42.0668 H         1 UNK         0.0600 
    195 H195       -1.8554  -23.8245  -45.2305 H         1 UNK         0.3000 
    196 H196       -1.9853  -26.6143  -45.9725 H         1 UNK         0.0600 
    197 H197        0.1562  -25.4661  -45.4771 H         1 UNK         0.0600 
    198 H198       -0.0916  -24.3694  -46.8357 H         1 UNK         0.0600 
    199 H199        0.1599  -26.0893  -47.1174 H         1 UNK         0.0600 
    200 H200       -4.3015  -25.7634  -46.8527 H         1 UNK         0.3000 
    201 H201       -5.7630  -25.6830  -48.5261 H         1 UNK         0.0600 
    202 H202       -5.3315  -27.2309  -50.4146 H         1 UNK         0.0600 
    203 H203       -4.7495  -27.9319  -48.9146 H         1 UNK         0.0600 
    204 H204       -3.6092  -27.2315  -50.0609 H         1 UNK         0.0600 
    205 H205       -4.4250  -23.2611  -48.3436 H         1 UNK         0.3000 
    206 H206       -3.9905  -21.3253  -49.3455 H         1 UNK         0.0600 
    207 H207       -6.3441  -21.6183  -50.1282 H         1 UNK         0.0600 
    208 H208       -5.7719  -22.3771  -51.6101 H         1 UNK         0.0600 
    209 H209       -5.4023  -20.6914  -51.2768 H         1 UNK         0.0600 
    210 H210       -1.8482  -22.5208  -49.3770 H         1 UNK         0.3000 
    211 H211        0.1460  -22.9812  -50.1660 H         1 UNK         0.0600 
    212 H212        0.0578  -20.6118  -50.9639 H         1 UNK         0.0600 
    213 H213        1.0745  -21.6145  -51.9896 H         1 UNK         0.0600 
    214 H214       -0.5322  -21.1651  -52.5313 H         1 UNK         0.0600 
    215 H215       -1.2512  -25.0692  -50.3918 H         1 UNK         0.3000 
    216 H216       -1.5048  -27.0727  -51.2481 H         1 UNK         0.0600 
    217 H217        0.3596  -28.0004  -52.5728 H         1 UNK         0.0600 
    218 H218        0.8951  -26.3871  -53.0252 H         1 UNK         0.0600 
    219 H219        0.9945  -26.9179  -51.3464 H         1 UNK         0.0600 
    220 H220       -3.0549  -24.9715  -52.5213 H         1 UNK         0.3000 
    221 H221       -4.3792  -24.4201  -54.1610 H         1 UNK         0.0600 
    222 H222       -4.2313  -27.3365  -55.0872 H         1 UNK         0.0600 
    223 H223       -5.2750  -26.7309  -53.8006 H         1 UNK         0.0600 
    224 H224       -5.5086  -26.1850  -55.4523 H         1 UNK         0.0600 
    225 H225       -1.3278  -24.4406  -54.6996 H         1 UNK         0.3000 
    226 H226       -1.1474  -24.5531  -57.6168 H         1 UNK         0.0600 
    227 H227        0.7891  -25.1650  -56.1567 H         1 UNK         0.0600 
    228 H228        1.1778  -23.8295  -57.2317 H         1 UNK         0.0600 
    229 H229        0.8497  -23.5178  -55.5334 H         1 UNK         0.0600 
    230 H230       -1.2334  -22.0567  -55.0565 H         1 UNK         0.3000 
    231 H231       -1.5736  -19.8604  -57.0063 H         1 UNK         0.0600 
    232 H232       -1.5961  -18.4242  -55.0163 H         1 UNK         0.0600 
    233 H233       -0.2118  -19.5056  -54.9287 H         1 UNK         0.0600 
    234 H234       -1.6487  -19.8242  -53.9574 H         1 UNK         0.0600 
    235 H235       -3.4212  -21.5458  -54.4245 H         1 UNK         0.3000 
    236 H236       -5.5551  -21.8672  -53.9779 H         1 UNK         0.0600 
    237 H237       -5.5777  -22.9891  -56.1961 H         1 UNK         0.0600 
    238 H238       -7.1338  -22.2588  -55.8440 H         1 UNK         0.0600 
    239 H239       -6.0390  -21.4798  -56.9782 H         1 UNK         0.0600 
    240 H240       -4.8037  -19.5277  -53.1527 H         1 UNK         0.3000 
    241 H241       -6.0058  -17.2240  -54.1060 H         1 UNK         0.0600 
    242 H242       -9.1519  -18.6462  -51.9619 H         1 UNK         0.3800 
    243 H243       -7.7939  -19.6710  -52.3408 H         1 UNK         0.3800 
    244 H244       -5.3014  -16.1320  -52.0579 H         1 UNK         0.0800 
    245 H245       -5.2567  -17.6315  -51.1815 H         1 UNK         0.0800 
    246 H246       -1.9231  -19.1637  -51.8462 H         1 UNK         0.0800 
    247 H247       -3.5511  -19.3528  -51.2645 H         1 UNK         0.0800 
@<TRIPOS>BOND
     1    1    2 1    
     2    1  127 1    
     3    1  128 1    
     4    1  129 1    
     5    2    3 2    
     6    2    4 am   BACKBONE|DICT|INTERRES
     7    4    5 1    
     8    4  130 1    
     9    5    6 1    
    10    5   65 1    
    11    5  131 1    
    12    6    7 1    
    13    6  132 1    
    14    6  133 1    
    15    7    8 1    
    16    8    9 1    
    17    8  134 1    
    18    8  135 1    
    19    9   10 ar   
    20    9   14 ar   
    21   10   11 ar   
    22   10  136 1    
    23   11   12 ar   
    24   11  126 1    
    25   12   13 ar   
    26   12  137 1    
    27   13   14 ar   
    28   13   15 1    
    29   14  138 1    
    30   15   16 1    
    31   15  139 1    
    32   15  140 1    
    33   16   17 1    
    34   17   18 1    
    35   17  141 1    
    36   17  142 1    
    37   18   19 1    
    38   18   67 1    
    39   18  143 1    
    40   19   20 am   BACKBONE|DICT|INTERRES
    41   19  144 1    
    42   20   21 2    
    43   20   22 1    
    44   22   23 1    
    45   22   24 1    
    46   22  145 1    
    47   23  146 1    
    48   23  147 1    
    49   23  148 1    
    50   24   25 am   BACKBONE|DICT|INTERRES
    51   24  149 1    
    52   25   26 2    
    53   25   27 1    
    54   27   28 1    
    55   27   29 1    
    56   27  150 1    
    57   28  151 1    
    58   28  152 1    
    59   28  153 1    
    60   29   30 am   BACKBONE|DICT|INTERRES
    61   29  154 1    
    62   30   31 2    
    63   30   32 1    
    64   32   33 1    
    65   32   34 1    
    66   32  155 1    
    67   33  156 1    
    68   33  157 1    
    69   33  158 1    
    70   34   35 am   BACKBONE|DICT|INTERRES
    71   34  159 1    
    72   35   36 2    
    73   35   37 1    
    74   37   38 1    
    75   37   39 1    
    76   37  160 1    
    77   38  161 1    
    78   38  162 1    
    79   38  163 1    
    80   39   40 am   BACKBONE|DICT|INTERRES
    81   39  164 1    
    82   40   41 2    
    83   40   42 1    
    84   42   43 1    
    85   42   44 1    
    86   42  165 1    
    87   43  166 1    
    88   43  167 1    
    89   43  168 1    
    90   44   45 am   BACKBONE|DICT|INTERRES
    91   44  169 1    
    92   45   46 2    
    93   45   47 1    
    94   47   48 1    
    95   47   49 1    
    96   47  170 1    
    97   48  171 1    
    98   48  172 1    
    99   48  173 1    
   100   49   50 am   BACKBONE|DICT|INTERRES
   101   49  174 1    
   102   50   51 2    
   103   50   52 1    
   104   52   53 1    
   105   52   54 1    
   106   52  175 1    
   107   53  176 1    
   108   53  177 1    
   109   53  178 1    
   110   54   55 am   BACKBONE|DICT|INTERRES
   111   54  179 1    
   112   55   56 2    
   113   55   57 1    
   114   57   58 1    
   115   57   59 1    
   116   57  180 1    
   117   58  181 1    
   118   58  182 1    
   119   58  183 1    
   120   59   60 am   BACKBONE|DICT|INTERRES
   121   59  184 1    
   122   60   61 2    
   123   60   62 1    
   124   62   63 1    
   125   62   64 1    
   126   62  185 1    
   127   63  186 1    
   128   63  187 1    
   129   63  188 1    
   130   64   65 am   BACKBONE|DICT|INTERRES
   131   64  189 1    
   132   65   66 2    
   133   67   68 2    
   134   67   69 am   BACKBONE|DICT|INTERRES
   135   69   70 1    
   136   69  190 1    
   137   70   71 1    
   138   70   72 1    
   139   70  191 1    
   140   71  192 1    
   141   71  193 1    
   142   71  194 1    
   143   72   73 2    
   144   72   74 am   BACKBONE|DICT|INTERRES
   145   74   75 1    
   146   74  195 1    
   147   75   76 1    
   148   75   77 1    
   149   75  196 1    
   150   76  197 1    
   151   76  198 1    
   152   76  199 1    
   153   77   78 2    
   154   77   79 am   BACKBONE|DICT|INTERRES
   155   79   80 1    
   156   79  200 1    
   157   80   81 1    
   158   80   82 1    
   159   80  201 1    
   160   81  202 1    
   161   81  203 1    
   162   81  204 1    
   163   82   83 2    
   164   82   84 am   BACKBONE|DICT|INTERRES
   165   84   85 1    
   166   84  205 1    
   167   85   86 1    
   168   85   87 1    
   169   85  206 1    
   170   86  207 1    
   171   86  208 1    
   172   86  209 1    
   173   87   88 2    
   174   87   89 am   BACKBONE|DICT|INTERRES
   175   89   90 1    
   176   89  210 1    
   177   90   91 1    
   178   90   92 1    
   179   90  211 1    
   180   91  212 1    
   181   91  213 1    
   182   91  214 1    
   183   92   93 2    
   184   92   94 am   BACKBONE|DICT|INTERRES
   185   94   95 1    
   186   94  215 1    
   187   95   96 1    
   188   95   97 1    
   189   95  216 1    
   190   96  217 1    
   191   96  218 1    
   192   96  219 1    
   193   97   98 2    
   194   97   99 am   BACKBONE|DICT|INTERRES
   195   99  100 1    
   196   99  220 1    
   197  100  101 1    
   198  100  102 1    
   199  100  221 1    
   200  101  222 1    
   201  101  223 1    
   202  101  224 1    
   203  102  103 2    
   204  102  104 am   BACKBONE|DICT|INTERRES
   205  104  105 1    
   206  104  225 1    
   207  105  106 1    
   208  105  107 1    
   209  105  226 1    
   210  106  227 1    
   211  106  228 1    
   212  106  229 1    
   213  107  108 2    
   214  107  109 am   BACKBONE|DICT|INTERRES
   215  109  110 1    
   216  109  230 1    
   217  110  111 1    
   218  110  112 1    
   219  110  231 1    
   220  111  232 1    
   221  111  233 1    
   222  111  234 1    
   223  112  113 2    
   224  112  114 am   BACKBONE|DICT|INTERRES
   225  114  115 1    
   226  114  235 1    
   227  115  116 1    
   228  115  117 1    
   229  115  236 1    
   230  116  237 1    
   231  116  238 1    
   232  116  239 1    
   233  117  118 2    
   234  117  119 am   BACKBONE|DICT|INTERRES
   235  119  120 1    
   236  119  240 1    
   237  120  121 1    
   238  120  124 1    
   239  120  241 1    
   240  121  122 am   BACKBONE|DICT|INTERRES
   241  121  123 2    
   242  122  242 1    
   243  122  243 1    
   244  124  125 1    
   245  124  244 1    
   246  124  245 1    
   247  125  126 1    
   248  126  246 1    
   249  126  247 1    
@<TRIPOS>SUBSTRUCTURE
     1 UNK         1 GROUP             0       ****    0 ROOT    
