@<TRIPOS>MOLECULE
3R540
247   249    1
SMALL
USER_CHARGES


@<TRIPOS>ATOM
      1 CA         -0.8852  -14.8807  -44.2490 C.3       0 UNK        -0.1800 
      2 C          -0.9022  -13.9212  -45.4290 C.2       0 UNK         0.5000 
      3 O          -1.6593  -12.9507  -45.4184 O.2       0 UNK        -0.5000 
      4 N          -0.0661  -14.1722  -46.4449 N.am      1 UNK        -0.5000 
      5 CA          0.0069  -13.3799  -47.6856 C.3       1 UNK         0.1400 
      6 C6          0.4341  -14.2107  -48.9279 C.3       23 UNK        -0.0398 
      7 S7          1.8355  -15.3477  -48.6535 S.3       23 UNK        -0.2404 
      8 C8          0.9345  -16.8619  -48.1897 C.3       23 UNK        -0.0205 
      9 C9          0.7932  -17.8482  -49.3386 C.ar      23 UNK        -0.0193 
     10 C10        -0.2087  -17.7021  -50.3042 C.ar      23 UNK        -0.1150 
     11 C11        -0.3343  -18.6363  -51.3385 C.ar      23 UNK        -0.0193 
     12 C12         0.5310  -19.7342  -51.3841 C.ar      23 UNK        -0.1150 
     13 C13         1.5243  -19.8979  -50.4168 C.ar      23 UNK        -0.0193 
     14 C14         1.6592  -18.9410  -49.4098 C.ar      23 UNK        -0.1150 
     15 C15         2.4657  -21.0934  -50.4676 C.3       23 UNK        -0.0205 
     16 S16         1.7164  -22.6109  -49.7890 S.3       23 UNK        -0.2404 
     17 C17         1.4951  -22.1877  -48.0250 C.3       23 UNK        -0.0398 
     18 CA          0.1177  -22.5949  -47.4492 C.3       11 UNK         0.1400 
     19 N           0.0783  -22.4187  -45.9951 N.am      11 UNK        -0.5000 
     20 C          -0.8110  -23.0046  -45.1810 C.2       10 UNK         0.5000 
     21 O          -1.6741  -23.7901  -45.5700 O.2       10 UNK        -0.5000 
     22 CA         -0.7521  -22.6181  -43.6898 C.3       10 UNK         0.1400 
     23 CB          0.2597  -23.5001  -42.9440 C.3       10 UNK        -0.1800 
     24 N          -0.4135  -21.2090  -43.4791 N.am      10 UNK        -0.5000 
     25 C          -1.1903  -20.1806  -43.8473 C.2       9 UNK         0.5000 
     26 O          -2.3058  -20.3202  -44.3450 O.2       9 UNK        -0.5000 
     27 CA         -0.6106  -18.7615  -43.6866 C.3       9 UNK         0.1400 
     28 CB         -1.0749  -18.1369  -42.3647 C.3       9 UNK        -0.1800 
     29 N           0.8521  -18.6941  -43.7745 N.am      9 UNK        -0.5000 
     30 C           1.5675  -19.0656  -44.8468 C.2       8 UNK         0.5000 
     31 O           1.0609  -19.5636  -45.8549 O.2       8 UNK        -0.5000 
     32 CA          3.0969  -18.8740  -44.7587 C.3       8 UNK         0.1400 
     33 CB          3.8096  -19.0361  -46.1161 C.3       8 UNK        -0.1800 
     34 N           3.5140  -17.6194  -44.1249 N.am      8 UNK        -0.5000 
     35 C           3.1662  -16.3680  -44.4589 C.2       7 UNK         0.5000 
     36 O           2.3253  -16.0859  -45.3130 O.2       7 UNK        -0.5000 
     37 CA          3.8900  -15.2452  -43.6903 C.3       7 UNK         0.1400 
     38 CB          3.4308  -13.8429  -44.1225 C.3       7 UNK        -0.1800 
     39 N           3.7232  -15.3827  -42.2428 N.am      7 UNK        -0.5000 
     40 C           4.4441  -16.1974  -41.4570 C.2       6 UNK         0.5000 
     41 O           5.3277  -16.9385  -41.8902 O.2       6 UNK        -0.5000 
     42 CA          4.1289  -16.2148  -39.9475 C.3       6 UNK         0.1400 
     43 CB          5.1718  -15.3926  -39.1749 C.3       6 UNK        -0.1800 
     44 N           2.7971  -15.7094  -39.6197 N.am      6 UNK        -0.5000 
     45 C           1.6416  -16.3115  -39.9322 C.2       5 UNK         0.5000 
     46 O           1.5698  -17.4093  -40.4853 O.2       5 UNK        -0.5000 
     47 CA          0.3532  -15.5283  -39.6050 C.3       5 UNK         0.1400 
     48 CB         -0.2157  -15.9709  -38.2489 C.3       5 UNK        -0.1800 
     49 N           0.5338  -14.0702  -39.6018 N.am      5 UNK        -0.5000 
     50 C           0.8956  -13.3508  -40.6727 C.2       4 UNK         0.5000 
     51 O           1.1494  -13.8491  -41.7698 O.2       4 UNK        -0.5000 
     52 CA          1.0725  -11.8366  -40.4707 C.3       4 UNK         0.1400 
     53 CB          2.5541  -11.5065  -40.2328 C.3       4 UNK        -0.1800 
     54 N           0.6031  -11.0834  -41.6320 N.am      4 UNK        -0.5000 
     55 C          -0.6741  -10.9732  -42.0126 C.2       3 UNK         0.5000 
     56 O          -1.6145  -11.4501  -41.3753 O.2       3 UNK        -0.5000 
     57 CA         -0.9663  -10.2035  -43.3156 C.3       3 UNK         0.1400 
     58 CB         -1.1038   -8.6922  -43.0497 C.3       3 UNK        -0.1800 
     59 N          -0.0407  -10.4732  -44.4252 N.am      3 UNK        -0.5000 
     60 C           1.2533  -10.1443  -44.5648 C.2       2 UNK         0.5000 
     61 O           1.9129   -9.5787  -43.6918 O.2       2 UNK        -0.5000 
     62 CA          1.9139  -10.5406  -45.9008 C.3       2 UNK         0.1400 
     63 CB          3.4503  -10.5900  -45.8274 C.3       2 UNK        -0.1800 
     64 N           1.3882  -11.8317  -46.3488 N.am      2 UNK        -0.5000 
     65 C           0.7919  -12.0570  -47.5267 C.2       1 UNK         0.5000 
     66 O           0.7856  -11.2410  -48.4496 O.2       1 UNK        -0.5000 
     67 C          -1.0655  -21.8648  -48.1207 C.2       11 UNK         0.5000 
     68 O          -1.6582  -22.4073  -49.0556 O.2       11 UNK        -0.5000 
     69 N          -1.4365  -20.6898  -47.5884 N.am      12 UNK        -0.5000 
     70 CA         -2.6300  -19.9520  -48.0019 C.3       12 UNK         0.1400 
     71 CB         -2.6293  -18.5446  -47.3922 C.3       12 UNK        -0.1800 
     72 C          -3.9300  -20.6967  -47.6499 C.2       12 UNK         0.5000 
     73 O          -4.8150  -20.7962  -48.4976 O.2       12 UNK        -0.5000 
     74 N          -4.0074  -21.2494  -46.4306 N.am      13 UNK        -0.5000 
     75 CA         -5.1271  -22.0657  -45.9510 C.3       13 UNK         0.1400 
     76 CB         -4.9343  -22.3770  -44.4595 C.3       13 UNK        -0.1800 
     77 C          -5.3153  -23.3646  -46.7582 C.2       13 UNK         0.5000 
     78 O          -6.4516  -23.7676  -47.0080 O.2       13 UNK        -0.5000 
     79 N          -4.1996  -23.9686  -47.1881 N.am      14 UNK        -0.5000 
     80 CA         -4.1631  -25.1145  -48.0976 C.3       14 UNK         0.1400 
     81 CB         -2.7960  -25.8052  -47.9653 C.3       14 UNK        -0.1800 
     82 C          -4.4279  -24.7393  -49.5706 C.2       14 UNK         0.5000 
     83 O          -4.5467  -25.6418  -50.3990 O.2       14 UNK        -0.5000 
     84 N          -4.4721  -23.4363  -49.8864 N.am      15 UNK        -0.5000 
     85 CA         -4.6287  -22.8422  -51.2170 C.3       15 UNK         0.1400 
     86 CB         -6.0592  -23.0710  -51.7413 C.3       15 UNK        -0.1800 
     87 C          -3.5339  -23.3059  -52.1995 C.2       15 UNK         0.5000 
     88 O          -3.8367  -23.7040  -53.3258 O.2       15 UNK        -0.5000 
     89 N          -2.2799  -23.2928  -51.7218 N.am      16 UNK        -0.5000 
     90 CA         -1.0763  -23.7903  -52.3968 C.3       16 UNK         0.1400 
     91 CB         -0.7676  -22.9531  -53.6562 C.3       16 UNK        -0.1800 
     92 C          -1.1528  -25.3045  -52.6905 C.2       16 UNK         0.5000 
     93 O          -0.7271  -25.7474  -53.7566 O.2       16 UNK        -0.5000 
     94 N          -1.7343  -26.0637  -51.7486 N.am      17 UNK        -0.5000 
     95 CA         -2.0977  -27.4832  -51.8569 C.3       17 UNK         0.1400 
     96 CB         -0.8453  -28.3762  -51.9794 C.3       17 UNK        -0.1800 
     97 C          -3.1369  -27.7188  -52.9747 C.2       17 UNK         0.5000 
     98 O          -2.9747  -28.6126  -53.8071 O.2       17 UNK        -0.5000 
     99 N          -4.1748  -26.8704  -52.9709 N.am      18 UNK        -0.5000 
    100 CA        -5.2962  -26.7871  -53.9128 C.3       18 UNK         0.1400 
    101 CB        -6.1603  -28.0630  -53.8415 C.3       18 UNK        -0.1800 
    102 C         -4.9057  -26.4204  -55.3629 C.2       18 UNK         0.5000 
    103 O         -5.7297  -26.5779  -56.2659 O.2       18 UNK        -0.5000 
    104 N         -3.6774  -25.9296  -55.5758 N.am      19 UNK        -0.5000 
    105 CA        -3.1742  -25.5045  -56.8831 C.3       19 UNK         0.1400 
    106 CB        -1.6470  -25.6653  -56.9119 C.3       19 UNK        -0.1800 
    107 C         -3.5625  -24.0554  -57.2318 C.2       19 UNK         0.5000 
    108 O         -3.5038  -23.6888  -58.4067 O.2       19 UNK        -0.5000 
    109 N         -3.9298  -23.2568  -56.2235 N.am      20 UNK        -0.5000 
    110 CA        -4.2879  -21.8473  -56.3431 C.3       20 UNK         0.1400 
    111 CB        -3.1383  -21.0054  -55.7561 C.3       20 UNK        -0.1800 
    112 C         -5.6319  -21.5783  -55.6414 C.2       20 UNK         0.5000 
    113 O         -6.3669  -22.5137  -55.3164 O.2       20 UNK        -0.5000 
    114 N         -5.9337  -20.2935  -55.4330 N.am      21 UNK        -0.5000 
    115 CA        -7.1087  -19.7904  -54.7270 C.3       21 UNK         0.1400 
    116 CB        -8.2244  -19.4664  -55.7383 C.3       21 UNK        -0.1800 
    117 C         -6.6663  -18.5804  -53.8887 C.2       21 UNK         0.5000 
    118 O         -7.1198  -17.4580  -54.1185 O.2       21 UNK        -0.5000 
    119 N         -5.7158  -18.8375  -52.9827 N.am      22 UNK        -0.5000 
    120 CA        -5.0402  -17.8592  -52.1152 C.3       22 UNK         0.1400 
    121 C         -6.0089  -17.0474  -51.2090 C.2       22 UNK         0.5000 
    122 N         -5.7420  -15.7657  -50.9971 N.am      22 UNK        -0.7600 
    123 O         -6.9710  -17.5800  -50.6605 O.2       22 UNK        -0.5000 
    124 C124       -3.9515  -18.5389  -51.2447 C.3       23 UNK        -0.0398 
    125 S125       -2.7949  -19.5677  -52.2124 S.3       23 UNK        -0.2404 
    126 C126       -1.3757  -18.4539  -52.4319 C.3       23 UNK        -0.0205 
    127 H127        0.0463  -15.4426  -44.1955 H         1 UNK         0.0600 
    128 H128       -1.7101  -15.5879  -44.3304 H         1 UNK         0.0600 
    129 H129       -0.9998  -14.3310  -43.3149 H         1 UNK         0.0600 
    130 H130        0.5935  -14.9400  -46.3762 H         1 UNK         0.3000 
    131 H131       -1.0110  -13.0497  -47.9052 H         1 UNK         0.0600 
    132 H132        0.6805  -13.5625  -49.7706 H         1 UNK         0.0800 
    133 H133       -0.4208  -14.7923  -49.2721 H         1 UNK         0.0800 
    134 H134       -0.0446  -16.6067  -47.7895 H         1 UNK         0.0800 
    135 H135        1.4646  -17.3392  -47.3681 H         1 UNK         0.0800 
    136 H136       -0.8830  -16.8598  -50.2576 H         1 UNK         0.1150 
    137 H137        0.4342  -20.4619  -52.1758 H         1 UNK         0.1150 
    138 H138        2.4333  -19.0562  -48.6665 H         1 UNK         0.1150 
    139 H139        2.7554  -21.2792  -51.5028 H         1 UNK         0.0800 
    140 H140        3.3899  -20.8774  -49.9293 H         1 UNK         0.0800 
    141 H141        2.2844  -22.7000  -47.4735 H         1 UNK         0.0800 
    142 H142        1.6696  -21.1267  -47.8640 H         1 UNK         0.0800 
    143 H143       -0.0128  -23.6605  -47.6500 H         1 UNK         0.0600 
    144 H144        0.6975  -21.7154  -45.6145 H         1 UNK         0.3000 
    145 H145       -1.7404  -22.7960  -43.2611 H         1 UNK         0.0600 
    146 H146        0.2536  -23.2892  -41.8744 H         1 UNK         0.0600 
    147 H147        0.0202  -24.5573  -43.0668 H         1 UNK         0.0600 
    148 H148        1.2756  -23.3487  -43.3111 H         1 UNK         0.0600 
    149 H149        0.4867  -21.0084  -43.0693 H         1 UNK         0.3000 
    150 H150       -1.0095  -18.1569  -44.5033 H         1 UNK         0.0600 
    151 H151       -0.6897  -18.6840  -41.5036 H         1 UNK         0.0600 
    152 H152       -2.1633  -18.1333  -42.2935 H         1 UNK         0.0600 
    153 H153       -0.7416  -17.1031  -42.2843 H         1 UNK         0.0600 
    154 H154        1.3355  -18.2946  -42.9813 H         1 UNK         0.3000 
    155 H155        3.4526  -19.6752  -44.1097 H         1 UNK         0.0600 
    156 H156        3.5490  -19.9804  -46.5951 H         1 UNK         0.0600 
    157 H157        4.8921  -19.0306  -45.9900 H         1 UNK         0.0600 
    158 H158        3.5559  -18.2297  -46.8032 H         1 UNK         0.0600 
    159 H159        4.1993  -17.7096  -43.3817 H         1 UNK         0.3000 
    160 H160        4.9521  -15.3249  -43.9310 H         1 UNK         0.0600 
    161 H161        2.3549  -13.7130  -44.0117 H         1 UNK         0.0600 
    162 H162        3.6726  -13.6670  -45.1714 H         1 UNK         0.0600 
    163 H163        3.9252  -13.0697  -43.5347 H         1 UNK         0.0600 
    164 H164        2.9537  -14.8594  -41.8400 H         1 UNK         0.3000 
    165 H165        4.1908  -17.2521  -39.6118 H         1 UNK         0.0600 
    166 H166        5.0070  -15.4561  -38.0991 H         1 UNK         0.0600 
    167 H167        6.1809  -15.7586  -39.3692 H         1 UNK         0.0600 
    168 H168        5.1442  -14.3396  -39.4585 H         1 UNK         0.0600 
    169 H169        2.7548  -14.8100  -39.1645 H         1 UNK         0.3000 
    170 H170       -0.3809  -15.7673  -40.3760 H         1 UNK         0.0600 
    171 H171       -0.3869  -17.0482  -38.2306 H         1 UNK         0.0600 
    172 H172        0.4636  -15.7322  -37.4297 H         1 UNK         0.0600 
    173 H173       -1.1719  -15.4885  -38.0453 H         1 UNK         0.0600 
    174 H174        0.3535  -13.5964  -38.7281 H         1 UNK         0.3000 
    175 H175        0.4958  -11.5211  -39.5988 H         1 UNK         0.0600 
    176 H176        3.1717  -11.7943  -41.0851 H         1 UNK         0.0600 
    177 H177        2.6976  -10.4394  -40.0615 H         1 UNK         0.0600 
    178 H178        2.9381  -12.0304  -39.3566 H         1 UNK         0.0600 
    179 H179        1.3063  -10.6506  -42.2227 H         1 UNK         0.3000 
    180 H180       -1.9374  -10.5577  -43.6653 H         1 UNK         0.0600 
    181 H181       -0.1776   -8.2568  -42.6739 H         1 UNK         0.0600 
    182 H182       -1.8775   -8.4984  -42.3058 H         1 UNK         0.0600 
    183 H183       -1.3838   -8.1560  -43.9565 H         1 UNK         0.0600 
    184 H184       -0.4615  -11.0015  -45.1794 H         1 UNK         0.3000 
    185 H185        1.6423   -9.7570  -46.6107 H         1 UNK         0.0600 
    186 H186        3.7993  -11.2371  -45.0253 H         1 UNK         0.0600 
    187 H187        3.8801  -10.9484  -46.7629 H         1 UNK         0.0600 
    188 H188        3.8604   -9.5967  -45.6417 H         1 UNK         0.0600 
    189 H189        1.3369  -12.5593  -45.6499 H         1 UNK         0.3000 
    190 H190       -0.8837  -20.2992  -46.8363 H         1 UNK         0.3000 
    191 H191       -2.5830  -19.8486  -49.0870 H         1 UNK         0.0600 
    192 H192       -2.6815  -18.5682  -46.3044 H         1 UNK         0.0600 
    193 H193       -1.7320  -18.0022  -47.6737 H         1 UNK         0.0600 
    194 H194       -3.4828  -17.9666  -47.7487 H         1 UNK         0.0600 
    195 H195       -3.2654  -21.0614  -45.7606 H         1 UNK         0.3000 
    196 H196       -6.0382  -21.4738  -46.0602 H         1 UNK         0.0600 
    197 H197       -4.8698  -21.4621  -43.8704 H         1 UNK         0.0600 
    198 H198       -4.0260  -22.9535  -44.2835 H         1 UNK         0.0600 
    199 H199       -5.7720  -22.9566  -44.0698 H         1 UNK         0.0600 
    200 H200       -3.3031  -23.6138  -46.8736 H         1 UNK         0.3000 
    201 H201       -4.9356  -25.8252  -47.7974 H         1 UNK         0.0600 
    202 H202       -2.7456  -26.7027  -48.5826 H         1 UNK         0.0600 
    203 H203       -2.6080  -26.1118  -46.9362 H         1 UNK         0.0600 
    204 H204       -1.9822  -25.1471  -48.2715 H         1 UNK         0.0600 
    205 H205       -4.3553  -22.7654  -49.1370 H         1 UNK         0.3000 
    206 H206       -4.4931  -21.7684  -51.0898 H         1 UNK         0.0600 
    207 H207       -6.8008  -22.7177  -51.0249 H         1 UNK         0.0600 
    208 H208       -6.2572  -24.1248  -51.9370 H         1 UNK         0.0600 
    209 H209       -6.2241  -22.5271  -52.6704 H         1 UNK         0.0600 
    210 H210       -2.1333  -22.9488  -50.7736 H         1 UNK         0.3000 
    211 H211       -0.2547  -23.6516  -51.6951 H         1 UNK         0.0600 
    212 H212       -0.8174  -21.8855  -53.4472 H         1 UNK         0.0600 
    213 H213        0.2333  -23.1687  -54.0307 H         1 UNK         0.0600 
    214 H214       -1.4688  -23.1640  -54.4635 H         1 UNK         0.0600 
    215 H215       -2.0903  -25.5897  -50.9314 H         1 UNK         0.3000 
    216 H216       -2.5940  -27.7455  -50.9216 H         1 UNK         0.0600 
    217 H217       -0.3219  -28.2212  -52.9231 H         1 UNK         0.0600 
    218 H218       -0.1423  -28.1816  -51.1696 H         1 UNK         0.0600 
    219 H219       -1.1155  -29.4315  -51.9282 H         1 UNK         0.0600 
    220 H220       -4.2187  -26.2040  -52.2040 H         1 UNK         0.3000 
    221 H221       -5.9102  -25.9576  -53.5603 H         1 UNK         0.0600 
    222 H222       -5.6356  -28.9301  -54.2433 H         1 UNK         0.0600 
    223 H223       -6.4454  -28.2886  -52.8139 H         1 UNK         0.0600 
    224 H224       -7.0820  -27.9462  -54.4125 H         1 UNK         0.0600 
    225 H225       -3.0603  -25.8065  -54.7842 H         1 UNK         0.3000 
    226 H226       -3.5917  -26.1550  -57.6544 H         1 UNK         0.0600 
    227 H227       -1.3472  -26.6730  -56.6233 H         1 UNK         0.0600 
    228 H228       -1.2559  -25.4823  -57.9133 H         1 UNK         0.0600 
    229 H229       -1.1562  -24.9620  -56.2389 H         1 UNK         0.0600 
    230 H230       -3.9988  -23.6383  -55.2831 H         1 UNK         0.3000 
    231 H231       -4.4221  -21.5743  -57.3915 H         1 UNK         0.0600 
    232 H232       -3.2963  -19.9371  -55.9052 H         1 UNK         0.0600 
    233 H233       -2.1884  -21.2540  -56.2297 H         1 UNK         0.0600 
    234 H234       -3.0287  -21.1796  -54.6859 H         1 UNK         0.0600 
    235 H235       -5.2698  -19.5867  -55.7184 H         1 UNK         0.3000 
    236 H236       -7.4814  -20.5437  -54.0293 H         1 UNK         0.0600 
    237 H237       -8.5300  -20.3589  -56.2846 H         1 UNK         0.0600 
    238 H238       -9.1085  -19.0760  -55.2328 H         1 UNK         0.0600 
    239 H239       -7.9035  -18.7216  -56.4675 H         1 UNK         0.0600 
    240 H240       -5.3870  -19.7865  -52.8936 H         1 UNK         0.3000 
    241 H241       -4.5413  -17.1542  -52.7829 H         1 UNK         0.0600 
    242 H242       -4.9594  -15.3052  -51.4351 H         1 UNK         0.3800 
    243 H243       -6.3551  -15.2326  -50.3998 H         1 UNK         0.3800 
    244 H244       -3.3874  -17.7974  -50.6764 H         1 UNK         0.0800 
    245 H245       -4.4265  -19.1870  -50.5084 H         1 UNK         0.0800 
    246 H246       -1.7130  -17.4178  -52.4848 H         1 UNK         0.0800 
    247 H247       -0.9161  -18.6693  -53.3976 H         1 UNK         0.0800 
@<TRIPOS>BOND
     1    1    2 1    
     2    1  127 1    
     3    1  128 1    
     4    1  129 1    
     5    2    3 2    
     6    2    4 am   BACKBONE|DICT|INTERRES
     7    4    5 1    
     8    4  130 1    
     9    5    6 1    
    10    5   65 1    
    11    5  131 1    
    12    6    7 1    
    13    6  132 1    
    14    6  133 1    
    15    7    8 1    
    16    8    9 1    
    17    8  134 1    
    18    8  135 1    
    19    9   10 ar   
    20    9   14 ar   
    21   10   11 ar   
    22   10  136 1    
    23   11   12 ar   
    24   11  126 1    
    25   12   13 ar   
    26   12  137 1    
    27   13   14 ar   
    28   13   15 1    
    29   14  138 1    
    30   15   16 1    
    31   15  139 1    
    32   15  140 1    
    33   16   17 1    
    34   17   18 1    
    35   17  141 1    
    36   17  142 1    
    37   18   19 1    
    38   18   67 1    
    39   18  143 1    
    40   19   20 am   BACKBONE|DICT|INTERRES
    41   19  144 1    
    42   20   21 2    
    43   20   22 1    
    44   22   23 1    
    45   22   24 1    
    46   22  145 1    
    47   23  146 1    
    48   23  147 1    
    49   23  148 1    
    50   24   25 am   BACKBONE|DICT|INTERRES
    51   24  149 1    
    52   25   26 2    
    53   25   27 1    
    54   27   28 1    
    55   27   29 1    
    56   27  150 1    
    57   28  151 1    
    58   28  152 1    
    59   28  153 1    
    60   29   30 am   BACKBONE|DICT|INTERRES
    61   29  154 1    
    62   30   31 2    
    63   30   32 1    
    64   32   33 1    
    65   32   34 1    
    66   32  155 1    
    67   33  156 1    
    68   33  157 1    
    69   33  158 1    
    70   34   35 am   BACKBONE|DICT|INTERRES
    71   34  159 1    
    72   35   36 2    
    73   35   37 1    
    74   37   38 1    
    75   37   39 1    
    76   37  160 1    
    77   38  161 1    
    78   38  162 1    
    79   38  163 1    
    80   39   40 am   BACKBONE|DICT|INTERRES
    81   39  164 1    
    82   40   41 2    
    83   40   42 1    
    84   42   43 1    
    85   42   44 1    
    86   42  165 1    
    87   43  166 1    
    88   43  167 1    
    89   43  168 1    
    90   44   45 am   BACKBONE|DICT|INTERRES
    91   44  169 1    
    92   45   46 2    
    93   45   47 1    
    94   47   48 1    
    95   47   49 1    
    96   47  170 1    
    97   48  171 1    
    98   48  172 1    
    99   48  173 1    
   100   49   50 am   BACKBONE|DICT|INTERRES
   101   49  174 1    
   102   50   51 2    
   103   50   52 1    
   104   52   53 1    
   105   52   54 1    
   106   52  175 1    
   107   53  176 1    
   108   53  177 1    
   109   53  178 1    
   110   54   55 am   BACKBONE|DICT|INTERRES
   111   54  179 1    
   112   55   56 2    
   113   55   57 1    
   114   57   58 1    
   115   57   59 1    
   116   57  180 1    
   117   58  181 1    
   118   58  182 1    
   119   58  183 1    
   120   59   60 am   BACKBONE|DICT|INTERRES
   121   59  184 1    
   122   60   61 2    
   123   60   62 1    
   124   62   63 1    
   125   62   64 1    
   126   62  185 1    
   127   63  186 1    
   128   63  187 1    
   129   63  188 1    
   130   64   65 am   BACKBONE|DICT|INTERRES
   131   64  189 1    
   132   65   66 2    
   133   67   68 2    
   134   67   69 am   BACKBONE|DICT|INTERRES
   135   69   70 1    
   136   69  190 1    
   137   70   71 1    
   138   70   72 1    
   139   70  191 1    
   140   71  192 1    
   141   71  193 1    
   142   71  194 1    
   143   72   73 2    
   144   72   74 am   BACKBONE|DICT|INTERRES
   145   74   75 1    
   146   74  195 1    
   147   75   76 1    
   148   75   77 1    
   149   75  196 1    
   150   76  197 1    
   151   76  198 1    
   152   76  199 1    
   153   77   78 2    
   154   77   79 am   BACKBONE|DICT|INTERRES
   155   79   80 1    
   156   79  200 1    
   157   80   81 1    
   158   80   82 1    
   159   80  201 1    
   160   81  202 1    
   161   81  203 1    
   162   81  204 1    
   163   82   83 2    
   164   82   84 am   BACKBONE|DICT|INTERRES
   165   84   85 1    
   166   84  205 1    
   167   85   86 1    
   168   85   87 1    
   169   85  206 1    
   170   86  207 1    
   171   86  208 1    
   172   86  209 1    
   173   87   88 2    
   174   87   89 am   BACKBONE|DICT|INTERRES
   175   89   90 1    
   176   89  210 1    
   177   90   91 1    
   178   90   92 1    
   179   90  211 1    
   180   91  212 1    
   181   91  213 1    
   182   91  214 1    
   183   92   93 2    
   184   92   94 am   BACKBONE|DICT|INTERRES
   185   94   95 1    
   186   94  215 1    
   187   95   96 1    
   188   95   97 1    
   189   95  216 1    
   190   96  217 1    
   191   96  218 1    
   192   96  219 1    
   193   97   98 2    
   194   97   99 am   BACKBONE|DICT|INTERRES
   195   99  100 1    
   196   99  220 1    
   197  100  101 1    
   198  100  102 1    
   199  100  221 1    
   200  101  222 1    
   201  101  223 1    
   202  101  224 1    
   203  102  103 2    
   204  102  104 am   BACKBONE|DICT|INTERRES
   205  104  105 1    
   206  104  225 1    
   207  105  106 1    
   208  105  107 1    
   209  105  226 1    
   210  106  227 1    
   211  106  228 1    
   212  106  229 1    
   213  107  108 2    
   214  107  109 am   BACKBONE|DICT|INTERRES
   215  109  110 1    
   216  109  230 1    
   217  110  111 1    
   218  110  112 1    
   219  110  231 1    
   220  111  232 1    
   221  111  233 1    
   222  111  234 1    
   223  112  113 2    
   224  112  114 am   BACKBONE|DICT|INTERRES
   225  114  115 1    
   226  114  235 1    
   227  115  116 1    
   228  115  117 1    
   229  115  236 1    
   230  116  237 1    
   231  116  238 1    
   232  116  239 1    
   233  117  118 2    
   234  117  119 am   BACKBONE|DICT|INTERRES
   235  119  120 1    
   236  119  240 1    
   237  120  121 1    
   238  120  124 1    
   239  120  241 1    
   240  121  122 am   BACKBONE|DICT|INTERRES
   241  121  123 2    
   242  122  242 1    
   243  122  243 1    
   244  124  125 1    
   245  124  244 1    
   246  124  245 1    
   247  125  126 1    
   248  126  246 1    
   249  126  247 1    
@<TRIPOS>SUBSTRUCTURE
     1 UNK         1 GROUP             0       ****    0 ROOT    
