@<TRIPOS>MOLECULE
3R540
247   249    1
SMALL
USER_CHARGES


@<TRIPOS>ATOM
      1 CA          3.6411  -15.5902  -48.0314 C.3       0 UNK        -0.1800 
      2 C           2.2057  -15.1353  -48.2504 C.2       0 UNK         0.5000 
      3 O           1.4151  -15.1294  -47.3091 O.2       0 UNK        -0.5000 
      4 N           1.8574  -14.7548  -49.4853 N.am      1 UNK        -0.5000 
      5 CA          0.5197  -14.3022  -49.8829 C.3       1 UNK         0.1400 
      6 C6          0.2238  -14.6722  -51.3623 C.3       23 UNK        -0.0398 
      7 S7         -1.5449  -14.9949  -51.6976 S.3       23 UNK        -0.2404 
      8 C8         -1.8877  -16.5311  -50.7678 C.3       23 UNK        -0.0205 
      9 C9         -0.8310  -17.6035  -50.9893 C.ar      23 UNK        -0.0193 
     10 C10        -0.8035  -18.3321  -52.1811 C.ar      23 UNK        -0.1150 
     11 C11         0.2044  -19.2731  -52.4119 C.ar      23 UNK        -0.0193 
     12 C12         1.1737  -19.4974  -51.4321 C.ar      23 UNK        -0.1150 
     13 C13         1.1322  -18.8053  -50.2193 C.ar      23 UNK        -0.0193 
     14 C14         0.1291  -17.8569  -50.0048 C.ar      23 UNK        -0.1150 
     15 C15         2.1520  -19.1071  -49.1301 C.3       23 UNK        -0.0205 
     16 S16         2.0455  -20.8351  -48.5638 S.3       23 UNK        -0.2404 
     17 C17         0.2856  -20.9206  -48.0990 C.3       23 UNK        -0.0398 
     18 CA         -0.0473  -22.1835  -47.2814 C.3       11 UNK         0.1400 
     19 N           0.5811  -22.1790  -45.9577 N.am      11 UNK        -0.5000 
     20 C           0.6455  -23.2489  -45.1546 C.2       10 UNK         0.5000 
     21 O           0.2019  -24.3553  -45.4608 O.2       10 UNK        -0.5000 
     22 CA          1.2550  -23.0373  -43.7574 C.3       10 UNK         0.1400 
     23 CB          2.7891  -23.0067  -43.8250 C.3       10 UNK        -0.1800 
     24 N           0.7598  -21.8217  -43.1099 N.am      10 UNK        -0.5000 
     25 C          -0.5196  -21.6162  -42.7653 C.2       9 UNK         0.5000 
     26 O          -1.4077  -22.4558  -42.9131 O.2       9 UNK        -0.5000 
     27 CA         -0.8813  -20.2246  -42.2130 C.3       9 UNK         0.1400 
     28 CB         -0.5115  -20.1071  -40.7273 C.3       9 UNK        -0.1800 
     29 N          -0.2527  -19.1378  -42.9636 N.am      9 UNK        -0.5000 
     30 C          -0.4744  -18.8773  -44.2602 C.2       8 UNK         0.5000 
     31 O          -1.2670  -19.5029  -44.9612 O.2       8 UNK        -0.5000 
     32 CA          0.3729  -17.7628  -44.8932 C.3       8 UNK         0.1400 
     33 CB         -0.2148  -16.3850  -44.5583 C.3       8 UNK        -0.1800 
     34 N           1.7698  -17.8308  -44.4629 N.am      8 UNK        -0.5000 
     35 C           2.5989  -18.8425  -44.7574 C.2       7 UNK         0.5000 
     36 O           2.2749  -19.8129  -45.4392 O.2       7 UNK        -0.5000 
     37 CA          4.0075  -18.7857  -44.1405 C.3       7 UNK         0.1400 
     38 CB          4.9050  -17.8159  -44.9245 C.3       7 UNK        -0.1800 
     39 N           3.9799  -18.3971  -42.7299 N.am      7 UNK        -0.5000 
     40 C           3.4253  -19.1281  -41.7512 C.2       6 UNK         0.5000 
     41 O           2.9348  -20.2429  -41.9255 O.2       6 UNK        -0.5000 
     42 CA          3.3598  -18.4811  -40.3527 C.3       6 UNK         0.1400 
     43 CB          4.6317  -18.7971  -39.5522 C.3       6 UNK        -0.1800 
     44 N           3.1574  -17.0285  -40.3918 N.am      6 UNK        -0.5000 
     45 C           2.1012  -16.4236  -40.9519 C.2       5 UNK         0.5000 
     46 O           1.1694  -17.0407  -41.4750 O.2       5 UNK        -0.5000 
     47 CA          2.1365  -14.8831  -40.9847 C.3       5 UNK         0.1400 
     48 CB          3.2732  -14.3871  -41.8955 C.3       5 UNK        -0.1800 
     49 N           0.8853  -14.3253  -41.4888 N.am      5 UNK        -0.5000 
     50 C          -0.2670  -14.2314  -40.8202 C.2       4 UNK         0.5000 
     51 O          -0.3801  -14.4998  -39.6223 O.2       4 UNK        -0.5000 
     52 CA         -1.4882  -13.7456  -41.6379 C.3       4 UNK         0.1400 
     53 CB         -2.7671  -13.6439  -40.7868 C.3       4 UNK        -0.1800 
     54 N          -1.2735  -12.4599  -42.3130 N.am      4 UNK        -0.5000 
     55 C          -0.4969  -12.2445  -43.3832 C.2       3 UNK         0.5000 
     56 O           0.1929  -13.1191  -43.9126 O.2       3 UNK        -0.5000 
     57 CA         -0.4587  -10.7998  -43.9203 C.3       3 UNK         0.1400 
     58 CB          0.4164   -9.9155  -43.0170 C.3       3 UNK        -0.1800 
     59 N           0.0637  -10.7260  -45.2863 N.am      3 UNK        -0.5000 
     60 C          -0.5384  -11.2200  -46.3762 C.2       2 UNK         0.5000 
     61 O          -1.6635  -11.7240  -46.3642 O.2       2 UNK        -0.5000 
     62 CA          0.2309  -11.1403  -47.7066 C.3       2 UNK         0.1400 
     63 CB          1.6324  -10.4994  -47.6076 C.3       2 UNK        -0.1800 
     64 N           0.3479  -12.4864  -48.2559 N.am      2 UNK        -0.5000 
     65 C           0.3394  -12.8029  -49.5545 C.2       1 UNK         0.5000 
     66 O           0.2414  -11.9682  -50.4562 O.2       1 UNK        -0.5000 
     67 C          -1.5740  -22.3941  -47.2139 C.2       11 UNK         0.5000 
     68 O          -2.1321  -23.0007  -48.1281 O.2       11 UNK        -0.5000 
     69 N          -2.2304  -21.9065  -46.1529 N.am      12 UNK        -0.5000 
     70 CA         -3.6492  -22.1400  -45.8833 C.3       12 UNK         0.1400 
     71 CB         -4.1545  -21.1529  -44.8219 C.3       12 UNK        -0.1800 
     72 C          -3.9222  -23.5946  -45.4685 C.2       12 UNK         0.5000 
     73 O          -4.8836  -24.1859  -45.9578 O.2       12 UNK        -0.5000 
     74 N          -3.0477  -24.1662  -44.6275 N.am      13 UNK        -0.5000 
     75 CA         -3.0797  -25.5754  -44.2240 C.3       13 UNK         0.1400 
     76 CB         -2.0634  -25.8121  -43.0969 C.3       13 UNK        -0.1800 
     77 C          -2.8316  -26.5387  -45.4021 C.2       13 UNK         0.5000 
     78 O          -3.4739  -27.5862  -45.4791 O.2       13 UNK        -0.5000 
     79 N          -1.9422  -26.1419  -46.3229 N.am      14 UNK        -0.5000 
     80 CA         -1.6745  -26.8250  -47.5918 C.3       14 UNK         0.1400 
     81 CB         -0.3228  -26.3352  -48.1354 C.3       14 UNK        -0.1800 
     82 C          -2.7802  -26.6205  -48.6513 C.2       14 UNK         0.5000 
     83 O          -2.7396  -27.2764  -49.6922 O.2       14 UNK        -0.5000 
     84 N          -3.7211  -25.7026  -48.3836 N.am      15 UNK        -0.5000 
     85 CA         -4.8498  -25.2681  -49.2146 C.3       15 UNK         0.1400 
     86 CB         -5.7850  -26.4429  -49.5631 C.3       15 UNK        -0.1800 
     87 C          -4.4564  -24.4470  -50.4599 C.2       15 UNK         0.5000 
     88 O          -5.3360  -24.0834  -51.2403 O.2       15 UNK        -0.5000 
     89 N          -3.1694  -24.1095  -50.6066 N.am      16 UNK        -0.5000 
     90 CA         -2.6304  -23.2892  -51.6907 C.3       16 UNK         0.1400 
     91 CB         -1.0964  -23.3472  -51.6540 C.3       16 UNK        -0.1800 
     92 C          -3.1206  -21.8342  -51.6159 C.2       16 UNK         0.5000 
     93 O          -3.4839  -21.2598  -52.6439 O.2       16 UNK        -0.5000 
     94 N          -3.1652  -21.2844  -50.3933 N.am      17 UNK        -0.5000 
     95 CA         -3.7030  -19.9492  -50.1251 C.3       17 UNK         0.1400 
     96 CB         -3.1521  -19.4124  -48.7960 C.3       17 UNK        -0.1800 
     97 C          -5.2409  -19.9294  -50.1159 C.2       17 UNK         0.5000 
     98 O          -5.8288  -18.9043  -50.4573 O.2       17 UNK        -0.5000 
     99 N          -5.8629  -21.0602  -49.7493 N.am      18 UNK        -0.5000 
    100 CA        -7.3167  -21.2401  -49.7385 C.3       18 UNK         0.1400 
    101 CB        -7.6783  -22.5026  -48.9406 C.3       18 UNK        -0.1800 
    102 C         -7.8952  -21.3020  -51.1634 C.2       18 UNK         0.5000 
    103 O         -8.9112  -20.6633  -51.4383 O.2       18 UNK        -0.5000 
    104 N         -7.2108  -22.0365  -52.0518 N.am      19 UNK        -0.5000 
    105 CA        -7.5034  -22.0957  -53.4847 C.3       19 UNK         0.1400 
    106 CB        -6.7959  -23.3223  -54.0820 C.3       19 UNK        -0.1800 
    107 C         -7.0731  -20.8218  -54.2387 C.2       19 UNK         0.5000 
    108 O         -7.5721  -20.5788  -55.3379 O.2       19 UNK        -0.5000 
    109 N         -6.1438  -20.0565  -53.6443 N.am      20 UNK        -0.5000 
    110 CA        -5.4616  -18.8804  -54.1929 C.3       20 UNK         0.1400 
    111 CB        -6.4440  -17.7089  -54.3926 C.3       20 UNK        -0.1800 
    112 C         -4.6610  -19.2355  -55.4619 C.2       20 UNK         0.5000 
    113 O         -4.7147  -18.5184  -56.4634 O.2       20 UNK        -0.5000 
    114 N         -3.9313  -20.3581  -55.3875 N.am      21 UNK        -0.5000 
    115 CA        -3.2099  -20.9933  -56.4956 C.3       21 UNK         0.1400 
    116 CB        -2.6431  -22.3336  -56.0007 C.3       21 UNK        -0.1800 
    117 C         -2.0930  -20.1273  -57.1123 C.2       21 UNK         0.5000 
    118 O         -1.7204  -20.3417  -58.2664 O.2       21 UNK        -0.5000 
    119 N         -1.5945  -19.1660  -56.3303 N.am      22 UNK        -0.5000 
    120 CA        -0.5790  -18.1785  -56.7157 C.3       22 UNK         0.1400 
    121 C         -1.1836  -16.8791  -57.3272 C.2       22 UNK         0.5000 
    122 N         -2.5001  -16.7289  -57.4314 N.am      22 UNK        -0.7600 
    123 O         -0.4405  -15.9891  -57.7316 O.2       22 UNK        -0.5000 
    124 C124        0.3655  -17.8618  -55.5265 C.3       23 UNK        -0.0398 
    125 S125        1.3152  -19.3214  -54.9682 S.3       23 UNK        -0.2404 
    126 C126        0.2383  -20.0731  -53.7026 C.3       23 UNK        -0.0205 
    127 H127        4.2135  -15.5876  -48.9592 H         1 UNK         0.0600 
    128 H128        4.1384  -14.9313  -47.3198 H         1 UNK         0.0600 
    129 H129        3.6544  -16.6017  -47.6261 H         1 UNK         0.0600 
    130 H130        2.5575  -14.7415  -50.2133 H         1 UNK         0.3000 
    131 H131       -0.2015  -14.8346  -49.2611 H         1 UNK         0.0600 
    132 H132        0.5798  -13.9054  -52.0519 H         1 UNK         0.0800 
    133 H133        0.7768  -15.5673  -51.6488 H         1 UNK         0.0800 
    134 H134       -2.8626  -16.9107  -51.0757 H         1 UNK         0.0800 
    135 H135       -1.9815  -16.2999  -49.7059 H         1 UNK         0.0800 
    136 H136       -1.5591  -18.1525  -52.9321 H         1 UNK         0.1150 
    137 H137        1.9484  -20.2322  -51.6014 H         1 UNK         0.1150 
    138 H138        0.0981  -17.3123  -49.0716 H         1 UNK         0.1150 
    139 H139        2.0126  -18.4487  -48.2711 H         1 UNK         0.0800 
    140 H140        3.1556  -18.9142  -49.5109 H         1 UNK         0.0800 
    141 H141       -0.2882  -20.9065  -49.0275 H         1 UNK         0.0800 
    142 H142        0.0133  -20.0210  -47.5440 H         1 UNK         0.0800 
    143 H143        0.3546  -23.0403  -47.8257 H         1 UNK         0.0600 
    144 H144        1.0200  -21.3102  -45.6646 H         1 UNK         0.3000 
    145 H145        0.9621  -23.8869  -43.1372 H         1 UNK         0.0600 
    146 H146        3.2251  -22.9403  -42.8281 H         1 UNK         0.0600 
    147 H147        3.1774  -23.9133  -44.2906 H         1 UNK         0.0600 
    148 H148        3.1521  -22.1581  -44.4049 H         1 UNK         0.0600 
    149 H149        1.4457  -21.0998  -42.9115 H         1 UNK         0.3000 
    150 H150       -1.9626  -20.1029  -42.3027 H         1 UNK         0.0600 
    151 H151        0.5588  -20.2335  -40.5668 H         1 UNK         0.0600 
    152 H152       -1.0233  -20.8687  -40.1378 H         1 UNK         0.0600 
    153 H153       -0.7975  -19.1351  -40.3248 H         1 UNK         0.0600 
    154 H154        0.3893  -18.5368  -42.4544 H         1 UNK         0.3000 
    155 H155        0.3499  -17.8890  -45.9779 H         1 UNK         0.0600 
    156 H156       -0.2961  -16.2272  -43.4839 H         1 UNK         0.0600 
    157 H157       -1.2140  -16.2753  -44.9809 H         1 UNK         0.0600 
    158 H158        0.3992  -15.5830  -44.9644 H         1 UNK         0.0600 
    159 H159        2.0880  -17.1003  -43.8451 H         1 UNK         0.3000 
    160 H160        4.4427  -19.7851  -44.2082 H         1 UNK         0.0600 
    161 H161        4.5306  -16.7922  -44.8830 H         1 UNK         0.0600 
    162 H162        4.9611  -18.1028  -45.9755 H         1 UNK         0.0600 
    163 H163        5.9228  -17.8176  -44.5342 H         1 UNK         0.0600 
    164 H164        4.3651  -17.4946  -42.4956 H         1 UNK         0.3000 
    165 H165        2.5091  -18.9193  -39.8273 H         1 UNK         0.0600 
    166 H166        4.5593  -18.4211  -38.5315 H         1 UNK         0.0600 
    167 H167        5.5175  -18.3566  -40.0115 H         1 UNK         0.0600 
    168 H168        4.7953  -19.8738  -39.4892 H         1 UNK         0.0600 
    169 H169        3.8868  -16.4626  -39.9823 H         1 UNK         0.3000 
    170 H170        2.3049  -14.5188  -39.9693 H         1 UNK         0.0600 
    171 H171        4.2485  -14.7157  -41.5353 H         1 UNK         0.0600 
    172 H172        3.1581  -14.7516  -42.9174 H         1 UNK         0.0600 
    173 H173        3.2976  -13.2977  -41.9335 H         1 UNK         0.0600 
    174 H174        0.8648  -14.0653  -42.4718 H         1 UNK         0.3000 
    175 H175       -1.6696  -14.5005  -42.4053 H         1 UNK         0.0600 
    176 H176       -2.6674  -12.8973  -39.9980 H         1 UNK         0.0600 
    177 H177       -3.6280  -13.3735  -41.3986 H         1 UNK         0.0600 
    178 H178       -2.9986  -14.5977  -40.3108 H         1 UNK         0.0600 
    179 H179       -1.7688  -11.6742  -41.9168 H         1 UNK         0.3000 
    180 H180       -1.4773  -10.4064  -43.9222 H         1 UNK         0.0600 
    181 H181        1.4463  -10.2734  -42.9809 H         1 UNK         0.0600 
    182 H182        0.0395   -9.9000  -41.9937 H         1 UNK         0.0600 
    183 H183        0.4315   -8.8839  -43.3695 H         1 UNK         0.0600 
    184 H184        0.9985  -10.3592  -45.3849 H         1 UNK         0.3000 
    185 H185       -0.3802  -10.5276  -48.3726 H         1 UNK         0.0600 
    186 H186        2.1020  -10.4381  -48.5896 H         1 UNK         0.0600 
    187 H187        1.5784   -9.4813  -47.2200 H         1 UNK         0.0600 
    188 H188        2.2974  -11.0751  -46.9624 H         1 UNK         0.0600 
    189 H189        0.4423  -13.2370  -47.5788 H         1 UNK         0.3000 
    190 H190       -1.7309  -21.3188  -45.4920 H         1 UNK         0.3000 
    191 H191       -4.2082  -21.9544  -46.8025 H         1 UNK         0.0600 
    192 H192       -5.2178  -21.2989  -44.6284 H         1 UNK         0.0600 
    193 H193       -4.0220  -20.1219  -45.1502 H         1 UNK         0.0600 
    194 H194       -3.6290  -21.2718  -43.8747 H         1 UNK         0.0600 
    195 H195       -2.3109  -23.5938  -44.2248 H         1 UNK         0.3000 
    196 H196       -4.0763  -25.7855  -43.8303 H         1 UNK         0.0600 
    197 H197       -1.0439  -25.6037  -43.4212 H         1 UNK         0.0600 
    198 H198       -2.2755  -25.1778  -42.2361 H         1 UNK         0.0600 
    199 H199       -2.0941  -26.8472  -42.7546 H         1 UNK         0.0600 
    200 H200       -1.3891  -25.3119  -46.1300 H         1 UNK         0.3000 
    201 H201       -1.5987  -27.8969  -47.3990 H         1 UNK         0.0600 
    202 H202       -0.3495  -25.2724  -48.3754 H         1 UNK         0.0600 
    203 H203       -0.0481  -26.8697  -49.0455 H         1 UNK         0.0600 
    204 H204        0.4764  -26.4956  -47.4115 H         1 UNK         0.0600 
    205 H205       -3.6500  -25.2204  -47.4968 H         1 UNK         0.3000 
    206 H206       -5.4172  -24.5838  -48.5843 H         1 UNK         0.0600 
    207 H207       -6.0701  -26.9981  -48.6695 H         1 UNK         0.0600 
    208 H208       -6.7043  -26.0849  -50.0281 H         1 UNK         0.0600 
    209 H209       -5.3210  -27.1405  -50.2605 H         1 UNK         0.0600 
    210 H210       -2.5324  -24.3558  -49.8611 H         1 UNK         0.3000 
    211 H211       -2.9704  -23.7102  -52.6393 H         1 UNK         0.0600 
    212 H212       -0.6680  -22.7861  -52.4840 H         1 UNK         0.0600 
    213 H213       -0.7390  -24.3737  -51.7388 H         1 UNK         0.0600 
    214 H214       -0.6953  -22.9285  -50.7300 H         1 UNK         0.0600 
    215 H215       -2.8545  -21.8384  -49.6021 H         1 UNK         0.3000 
    216 H216       -3.3724  -19.2794  -50.9208 H         1 UNK         0.0600 
    217 H217       -3.4540  -20.0288  -47.9514 H         1 UNK         0.0600 
    218 H218       -3.5156  -18.4019  -48.6052 H         1 UNK         0.0600 
    219 H219       -2.0656  -19.3618  -48.8087 H         1 UNK         0.0600 
    220 H220       -5.3007  -21.8617  -49.5114 H         1 UNK         0.3000 
    221 H221       -7.7606  -20.3810  -49.2307 H         1 UNK         0.0600 
    222 H222       -7.2436  -22.4807  -47.9409 H         1 UNK         0.0600 
    223 H223       -7.3371  -23.4098  -49.4385 H         1 UNK         0.0600 
    224 H224       -8.7592  -22.5869  -48.8230 H         1 UNK         0.0600 
    225 H225       -6.4286  -22.6017  -51.7313 H         1 UNK         0.3000 
    226 H226       -8.5802  -22.2177  -53.6187 H         1 UNK         0.0600 
    227 H227       -5.7124  -23.2515  -53.9751 H         1 UNK         0.0600 
    228 H228       -7.1202  -24.2415  -53.5936 H         1 UNK         0.0600 
    229 H229       -7.0156  -23.4234  -55.1456 H         1 UNK         0.0600 
    230 H230       -5.7897  -20.3811  -52.7561 H         1 UNK         0.3000 
    231 H231       -4.7302  -18.5731  -53.4438 H         1 UNK         0.0600 
    232 H232       -7.1793  -17.9205  -55.1693 H         1 UNK         0.0600 
    233 H233       -5.9134  -16.8018  -54.6842 H         1 UNK         0.0600 
    234 H234       -6.9827  -17.4879  -53.4710 H         1 UNK         0.0600 
    235 H235       -3.9006  -20.8417  -54.4937 H         1 UNK         0.3000 
    236 H236       -3.9349  -21.1969  -57.2860 H         1 UNK         0.0600 
    237 H237       -3.4378  -22.9914  -55.6480 H         1 UNK         0.0600 
    238 H238       -2.1190  -22.8578  -56.8009 H         1 UNK         0.0600 
    239 H239       -1.9372  -22.1938  -55.1811 H         1 UNK         0.0600 
    240 H240       -1.9946  -19.0571  -55.4120 H         1 UNK         0.3000 
    241 H241        0.0351  -18.6093  -57.5087 H         1 UNK         0.0600 
    242 H242       -2.8661  -15.8824  -57.8373 H         1 UNK         0.3800 
    243 H243       -3.1442  -17.4497  -57.1235 H         1 UNK         0.3800 
    244 H244       -0.1855  -17.4241  -54.6952 H         1 UNK         0.0800 
    245 H245        1.0991  -17.1091  -55.8202 H         1 UNK         0.0800 
    246 H246       -0.7717  -20.2207  -54.0809 H         1 UNK         0.0800 
    247 H247        0.6202  -21.0729  -53.4939 H         1 UNK         0.0800 
@<TRIPOS>BOND
     1    1    2 1    
     2    1  127 1    
     3    1  128 1    
     4    1  129 1    
     5    2    3 2    
     6    2    4 am   BACKBONE|DICT|INTERRES
     7    4    5 1    
     8    4  130 1    
     9    5    6 1    
    10    5   65 1    
    11    5  131 1    
    12    6    7 1    
    13    6  132 1    
    14    6  133 1    
    15    7    8 1    
    16    8    9 1    
    17    8  134 1    
    18    8  135 1    
    19    9   10 ar   
    20    9   14 ar   
    21   10   11 ar   
    22   10  136 1    
    23   11   12 ar   
    24   11  126 1    
    25   12   13 ar   
    26   12  137 1    
    27   13   14 ar   
    28   13   15 1    
    29   14  138 1    
    30   15   16 1    
    31   15  139 1    
    32   15  140 1    
    33   16   17 1    
    34   17   18 1    
    35   17  141 1    
    36   17  142 1    
    37   18   19 1    
    38   18   67 1    
    39   18  143 1    
    40   19   20 am   BACKBONE|DICT|INTERRES
    41   19  144 1    
    42   20   21 2    
    43   20   22 1    
    44   22   23 1    
    45   22   24 1    
    46   22  145 1    
    47   23  146 1    
    48   23  147 1    
    49   23  148 1    
    50   24   25 am   BACKBONE|DICT|INTERRES
    51   24  149 1    
    52   25   26 2    
    53   25   27 1    
    54   27   28 1    
    55   27   29 1    
    56   27  150 1    
    57   28  151 1    
    58   28  152 1    
    59   28  153 1    
    60   29   30 am   BACKBONE|DICT|INTERRES
    61   29  154 1    
    62   30   31 2    
    63   30   32 1    
    64   32   33 1    
    65   32   34 1    
    66   32  155 1    
    67   33  156 1    
    68   33  157 1    
    69   33  158 1    
    70   34   35 am   BACKBONE|DICT|INTERRES
    71   34  159 1    
    72   35   36 2    
    73   35   37 1    
    74   37   38 1    
    75   37   39 1    
    76   37  160 1    
    77   38  161 1    
    78   38  162 1    
    79   38  163 1    
    80   39   40 am   BACKBONE|DICT|INTERRES
    81   39  164 1    
    82   40   41 2    
    83   40   42 1    
    84   42   43 1    
    85   42   44 1    
    86   42  165 1    
    87   43  166 1    
    88   43  167 1    
    89   43  168 1    
    90   44   45 am   BACKBONE|DICT|INTERRES
    91   44  169 1    
    92   45   46 2    
    93   45   47 1    
    94   47   48 1    
    95   47   49 1    
    96   47  170 1    
    97   48  171 1    
    98   48  172 1    
    99   48  173 1    
   100   49   50 am   BACKBONE|DICT|INTERRES
   101   49  174 1    
   102   50   51 2    
   103   50   52 1    
   104   52   53 1    
   105   52   54 1    
   106   52  175 1    
   107   53  176 1    
   108   53  177 1    
   109   53  178 1    
   110   54   55 am   BACKBONE|DICT|INTERRES
   111   54  179 1    
   112   55   56 2    
   113   55   57 1    
   114   57   58 1    
   115   57   59 1    
   116   57  180 1    
   117   58  181 1    
   118   58  182 1    
   119   58  183 1    
   120   59   60 am   BACKBONE|DICT|INTERRES
   121   59  184 1    
   122   60   61 2    
   123   60   62 1    
   124   62   63 1    
   125   62   64 1    
   126   62  185 1    
   127   63  186 1    
   128   63  187 1    
   129   63  188 1    
   130   64   65 am   BACKBONE|DICT|INTERRES
   131   64  189 1    
   132   65   66 2    
   133   67   68 2    
   134   67   69 am   BACKBONE|DICT|INTERRES
   135   69   70 1    
   136   69  190 1    
   137   70   71 1    
   138   70   72 1    
   139   70  191 1    
   140   71  192 1    
   141   71  193 1    
   142   71  194 1    
   143   72   73 2    
   144   72   74 am   BACKBONE|DICT|INTERRES
   145   74   75 1    
   146   74  195 1    
   147   75   76 1    
   148   75   77 1    
   149   75  196 1    
   150   76  197 1    
   151   76  198 1    
   152   76  199 1    
   153   77   78 2    
   154   77   79 am   BACKBONE|DICT|INTERRES
   155   79   80 1    
   156   79  200 1    
   157   80   81 1    
   158   80   82 1    
   159   80  201 1    
   160   81  202 1    
   161   81  203 1    
   162   81  204 1    
   163   82   83 2    
   164   82   84 am   BACKBONE|DICT|INTERRES
   165   84   85 1    
   166   84  205 1    
   167   85   86 1    
   168   85   87 1    
   169   85  206 1    
   170   86  207 1    
   171   86  208 1    
   172   86  209 1    
   173   87   88 2    
   174   87   89 am   BACKBONE|DICT|INTERRES
   175   89   90 1    
   176   89  210 1    
   177   90   91 1    
   178   90   92 1    
   179   90  211 1    
   180   91  212 1    
   181   91  213 1    
   182   91  214 1    
   183   92   93 2    
   184   92   94 am   BACKBONE|DICT|INTERRES
   185   94   95 1    
   186   94  215 1    
   187   95   96 1    
   188   95   97 1    
   189   95  216 1    
   190   96  217 1    
   191   96  218 1    
   192   96  219 1    
   193   97   98 2    
   194   97   99 am   BACKBONE|DICT|INTERRES
   195   99  100 1    
   196   99  220 1    
   197  100  101 1    
   198  100  102 1    
   199  100  221 1    
   200  101  222 1    
   201  101  223 1    
   202  101  224 1    
   203  102  103 2    
   204  102  104 am   BACKBONE|DICT|INTERRES
   205  104  105 1    
   206  104  225 1    
   207  105  106 1    
   208  105  107 1    
   209  105  226 1    
   210  106  227 1    
   211  106  228 1    
   212  106  229 1    
   213  107  108 2    
   214  107  109 am   BACKBONE|DICT|INTERRES
   215  109  110 1    
   216  109  230 1    
   217  110  111 1    
   218  110  112 1    
   219  110  231 1    
   220  111  232 1    
   221  111  233 1    
   222  111  234 1    
   223  112  113 2    
   224  112  114 am   BACKBONE|DICT|INTERRES
   225  114  115 1    
   226  114  235 1    
   227  115  116 1    
   228  115  117 1    
   229  115  236 1    
   230  116  237 1    
   231  116  238 1    
   232  116  239 1    
   233  117  118 2    
   234  117  119 am   BACKBONE|DICT|INTERRES
   235  119  120 1    
   236  119  240 1    
   237  120  121 1    
   238  120  124 1    
   239  120  241 1    
   240  121  122 am   BACKBONE|DICT|INTERRES
   241  121  123 2    
   242  122  242 1    
   243  122  243 1    
   244  124  125 1    
   245  124  244 1    
   246  124  245 1    
   247  125  126 1    
   248  126  246 1    
   249  126  247 1    
@<TRIPOS>SUBSTRUCTURE
     1 UNK         1 GROUP             0       ****    0 ROOT    
