@<TRIPOS>MOLECULE
3R540
247   249    1
SMALL
USER_CHARGES


@<TRIPOS>ATOM
      1 CA          4.3012  -11.6158  -46.8652 C.3       0 UNK        -0.1800 
      2 C           2.8052  -11.5802  -47.1454 C.2       0 UNK         0.5000 
      3 O           2.2979  -10.5614  -47.6134 O.2       0 UNK        -0.5000 
      4 N           2.1143  -12.6913  -46.8582 N.am      1 UNK        -0.5000 
      5 CA          0.6675  -12.9089  -47.0080 C.3       1 UNK         0.1400 
      6 C6          0.2109  -12.9675  -48.4909 C.3       23 UNK        -0.0398 
      7 S7          0.9875  -14.3328  -49.4201 S.3       23 UNK        -0.2404 
      8 C8         -0.1358  -15.7013  -49.0024 C.3       23 UNK        -0.0205 
      9 C9          0.0978  -16.9098  -49.8941 C.ar      23 UNK        -0.0193 
     10 C10        -0.7619  -17.1697  -50.9655 C.ar      23 UNK        -0.1150 
     11 C11        -0.5565  -18.2806  -51.7885 C.ar      23 UNK        -0.0193 
     12 C12         0.5155  -19.1386  -51.5284 C.ar      23 UNK        -0.1150 
     13 C13         1.3883  -18.8836  -50.4672 C.ar      23 UNK        -0.0193 
     14 C14         1.1708  -17.7707  -49.6487 C.ar      23 UNK        -0.1150 
     15 C15         2.5837  -19.7949  -50.2320 C.3       23 UNK        -0.0205 
     16 S16         2.1078  -21.3863  -49.4897 S.3       23 UNK        -0.2404 
     17 C17         1.6613  -20.8724  -47.7987 C.3       23 UNK        -0.0398 
     18 CA          0.3720  -21.5447  -47.2769 C.3       11 UNK         0.1400 
     19 N           0.2642  -21.4269  -45.8218 N.am      11 UNK        -0.5000 
     20 C          -0.6258  -22.0808  -45.0640 C.2       10 UNK         0.5000 
     21 O          -1.4270  -22.9021  -45.5079 O.2       10 UNK        -0.5000 
     22 CA         -0.6569  -21.7223  -43.5671 C.3       10 UNK         0.1400 
     23 CB          0.4427  -22.4728  -42.8016 C.3       10 UNK        -0.1800 
     24 N          -0.5246  -20.2836  -43.3329 N.am      10 UNK        -0.5000 
     25 C          -1.4105  -19.3631  -43.7401 C.2       9 UNK         0.5000 
     26 O          -2.4672  -19.6370  -44.3081 O.2       9 UNK        -0.5000 
     27 CA         -1.0239  -17.8880  -43.5251 C.3       9 UNK         0.1400 
     28 CB         -1.2760  -17.4654  -42.0693 C.3       9 UNK        -0.1800 
     29 N           0.3683  -17.6218  -43.8972 N.am      9 UNK        -0.5000 
     30 C           0.8510  -17.7476  -45.1427 C.2       8 UNK         0.5000 
     31 O           0.1602  -18.0314  -46.1188 O.2       8 UNK        -0.5000 
     32 CA          2.3672  -17.5820  -45.3269 C.3       8 UNK         0.1400 
     33 CB          2.7379  -16.1066  -45.5364 C.3       8 UNK        -0.1800 
     34 N           3.1122  -18.1413  -44.1989 N.am      8 UNK        -0.5000 
     35 C           3.2383  -19.4569  -43.9686 C.2       7 UNK         0.5000 
     36 O           2.7697  -20.3229  -44.7064 O.2       7 UNK        -0.5000 
     37 CA          3.9680  -19.8772  -42.6791 C.3       7 UNK         0.1400 
     38 CB          5.4881  -19.8873  -42.8969 C.3       7 UNK        -0.1800 
     39 N           3.6463  -19.0140  -41.5427 N.am      7 UNK        -0.5000 
     40 C           2.4309  -18.9123  -40.9864 C.2       6 UNK         0.5000 
     41 O           1.4661  -19.5936  -41.3313 O.2       6 UNK        -0.5000 
     42 CA          2.2487  -17.8298  -39.9038 C.3       6 UNK         0.1400 
     43 CB          2.5084  -18.4142  -38.5080 C.3       6 UNK        -0.1800 
     44 N           3.0970  -16.6494  -40.0986 N.am      6 UNK        -0.5000 
     45 C           3.0897  -15.8634  -41.1825 C.2       5 UNK         0.5000 
     46 O           2.3497  -16.0489  -42.1504 O.2       5 UNK        -0.5000 
     47 CA          4.0785  -14.6844  -41.1739 C.3       5 UNK         0.1400 
     48 CB          4.4326  -14.2092  -42.5944 C.3       5 UNK        -0.1800 
     49 N           3.5371  -13.5680  -40.4011 N.am      5 UNK        -0.5000 
     50 C           3.5431  -13.4979  -39.0612 C.2       4 UNK         0.5000 
     51 O           4.0507  -14.3613  -38.3431 O.2       4 UNK        -0.5000 
     52 CA          2.8849  -12.2695  -38.4003 C.3       4 UNK         0.1400 
     53 CB          3.9548  -11.2486  -37.9833 C.3       4 UNK        -0.1800 
     54 N           1.9012  -11.5998  -39.2513 N.am      4 UNK        -0.5000 
     55 C           0.6924  -12.0870  -39.5596 C.2       3 UNK         0.5000 
     56 O           0.2525  -13.1513  -39.1228 O.2       3 UNK        -0.5000 
     57 CA         -0.1661  -11.2662  -40.5455 C.3       3 UNK         0.1400 
     58 CB          0.2422   -9.7790  -40.6507 C.3       3 UNK        -0.1800 
     59 N          -0.1964  -11.8887  -41.8733 N.am      3 UNK        -0.5000 
     60 C           0.8613  -12.1857  -42.6439 C.2       2 UNK         0.5000 
     61 O           2.0255  -11.9060  -42.3576 O.2       2 UNK        -0.5000 
     62 CA          0.5584  -12.8857  -43.9729 C.3       2 UNK         0.1400 
     63 CB         -0.2640  -14.1727  -43.7734 C.3       2 UNK        -0.1800 
     64 N          -0.1486  -11.9464  -44.8398 N.am      2 UNK        -0.5000 
     65 C          -0.1655  -11.8941  -46.1794 C.2       1 UNK         0.5000 
     66 O          -0.8271  -11.0348  -46.7620 O.2       1 UNK        -0.5000 
     67 C          -0.9017  -21.0389  -47.9907 C.2       11 UNK         0.5000 
     68 O          -1.4159  -21.7333  -48.8660 O.2       11 UNK        -0.5000 
     69 N          -1.4338  -19.8853  -47.5609 N.am      12 UNK        -0.5000 
     70 CA         -2.6958  -19.3236  -48.0473 C.3       12 UNK         0.1400 
     71 CB         -2.9055  -17.9252  -47.4487 C.3       12 UNK        -0.1800 
     72 C          -3.9084  -20.2257  -47.7482 C.2       12 UNK         0.5000 
     73 O          -4.7772  -20.3767  -48.6070 O.2       12 UNK        -0.5000 
     74 N          -3.9315  -20.8334  -46.5532 N.am      13 UNK        -0.5000 
     75 CA         -4.9426  -21.8067  -46.1391 C.3       13 UNK         0.1400 
     76 CB         -4.8089  -22.0870  -44.6349 C.3       13 UNK        -0.1800 
     77 C          -4.8781  -23.1130  -46.9527 C.2       13 UNK         0.5000 
     78 O          -5.9243  -23.6511  -47.3116 O.2       13 UNK        -0.5000 
     79 N          -3.6619  -23.5841  -47.2605 N.am      14 UNK        -0.5000 
     80 CA         -3.4180  -24.7423  -48.1236 C.3       14 UNK         0.1400 
     81 CB         -1.9483  -25.1727  -48.0005 C.3       14 UNK        -0.1800 
     82 C          -3.7871  -24.4797  -49.5967 C.2       14 UNK         0.5000 
     83 O          -4.2417  -25.3963  -50.2800 O.2       14 UNK        -0.5000 
     84 N          -3.5974  -23.2353  -50.0541 N.am      15 UNK        -0.5000 
     85 CA         -3.9128  -22.7771  -51.4063 C.3       15 UNK         0.1400 
     86 CB         -3.1620  -21.4664  -51.6817 C.3       15 UNK        -0.1800 
     87 C          -5.4164  -22.5978  -51.6845 C.2       15 UNK         0.5000 
     88 O          -5.7892  -22.4862  -52.8546 O.2       15 UNK        -0.5000 
     89 N          -6.2425  -22.5544  -50.6281 N.am      16 UNK        -0.5000 
     90 CA         -7.6925  -22.3509  -50.6762 C.3       16 UNK         0.1400 
     91 CB         -8.2570  -22.3875  -49.2492 C.3       16 UNK        -0.1800 
     92 C          -8.4233  -23.3712  -51.5700 C.2       16 UNK         0.5000 
     93 O          -7.9998  -24.5250  -51.6679 O.2       16 UNK        -0.5000 
     94 N          -9.4918  -22.9052  -52.2336 N.am      17 UNK        -0.5000 
     95 CA        -10.2798  -23.6221  -53.2491 C.3       17 UNK         0.1400 
     96 CB        -11.0292  -24.8169  -52.6225 C.3       17 UNK        -0.1800 
     97 C          -9.4547  -24.0236  -54.4951 C.2       17 UNK         0.5000 
     98 O          -9.8305  -24.9558  -55.2073 O.2       17 UNK        -0.5000 
     99 N          -8.3398  -23.3107  -54.7225 N.am      18 UNK        -0.5000 
    100 CA        -7.3264  -23.5203  -55.7597 C.3       18 UNK         0.1400 
    101 CB        -7.9156  -23.2796  -57.1655 C.3       18 UNK        -0.1800 
    102 C         -6.5827  -24.8693  -55.6425 C.2       18 UNK         0.5000 
    103 O         -6.0428  -25.3534  -56.6385 O.2       18 UNK        -0.5000 
    104 N         -6.5421  -25.4490  -54.4324 N.am      19 UNK        -0.5000 
    105 CA        -5.9168  -26.7451  -54.1480 C.3       19 UNK         0.1400 
    106 CB        -6.3414  -27.2092  -52.7477 C.3       19 UNK        -0.1800 
    107 C         -4.3800  -26.7392  -54.2773 C.2       19 UNK         0.5000 
    108 O         -3.7884  -27.7901  -54.5278 O.2       19 UNK        -0.5000 
    109 N         -3.7693  -25.5595  -54.1286 N.am      20 UNK        -0.5000 
    110 CA        -2.3421  -25.3064  -54.3045 C.3       20 UNK         0.1400 
    111 CB        -1.5595  -25.7184  -53.0404 C.3       20 UNK        -0.1800 
    112 C         -2.1651  -23.8290  -54.6863 C.2       20 UNK         0.5000 
    113 O         -1.4654  -23.0886  -53.9949 O.2       20 UNK        -0.5000 
    114 N         -2.8757  -23.4141  -55.7451 N.am      21 UNK        -0.5000 
    115 CA        -2.9509  -22.0354  -56.2317 C.3       21 UNK         0.1400 
    116 CB        -3.8956  -21.9831  -57.4425 C.3       21 UNK        -0.1800 
    117 C         -1.5771  -21.4425  -56.6020 C.2       21 UNK         0.5000 
    118 O         -0.7871  -22.0994  -57.2843 O.2       21 UNK        -0.5000 
    119 N         -1.3423  -20.2037  -56.1602 N.am      22 UNK        -0.5000 
    120 CA        -0.1190  -19.4219  -56.4046 C.3       22 UNK         0.1400 
    121 C         -0.1675  -18.5354  -57.6846 C.2       22 UNK         0.5000 
    122 N         -1.2681  -18.4910  -58.4261 N.am      22 UNK        -0.7600 
    123 O          0.8208  -17.8912  -58.0262 O.2       22 UNK        -0.5000 
    124 C124        0.2981  -18.6178  -55.1426 C.3       23 UNK        -0.0398 
    125 S125       -1.0410  -17.5899  -54.4333 S.3       23 UNK        -0.2404 
    126 C126       -1.4971  -18.5501  -52.9532 C.3       23 UNK        -0.0205 
    127 H127        4.6141  -12.5720  -46.4447 H         1 UNK         0.0600 
    128 H128        4.5687  -10.8310  -46.1577 H         1 UNK         0.0600 
    129 H129        4.8595  -11.4508  -47.7867 H         1 UNK         0.0600 
    130 H130        2.6260  -13.4826  -46.4982 H         1 UNK         0.3000 
    131 H131        0.4635  -13.8919  -46.5876 H         1 UNK         0.0600 
    132 H132       -0.8730  -13.0761  -48.5587 H         1 UNK         0.0800 
    133 H133        0.4470  -12.0329  -49.0018 H         1 UNK         0.0800 
    134 H134        0.0097  -15.9820  -47.9585 H         1 UNK         0.0800 
    135 H135       -1.1709  -15.3686  -49.0930 H         1 UNK         0.0800 
    136 H136       -1.5894  -16.5035  -51.1651 H         1 UNK         0.1150 
    137 H137        0.6782  -20.0051  -52.1534 H         1 UNK         0.1150 
    138 H138        1.8405  -17.5637  -48.8260 H         1 UNK         0.1150 
    139 H139        3.0775  -19.9875  -51.1855 H         1 UNK         0.0800 
    140 H140        3.3270  -19.3064  -49.5998 H         1 UNK         0.0800 
    141 H141        1.5825  -19.7881  -47.7295 H         1 UNK         0.0800 
    142 H142        2.5039  -21.1510  -47.1656 H         1 UNK         0.0800 
    143 H143        0.4517  -22.6131  -47.4897 H         1 UNK         0.0600 
    144 H144        0.9299  -20.8110  -45.3673 H         1 UNK         0.3000 
    145 H145       -1.6236  -22.0377  -43.1695 H         1 UNK         0.0600 
    146 H146        0.3794  -22.2782  -41.7308 H         1 UNK         0.0600 
    147 H147        0.3513  -23.5503  -42.9432 H         1 UNK         0.0600 
    148 H148        1.4386  -22.1801  -43.1350 H         1 UNK         0.0600 
    149 H149        0.2942  -19.9794  -42.8136 H         1 UNK         0.3000 
    150 H150       -1.6611  -17.2784  -44.1692 H         1 UNK         0.0600 
    151 H151       -2.3277  -17.5901  -41.8090 H         1 UNK         0.0600 
    152 H152       -1.0253  -16.4188  -41.9033 H         1 UNK         0.0600 
    153 H153       -0.6967  -18.0627  -41.3667 H         1 UNK         0.0600 
    154 H154        1.0045  -17.3464  -43.1579 H         1 UNK         0.3000 
    155 H155        2.6561  -18.1267  -46.2281 H         1 UNK         0.0600 
    156 H156        2.4165  -15.4843  -44.7024 H         1 UNK         0.0600 
    157 H157        3.8142  -15.9820  -45.6554 H         1 UNK         0.0600 
    158 H158        2.2636  -15.7194  -46.4388 H         1 UNK         0.0600 
    159 H159        3.4438  -17.4854  -43.5055 H         1 UNK         0.3000 
    160 H160        3.6506  -20.8928  -42.4332 H         1 UNK         0.0600 
    161 H161        5.8711  -18.8910  -43.1218 H         1 UNK         0.0600 
    162 H162        5.7581  -20.5386  -43.7293 H         1 UNK         0.0600 
    163 H163        6.0104  -20.2569  -42.0143 H         1 UNK         0.0600 
    164 H164        4.3848  -18.4217  -41.1933 H         1 UNK         0.3000 
    165 H165        1.2105  -17.4956  -39.9461 H         1 UNK         0.0600 
    166 H166        2.2953  -17.6825  -37.7284 H         1 UNK         0.0600 
    167 H167        1.8715  -19.2803  -38.3224 H         1 UNK         0.0600 
    168 H168        3.5440  -18.7365  -38.3928 H         1 UNK         0.0600 
    169 H169        3.6896  -16.3812  -39.3228 H         1 UNK         0.3000 
    170 H170        5.0056  -15.0242  -40.7073 H         1 UNK         0.0600 
    171 H171        3.5554  -13.8750  -43.1462 H         1 UNK         0.0600 
    172 H172        5.1438  -13.3836  -42.5681 H         1 UNK         0.0600 
    173 H173        4.8899  -15.0145  -43.1703 H         1 UNK         0.0600 
    174 H174        3.0638  -12.8431  -40.9319 H         1 UNK         0.3000 
    175 H175        2.3765  -12.6174  -37.4986 H         1 UNK         0.0600 
    176 H176        3.5119  -10.4091  -37.4470 H         1 UNK         0.0600 
    177 H177        4.4904  -10.8520  -38.8467 H         1 UNK         0.0600 
    178 H178        4.6919  -11.7033  -37.3200 H         1 UNK         0.0600 
    179 H179        2.1928  -10.7366  -39.6865 H         1 UNK         0.3000 
    180 H180       -1.1867  -11.2984  -40.1609 H         1 UNK         0.0600 
    181 H181        1.2307   -9.6453  -41.0907 H         1 UNK         0.0600 
    182 H182        0.2475   -9.3035  -39.6691 H         1 UNK         0.0600 
    183 H183       -0.4663   -9.2273  -41.2686 H         1 UNK         0.0600 
    184 H184       -1.1094  -12.1907  -42.1823 H         1 UNK         0.3000 
    185 H185        1.5232  -13.1551  -44.3994 H         1 UNK         0.0600 
    186 H186        0.2058  -14.8088  -43.0246 H         1 UNK         0.0600 
    187 H187       -1.2797  -13.9647  -43.4363 H         1 UNK         0.0600 
    188 H188       -0.3377  -14.7602  -44.6868 H         1 UNK         0.0600 
    189 H189       -0.6531  -11.2267  -44.3417 H         1 UNK         0.3000 
    190 H190       -0.9301  -19.3345  -46.8698 H         1 UNK         0.3000 
    191 H191       -2.6125  -19.2200  -49.1311 H         1 UNK         0.0600 
    192 H192       -2.0744  -17.2660  -47.6898 H         1 UNK         0.0600 
    193 H193       -3.8123  -17.4643  -47.8417 H         1 UNK         0.0600 
    194 H194       -2.9968  -17.9591  -46.3631 H         1 UNK         0.0600 
    195 H195       -3.2127  -20.6020  -45.8741 H         1 UNK         0.3000 
    196 H196       -5.9240  -21.3597  -46.3112 H         1 UNK         0.0600 
    197 H197       -5.5798  -22.7811  -44.2979 H         1 UNK         0.0600 
    198 H198       -4.9173  -21.1719  -44.0525 H         1 UNK         0.0600 
    199 H199       -3.8424  -22.5264  -44.3893 H         1 UNK         0.0600 
    200 H200       -2.8448  -23.1238  -46.8706 H         1 UNK         0.3000 
    201 H201       -4.0418  -25.5652  -47.7684 H         1 UNK         0.0600 
    202 H202       -1.6950  -25.4205  -46.9696 H         1 UNK         0.0600 
    203 H203       -1.2688  -24.3875  -48.3320 H         1 UNK         0.0600 
    204 H204       -1.7488  -26.0568  -48.6074 H         1 UNK         0.0600 
    205 H205       -3.1287  -22.5672  -49.4499 H         1 UNK         0.3000 
    206 H206       -3.5505  -23.5273  -52.1067 H         1 UNK         0.0600 
    207 H207       -2.0849  -21.5991  -51.5759 H         1 UNK         0.0600 
    208 H208       -3.3464  -21.1211  -52.6994 H         1 UNK         0.0600 
    209 H209       -3.4714  -20.6720  -51.0029 H         1 UNK         0.0600 
    210 H210       -5.8359  -22.6631  -49.7095 H         1 UNK         0.3000 
    211 H211       -7.8559  -21.3523  -51.0857 H         1 UNK         0.0600 
    212 H212       -8.1456  -23.3760  -48.8020 H         1 UNK         0.0600 
    213 H213       -9.3201  -22.1439  -49.2419 H         1 UNK         0.0600 
    214 H214       -7.7530  -21.6671  -48.6042 H         1 UNK         0.0600 
    215 H215       -9.7654  -21.9438  -52.0820 H         1 UNK         0.3000 
    216 H216      -11.0306  -22.9151  -53.6044 H         1 UNK         0.0600 
    217 H217      -11.7389  -25.2479  -53.3296 H         1 UNK         0.0600 
    218 H218      -11.5958  -24.5102  -51.7435 H         1 UNK         0.0600 
    219 H219      -10.3470  -25.6125  -52.3217 H         1 UNK         0.0600 
    220 H220       -8.1107  -22.5901  -54.0517 H         1 UNK         0.3000 
    221 H221       -6.5716  -22.7530  -55.5851 H         1 UNK         0.0600 
    222 H222       -8.6367  -24.0497  -57.4402 H         1 UNK         0.0600 
    223 H223       -8.4174  -22.3137  -57.2224 H         1 UNK         0.0600 
    224 H224       -7.1339  -23.2814  -57.9257 H         1 UNK         0.0600 
    225 H225       -7.0026  -24.9900  -53.6548 H         1 UNK         0.3000 
    226 H226       -6.2996  -27.4664  -54.8729 H         1 UNK         0.0600 
    227 H227       -7.4251  -27.3027  -52.6748 H         1 UNK         0.0600 
    228 H228       -5.9127  -28.1833  -52.5088 H         1 UNK         0.0600 
    229 H229       -6.0152  -26.5085  -51.9787 H         1 UNK         0.0600 
    230 H230       -4.3446  -24.7488  -53.9465 H         1 UNK         0.3000 
    231 H231       -1.9734  -25.8964  -55.1462 H         1 UNK         0.0600 
    232 H232       -1.8916  -25.1711  -52.1584 H         1 UNK         0.0600 
    233 H233       -0.4929  -25.5273  -53.1629 H         1 UNK         0.0600 
    234 H234       -1.6747  -26.7821  -52.8326 H         1 UNK         0.0600 
    235 H235       -3.4059  -24.0993  -56.2643 H         1 UNK         0.3000 
    236 H236       -3.3884  -21.4368  -55.4298 H         1 UNK         0.0600 
    237 H237       -4.8884  -22.3507  -57.1897 H         1 UNK         0.0600 
    238 H238       -4.0125  -20.9611  -57.8048 H         1 UNK         0.0600 
    239 H239       -3.5192  -22.5842  -58.2713 H         1 UNK         0.0600 
    240 H240       -2.0520  -19.7245  -55.6256 H         1 UNK         0.3000 
    241 H241        0.6937  -20.1252  -56.5958 H         1 UNK         0.0600 
    242 H242       -2.0848  -19.0191  -58.1661 H         1 UNK         0.3800 
    243 H243       -1.2837  -17.9197  -59.2567 H         1 UNK         0.3800 
    244 H244        0.6533  -19.3158  -54.3858 H         1 UNK         0.0800 
    245 H245        1.1533  -17.9737  -55.3535 H         1 UNK         0.0800 
    246 H246       -2.5168  -18.2918  -52.6636 H         1 UNK         0.0800 
    247 H247       -1.5089  -19.6133  -53.1954 H         1 UNK         0.0800 
@<TRIPOS>BOND
     1    1    2 1    
     2    1  127 1    
     3    1  128 1    
     4    1  129 1    
     5    2    3 2    
     6    2    4 am   BACKBONE|DICT|INTERRES
     7    4    5 1    
     8    4  130 1    
     9    5    6 1    
    10    5   65 1    
    11    5  131 1    
    12    6    7 1    
    13    6  132 1    
    14    6  133 1    
    15    7    8 1    
    16    8    9 1    
    17    8  134 1    
    18    8  135 1    
    19    9   10 ar   
    20    9   14 ar   
    21   10   11 ar   
    22   10  136 1    
    23   11   12 ar   
    24   11  126 1    
    25   12   13 ar   
    26   12  137 1    
    27   13   14 ar   
    28   13   15 1    
    29   14  138 1    
    30   15   16 1    
    31   15  139 1    
    32   15  140 1    
    33   16   17 1    
    34   17   18 1    
    35   17  141 1    
    36   17  142 1    
    37   18   19 1    
    38   18   67 1    
    39   18  143 1    
    40   19   20 am   BACKBONE|DICT|INTERRES
    41   19  144 1    
    42   20   21 2    
    43   20   22 1    
    44   22   23 1    
    45   22   24 1    
    46   22  145 1    
    47   23  146 1    
    48   23  147 1    
    49   23  148 1    
    50   24   25 am   BACKBONE|DICT|INTERRES
    51   24  149 1    
    52   25   26 2    
    53   25   27 1    
    54   27   28 1    
    55   27   29 1    
    56   27  150 1    
    57   28  151 1    
    58   28  152 1    
    59   28  153 1    
    60   29   30 am   BACKBONE|DICT|INTERRES
    61   29  154 1    
    62   30   31 2    
    63   30   32 1    
    64   32   33 1    
    65   32   34 1    
    66   32  155 1    
    67   33  156 1    
    68   33  157 1    
    69   33  158 1    
    70   34   35 am   BACKBONE|DICT|INTERRES
    71   34  159 1    
    72   35   36 2    
    73   35   37 1    
    74   37   38 1    
    75   37   39 1    
    76   37  160 1    
    77   38  161 1    
    78   38  162 1    
    79   38  163 1    
    80   39   40 am   BACKBONE|DICT|INTERRES
    81   39  164 1    
    82   40   41 2    
    83   40   42 1    
    84   42   43 1    
    85   42   44 1    
    86   42  165 1    
    87   43  166 1    
    88   43  167 1    
    89   43  168 1    
    90   44   45 am   BACKBONE|DICT|INTERRES
    91   44  169 1    
    92   45   46 2    
    93   45   47 1    
    94   47   48 1    
    95   47   49 1    
    96   47  170 1    
    97   48  171 1    
    98   48  172 1    
    99   48  173 1    
   100   49   50 am   BACKBONE|DICT|INTERRES
   101   49  174 1    
   102   50   51 2    
   103   50   52 1    
   104   52   53 1    
   105   52   54 1    
   106   52  175 1    
   107   53  176 1    
   108   53  177 1    
   109   53  178 1    
   110   54   55 am   BACKBONE|DICT|INTERRES
   111   54  179 1    
   112   55   56 2    
   113   55   57 1    
   114   57   58 1    
   115   57   59 1    
   116   57  180 1    
   117   58  181 1    
   118   58  182 1    
   119   58  183 1    
   120   59   60 am   BACKBONE|DICT|INTERRES
   121   59  184 1    
   122   60   61 2    
   123   60   62 1    
   124   62   63 1    
   125   62   64 1    
   126   62  185 1    
   127   63  186 1    
   128   63  187 1    
   129   63  188 1    
   130   64   65 am   BACKBONE|DICT|INTERRES
   131   64  189 1    
   132   65   66 2    
   133   67   68 2    
   134   67   69 am   BACKBONE|DICT|INTERRES
   135   69   70 1    
   136   69  190 1    
   137   70   71 1    
   138   70   72 1    
   139   70  191 1    
   140   71  192 1    
   141   71  193 1    
   142   71  194 1    
   143   72   73 2    
   144   72   74 am   BACKBONE|DICT|INTERRES
   145   74   75 1    
   146   74  195 1    
   147   75   76 1    
   148   75   77 1    
   149   75  196 1    
   150   76  197 1    
   151   76  198 1    
   152   76  199 1    
   153   77   78 2    
   154   77   79 am   BACKBONE|DICT|INTERRES
   155   79   80 1    
   156   79  200 1    
   157   80   81 1    
   158   80   82 1    
   159   80  201 1    
   160   81  202 1    
   161   81  203 1    
   162   81  204 1    
   163   82   83 2    
   164   82   84 am   BACKBONE|DICT|INTERRES
   165   84   85 1    
   166   84  205 1    
   167   85   86 1    
   168   85   87 1    
   169   85  206 1    
   170   86  207 1    
   171   86  208 1    
   172   86  209 1    
   173   87   88 2    
   174   87   89 am   BACKBONE|DICT|INTERRES
   175   89   90 1    
   176   89  210 1    
   177   90   91 1    
   178   90   92 1    
   179   90  211 1    
   180   91  212 1    
   181   91  213 1    
   182   91  214 1    
   183   92   93 2    
   184   92   94 am   BACKBONE|DICT|INTERRES
   185   94   95 1    
   186   94  215 1    
   187   95   96 1    
   188   95   97 1    
   189   95  216 1    
   190   96  217 1    
   191   96  218 1    
   192   96  219 1    
   193   97   98 2    
   194   97   99 am   BACKBONE|DICT|INTERRES
   195   99  100 1    
   196   99  220 1    
   197  100  101 1    
   198  100  102 1    
   199  100  221 1    
   200  101  222 1    
   201  101  223 1    
   202  101  224 1    
   203  102  103 2    
   204  102  104 am   BACKBONE|DICT|INTERRES
   205  104  105 1    
   206  104  225 1    
   207  105  106 1    
   208  105  107 1    
   209  105  226 1    
   210  106  227 1    
   211  106  228 1    
   212  106  229 1    
   213  107  108 2    
   214  107  109 am   BACKBONE|DICT|INTERRES
   215  109  110 1    
   216  109  230 1    
   217  110  111 1    
   218  110  112 1    
   219  110  231 1    
   220  111  232 1    
   221  111  233 1    
   222  111  234 1    
   223  112  113 2    
   224  112  114 am   BACKBONE|DICT|INTERRES
   225  114  115 1    
   226  114  235 1    
   227  115  116 1    
   228  115  117 1    
   229  115  236 1    
   230  116  237 1    
   231  116  238 1    
   232  116  239 1    
   233  117  118 2    
   234  117  119 am   BACKBONE|DICT|INTERRES
   235  119  120 1    
   236  119  240 1    
   237  120  121 1    
   238  120  124 1    
   239  120  241 1    
   240  121  122 am   BACKBONE|DICT|INTERRES
   241  121  123 2    
   242  122  242 1    
   243  122  243 1    
   244  124  125 1    
   245  124  244 1    
   246  124  245 1    
   247  125  126 1    
   248  126  246 1    
   249  126  247 1    
@<TRIPOS>SUBSTRUCTURE
     1 UNK         1 GROUP             0       ****    0 ROOT    
