@<TRIPOS>MOLECULE
3R540
247   249    1
SMALL
USER_CHARGES


@<TRIPOS>ATOM
      1 CA          0.2732   -9.0770  -45.3634 C.3       0 UNK        -0.1800 
      2 C           0.2866   -9.6240  -46.7830 C.2       0 UNK         0.5000 
      3 O           1.2676   -9.4394  -47.5032 O.2       0 UNK        -0.5000 
      4 N          -0.7859  -10.3202  -47.1792 N.am      1 UNK        -0.5000 
      5 CA         -1.0018  -10.9075  -48.5116 C.3       1 UNK         0.1400 
      6 C6         -2.4687  -11.3649  -48.7087 C.3       23 UNK        -0.0398 
      7 S7         -3.1371  -12.3582  -47.3265 S.3       23 UNK        -0.2404 
      8 C8         -3.9898  -13.7008  -48.2050 C.3       23 UNK        -0.0205 
      9 C9         -3.0719  -14.8860  -48.4506 C.ar      23 UNK        -0.0193 
     10 C10        -2.4138  -15.0435  -49.6727 C.ar      23 UNK        -0.1150 
     11 C11        -1.6149  -16.1673  -49.9059 C.ar      23 UNK        -0.0193 
     12 C12        -1.4706  -17.1329  -48.9036 C.ar      23 UNK        -0.1150 
     13 C13        -2.1165  -16.9786  -47.6732 C.ar      23 UNK        -0.0193 
     14 C14        -2.9105  -15.8507  -47.4546 C.ar      23 UNK        -0.1150 
     15 C15        -1.9791  -18.0313  -46.5839 C.3       23 UNK        -0.0205 
     16 S16        -3.5672  -18.8678  -46.2931 S.3       23 UNK        -0.2404 
     17 C17        -3.1031  -20.2062  -45.1487 C.3       23 UNK        -0.0398 
     18 CA         -2.8505  -21.5174  -45.9261 C.3       11 UNK         0.1400 
     19 N          -1.5497  -21.5519  -46.5980 N.am      11 UNK        -0.5000 
     20 C          -1.2676  -22.4128  -47.5854 C.2       10 UNK         0.5000 
     21 O          -2.0924  -23.2109  -48.0273 O.2       10 UNK        -0.5000 
     22 CA          0.1644  -22.4319  -48.1506 C.3       10 UNK         0.1400 
     23 CB          0.2411  -21.5811  -49.4272 C.3       10 UNK        -0.1800 
     24 N           1.1871  -21.9786  -47.2066 N.am      10 UNK        -0.5000 
     25 C           1.4391  -22.5154  -46.0045 C.2       9 UNK         0.5000 
     26 O           0.8313  -23.4854  -45.5487 O.2       9 UNK        -0.5000 
     27 CA          2.4939  -21.8158  -45.1246 C.3       9 UNK         0.1400 
     28 CB          3.3543  -20.7796  -45.8815 C.3       9 UNK        -0.1800 
     29 N           1.8815  -21.1990  -43.9420 N.am      9 UNK        -0.5000 
     30 C           0.8711  -20.3165  -43.9240 C.2       8 UNK         0.5000 
     31 O           0.2840  -19.9301  -44.9372 O.2       8 UNK        -0.5000 
     32 CA          0.4261  -19.8042  -42.5429 C.3       8 UNK         0.1400 
     33 CB          1.6132  -19.4847  -41.6113 C.3       8 UNK        -0.1800 
     34 N          -0.4105  -18.6148  -42.6987 N.am      8 UNK        -0.5000 
     35 C          -1.3901  -18.2503  -41.8594 C.2       7 UNK         0.5000 
     36 O          -1.6957  -18.9031  -40.8603 O.2       7 UNK        -0.5000 
     37 CA         -2.1387  -16.9384  -42.1700 C.3       7 UNK         0.1400 
     38 CB         -2.7634  -16.2882  -40.9206 C.3       7 UNK        -0.1800 
     39 N          -1.2513  -15.9825  -42.8275 N.am      7 UNK        -0.5000 
     40 C          -1.6085  -15.1358  -43.7993 C.2       6 UNK         0.5000 
     41 O          -2.7764  -14.9737  -44.1514 O.2       6 UNK        -0.5000 
     42 CA         -0.4883  -14.3409  -44.5130 C.3       6 UNK         0.1400 
     43 CB         -0.6529  -12.8316  -44.2743 C.3       6 UNK        -0.1800 
     44 N           0.8894  -14.7242  -44.1670 N.am      6 UNK        -0.5000 
     45 C           1.4447  -15.9311  -44.3600 C.2       5 UNK         0.5000 
     46 O           0.8242  -16.8806  -44.8338 O.2       5 UNK        -0.5000 
     47 CA          2.9079  -16.1384  -43.9228 C.3       5 UNK         0.1400 
     48 CB          3.6971  -16.9599  -44.9551 C.3       5 UNK        -0.1800 
     49 N           3.6088  -14.8797  -43.6725 N.am      5 UNK        -0.5000 
     50 C           3.7530  -14.3048  -42.4700 C.2       4 UNK         0.5000 
     51 O           3.2867  -14.7770  -41.4330 O.2       4 UNK        -0.5000 
     52 CA          4.5405  -12.9790  -42.4024 C.3       4 UNK         0.1400 
     53 CB          5.9534  -13.2226  -41.8498 C.3       4 UNK        -0.1800 
     54 N           4.6515  -12.2900  -43.6898 N.am      4 UNK        -0.5000 
     55 C           3.6296  -11.7243  -44.3437 C.2       3 UNK         0.5000 
     56 O           2.4793  -11.6954  -43.9041 O.2       3 UNK        -0.5000 
     57 CA          3.9164  -11.1284  -45.7383 C.3       3 UNK         0.1400 
     58 CB          5.3983  -11.1963  -46.1719 C.3       3 UNK        -0.1800 
     59 N           3.0571  -11.7365  -46.7580 N.am      3 UNK        -0.5000 
     60 C           2.9524  -13.0430  -47.0527 C.2       2 UNK         0.5000 
     61 O           3.6330  -13.9177  -46.5157 O.2       2 UNK        -0.5000 
     62 CA          1.8898  -13.4215  -48.1000 C.3       2 UNK         0.1400 
     63 CB          1.4943  -14.9088  -48.0788 C.3       2 UNK        -0.1800 
     64 N           0.7082  -12.5807  -47.9198 N.am      2 UNK        -0.5000 
     65 C           0.0136  -12.0055  -48.9071 C.2       1 UNK         0.5000 
     66 O           0.1815  -12.2663  -50.0993 O.2       1 UNK        -0.5000 
     67 C          -3.1079  -22.7737  -45.0718 C.2       11 UNK         0.5000 
     68 O          -4.2619  -23.1943  -44.9708 O.2       11 UNK        -0.5000 
     69 N          -2.0428  -23.3792  -44.5324 N.am      12 UNK        -0.5000 
     70 CA         -2.1036  -24.6528  -43.8221 C.3       12 UNK         0.1400 
     71 CB         -1.0414  -24.6619  -42.7106 C.3       12 UNK        -0.1800 
     72 C          -1.8987  -25.8323  -44.7880 C.2       12 UNK         0.5000 
     73 O          -2.6765  -26.7861  -44.7613 O.2       12 UNK        -0.5000 
     74 N          -0.8487  -25.7497  -45.6155 N.am      13 UNK        -0.5000 
     75 CA         -0.3678  -26.8440  -46.4590 C.3       13 UNK         0.1400 
     76 CB          1.0867  -26.5532  -46.8606 C.3       13 UNK        -0.1800 
     77 C          -1.2189  -27.1089  -47.7134 C.2       13 UNK         0.5000 
     78 O          -1.2232  -28.2409  -48.1990 O.2       13 UNK        -0.5000 
     79 N          -1.8967  -26.0770  -48.2302 N.am      14 UNK        -0.5000 
     80 CA         -2.6220  -26.1073  -49.5013 C.3       14 UNK         0.1400 
     81 CB         -1.7981  -25.3586  -50.5645 C.3       14 UNK        -0.1800 
     82 C          -4.0580  -25.5691  -49.3605 C.2       14 UNK         0.5000 
     83 O          -4.6208  -25.0903  -50.3474 O.2       14 UNK        -0.5000 
     84 N          -4.6202  -25.6891  -48.1454 N.am      15 UNK        -0.5000 
     85 CA         -6.0125  -25.4278  -47.7584 C.3       15 UNK         0.1400 
     86 CB         -6.9356  -26.5008  -48.3713 C.3       15 UNK        -0.1800 
     87 C          -6.4754  -24.0009  -48.1061 C.2       15 UNK         0.5000 
     88 O          -7.1315  -23.7964  -49.1281 O.2       15 UNK        -0.5000 
     89 N          -6.0763  -23.0258  -47.2756 N.am      16 UNK        -0.5000 
     90 CA         -6.3063  -21.5832  -47.4642 C.3       16 UNK         0.1400 
     91 CB         -7.8098  -21.2454  -47.3791 C.3       16 UNK        -0.1800 
     92 C          -5.6405  -21.0361  -48.7496 C.2       16 UNK         0.5000 
     93 O          -6.1195  -20.0593  -49.3262 O.2       16 UNK        -0.5000 
     94 N          -4.5624  -21.7118  -49.1805 N.am      17 UNK        -0.5000 
     95 CA         -3.7920  -21.5122  -50.4078 C.3       17 UNK         0.1400 
     96 CB         -3.0977  -20.1350  -50.4079 C.3       17 UNK        -0.1800 
     97 C          -4.5888  -21.7808  -51.7006 C.2       17 UNK         0.5000 
     98 O          -4.1116  -21.4248  -52.7776 O.2       17 UNK        -0.5000 
     99 N          -5.7599  -22.4275  -51.6007 N.am      18 UNK        -0.5000 
    100 CA        -6.6549  -22.6992  -52.7248 C.3       18 UNK         0.1400 
    101 CB        -8.0173  -23.1714  -52.1972 C.3       18 UNK        -0.1800 
    102 C         -6.0803  -23.7183  -53.7219 C.2       18 UNK         0.5000 
    103 O         -6.2805  -23.5577  -54.9263 O.2       18 UNK        -0.5000 
    104 N         -5.3619  -24.7309  -53.2155 N.am      19 UNK        -0.5000 
    105 CA        -4.7066  -25.7453  -54.0445 C.3       19 UNK         0.1400 
    106 CB        -4.4943  -27.0238  -53.2190 C.3       19 UNK        -0.1800 
    107 C         -3.3806  -25.2461  -54.6516 C.2       19 UNK         0.5000 
    108 O         -2.9634  -25.7562  -55.6919 O.2       19 UNK        -0.5000 
    109 N         -2.7461  -24.2620  -53.9999 N.am      20 UNK        -0.5000 
    110 CA        -1.5001  -23.6380  -54.4479 C.3       20 UNK         0.1400 
    111 CB        -0.7245  -23.1251  -53.2226 C.3       20 UNK        -0.1800 
    112 C         -1.7392  -22.4811  -55.4325 C.2       20 UNK         0.5000 
    113 O         -0.8641  -22.1953  -56.2509 O.2       20 UNK        -0.5000 
    114 N         -2.8825  -21.7930  -55.2876 N.am      21 UNK        -0.5000 
    115 CA        -3.2736  -20.5519  -55.9689 C.3       21 UNK         0.1400 
    116 CB        -3.5270  -20.8114  -57.4680 C.3       21 UNK        -0.1800 
    117 C         -2.2824  -19.3920  -55.7162 C.2       21 UNK         0.5000 
    118 O         -2.1364  -18.5092  -56.5634 O.2       21 UNK        -0.5000 
    119 N         -1.5941  -19.4457  -54.5658 N.am      22 UNK        -0.5000 
    120 CA        -0.4524  -18.5979  -54.1792 C.3       22 UNK         0.1400 
    121 C          0.8045  -18.7447  -55.0964 C.2       22 UNK         0.5000 
    122 N          0.9315  -19.7987  -55.8958 N.am      22 UNK        -0.7600 
    123 O          1.7044  -17.9097  -55.0610 O.2       22 UNK        -0.5000 
    124 C124       -0.8527  -17.1173  -53.9244 C.3       23 UNK        -0.0398 
    125 S125       -2.0176  -16.9541  -52.5280 S.3       23 UNK        -0.2404 
    126 C126       -0.8985  -16.3276  -51.2366 C.3       23 UNK        -0.0205 
    127 H127        1.1413   -9.4382  -44.8128 H         1 UNK         0.0600 
    128 H128       -0.6219   -9.3812  -44.8202 H         1 UNK         0.0600 
    129 H129        0.3086   -7.9878  -45.3810 H         1 UNK         0.0600 
    130 H130       -1.5529  -10.4547  -46.5347 H         1 UNK         0.3000 
    131 H131       -0.8311  -10.0991  -49.2259 H         1 UNK         0.0600 
    132 H132       -2.5838  -11.8992  -49.6532 H         1 UNK         0.0800 
    133 H133       -3.1040  -10.4831  -48.8009 H         1 UNK         0.0800 
    134 H134       -4.4140  -13.3361  -49.1417 H         1 UNK         0.0800 
    135 H135       -4.8386  -14.0234  -47.6001 H         1 UNK         0.0800 
    136 H136       -2.5314  -14.3009  -50.4490 H         1 UNK         0.1150 
    137 H137       -0.8575  -18.0045  -49.0829 H         1 UNK         0.1150 
    138 H138       -3.4256  -15.7366  -46.5118 H         1 UNK         0.1150 
    139 H139       -1.2206  -18.7645  -46.8589 H         1 UNK         0.0800 
    140 H140       -1.6403  -17.5626  -45.6602 H         1 UNK         0.0800 
    141 H141       -2.2453  -19.9190  -44.5430 H         1 UNK         0.0800 
    142 H142       -3.9369  -20.3193  -44.4531 H         1 UNK         0.0800 
    143 H143       -3.5971  -21.5686  -46.7127 H         1 UNK         0.0600 
    144 H144       -0.8263  -20.9354  -46.2385 H         1 UNK         0.3000 
    145 H145        0.3932  -23.4660  -48.4144 H         1 UNK         0.0600 
    146 H146        1.2258  -21.6500  -49.8896 H         1 UNK         0.0600 
    147 H147       -0.4854  -21.9185  -50.1672 H         1 UNK         0.0600 
    148 H148        0.0379  -20.5291  -49.2226 H         1 UNK         0.0600 
    149 H149        1.7067  -21.1549  -47.4718 H         1 UNK         0.3000 
    150 H150        3.1593  -22.6009  -44.7629 H         1 UNK         0.0600 
    151 H151        3.8676  -21.2368  -46.7284 H         1 UNK         0.0600 
    152 H152        4.1231  -20.3647  -45.2297 H         1 UNK         0.0600 
    153 H153        2.7604  -19.9471  -46.2602 H         1 UNK         0.0600 
    154 H154        2.2720  -21.4903  -43.0575 H         1 UNK         0.3000 
    155 H155       -0.1687  -20.6035  -42.0961 H         1 UNK         0.0600 
    156 H156        1.2747  -19.0448  -40.6730 H         1 UNK         0.0600 
    157 H157        2.3091  -18.7857  -42.0741 H         1 UNK         0.0600 
    158 H158        2.1719  -20.3842  -41.3521 H         1 UNK         0.0600 
    159 H159       -0.2364  -18.0867  -43.5506 H         1 UNK         0.3000 
    160 H160       -2.9446  -17.2126  -42.8542 H         1 UNK         0.0600 
    161 H161       -2.0025  -16.0248  -40.1851 H         1 UNK         0.0600 
    162 H162       -3.4726  -16.9614  -40.4377 H         1 UNK         0.0600 
    163 H163       -3.3080  -15.3801  -41.1793 H         1 UNK         0.0600 
    164 H164       -0.2724  -16.0517  -42.5900 H         1 UNK         0.3000 
    165 H165       -0.6223  -14.5257  -45.5803 H         1 UNK         0.0600 
    166 H166       -0.4742  -12.5693  -43.2310 H         1 UNK         0.0600 
    167 H167        0.0410  -12.2580  -44.8871 H         1 UNK         0.0600 
    168 H168       -1.6590  -12.4970  -44.5302 H         1 UNK         0.0600 
    169 H169        1.4680  -13.9949  -43.7724 H         1 UNK         0.3000 
    170 H170        2.8761  -16.7225  -43.0024 H         1 UNK         0.0600 
    171 H171        3.2584  -17.9498  -45.0757 H         1 UNK         0.0600 
    172 H172        3.7025  -16.4842  -45.9356 H         1 UNK         0.0600 
    173 H173        4.7315  -17.1014  -44.6424 H         1 UNK         0.0600 
    174 H174        3.9608  -14.4045  -44.4971 H         1 UNK         0.3000 
    175 H175        4.0113  -12.3211  -41.7099 H         1 UNK         0.0600 
    176 H176        6.5380  -13.8646  -42.5098 H         1 UNK         0.0600 
    177 H177        6.4957  -12.2852  -41.7245 H         1 UNK         0.0600 
    178 H178        5.9137  -13.7058  -40.8726 H         1 UNK         0.0600 
    179 H179        5.5612  -12.2942  -44.1279 H         1 UNK         0.3000 
    180 H180        3.6349  -10.0760  -45.6831 H         1 UNK         0.0600 
    181 H181        6.0412  -10.6669  -45.4675 H         1 UNK         0.0600 
    182 H182        5.7605  -12.2218  -46.2526 H         1 UNK         0.0600 
    183 H183        5.5377  -10.7236  -47.1442 H         1 UNK         0.0600 
    184 H184        2.4485  -11.0840  -47.2415 H         1 UNK         0.3000 
    185 H185        2.3479  -13.2105  -49.0684 H         1 UNK         0.0600 
    186 H186        2.3666  -15.5549  -48.1819 H         1 UNK         0.0600 
    187 H187        0.9876  -15.1819  -47.1555 H         1 UNK         0.0600 
    188 H188        0.8242  -15.1402  -48.9050 H         1 UNK         0.0600 
    189 H189        0.5036  -12.3015  -46.9715 H         1 UNK         0.3000 
    190 H190       -1.1184  -23.0206  -44.7365 H         1 UNK         0.3000 
    191 H191       -3.0808  -24.7698  -43.3483 H         1 UNK         0.0600 
    192 H192       -1.0603  -25.6039  -42.1611 H         1 UNK         0.0600 
    193 H193       -1.2203  -23.8626  -41.9913 H         1 UNK         0.0600 
    194 H194       -0.0337  -24.5333  -43.1073 H         1 UNK         0.0600 
    195 H195       -0.2532  -24.9249  -45.5715 H         1 UNK         0.3000 
    196 H196       -0.3741  -27.7590  -45.8627 H         1 UNK         0.0600 
    197 H197        1.5018  -27.3708  -47.4514 H         1 UNK         0.0600 
    198 H198        1.7217  -26.4320  -45.9828 H         1 UNK         0.0600 
    199 H199        1.1649  -25.6440  -47.4575 H         1 UNK         0.0600 
    200 H200       -1.8544  -25.1679  -47.7811 H         1 UNK         0.3000 
    201 H201       -2.7384  -27.1372  -49.8435 H         1 UNK         0.0600 
    202 H202       -0.7987  -25.7835  -50.6565 H         1 UNK         0.0600 
    203 H203       -1.6885  -24.3020  -50.3272 H         1 UNK         0.0600 
    204 H204       -2.2632  -25.4254  -51.5453 H         1 UNK         0.0600 
    205 H205       -4.0369  -26.0743  -47.4158 H         1 UNK         0.3000 
    206 H206       -6.0638  -25.5291  -46.6731 H         1 UNK         0.0600 
    207 H207       -6.6452  -27.5005  -48.0485 H         1 UNK         0.0600 
    208 H208       -7.9703  -26.3468  -48.0630 H         1 UNK         0.0600 
    209 H209       -6.9138  -26.4827  -49.4618 H         1 UNK         0.0600 
    210 H210       -5.5291  -23.2754  -46.4555 H         1 UNK         0.3000 
    211 H211       -5.8244  -21.0795  -46.6265 H         1 UNK         0.0600 
    212 H212       -8.3642  -21.6302  -48.2354 H         1 UNK         0.0600 
    213 H213       -7.9650  -20.1663  -47.3511 H         1 UNK         0.0600 
    214 H214       -8.2568  -21.6594  -46.4754 H         1 UNK         0.0600 
    215 H215       -4.2639  -22.5090  -48.6341 H         1 UNK         0.3000 
    216 H216       -3.0098  -22.2703  -50.3904 H         1 UNK         0.0600 
    217 H217       -3.8122  -19.3189  -50.5179 H         1 UNK         0.0600 
    218 H218       -2.3831  -20.0529  -51.2276 H         1 UNK         0.0600 
    219 H219       -2.5480  -19.9724  -49.4809 H         1 UNK         0.0600 
    220 H220       -6.0648  -22.7591  -50.6919 H         1 UNK         0.3000 
    221 H221       -6.8079  -21.7602  -53.2610 H         1 UNK         0.0600 
    222 H222       -7.9368  -24.1273  -51.6780 H         1 UNK         0.0600 
    223 H223       -8.4450  -22.4480  -51.5026 H         1 UNK         0.0600 
    224 H224       -8.7284  -23.3010  -53.0138 H         1 UNK         0.0600 
    225 H225       -5.2348  -24.7988  -52.2083 H         1 UNK         0.3000 
    226 H226       -5.3679  -25.9996  -54.8758 H         1 UNK         0.0600 
    227 H227       -5.4420  -27.4099  -52.8435 H         1 UNK         0.0600 
    228 H228       -4.0412  -27.8088  -53.8258 H         1 UNK         0.0600 
    229 H229       -3.8428  -26.8557  -52.3636 H         1 UNK         0.0600 
    230 H230       -3.1770  -23.8876  -53.1682 H         1 UNK         0.3000 
    231 H231       -0.8802  -24.3811  -54.9543 H         1 UNK         0.0600 
    232 H232       -1.3234  -22.4431  -52.6182 H         1 UNK         0.0600 
    233 H233       -0.4059  -23.9500  -52.5868 H         1 UNK         0.0600 
    234 H234        0.1776  -22.5904  -53.5237 H         1 UNK         0.0600 
    235 H235       -3.4883  -22.0454  -54.5133 H         1 UNK         0.3000 
    236 H236       -4.2194  -20.2449  -55.5202 H         1 UNK         0.0600 
    237 H237       -4.2283  -21.6336  -57.6112 H         1 UNK         0.0600 
    238 H238       -3.9562  -19.9327  -57.9505 H         1 UNK         0.0600 
    239 H239       -2.6067  -21.0586  -57.9979 H         1 UNK         0.0600 
    240 H240       -1.8202  -20.1935  -53.9270 H         1 UNK         0.3000 
    241 H241       -0.1147  -19.0003  -53.2235 H         1 UNK         0.0600 
    242 H242        0.2151  -20.5141  -55.9538 H         1 UNK         0.3800 
    243 H243        1.7555  -19.8796  -56.4701 H         1 UNK         0.3800 
    244 H244       -1.3080  -16.6814  -54.8140 H         1 UNK         0.0800 
    245 H245        0.0247  -16.5043  -53.7131 H         1 UNK         0.0800 
    246 H246       -0.0516  -17.0073  -51.1300 H         1 UNK         0.0800 
    247 H247       -0.4867  -15.3651  -51.5449 H         1 UNK         0.0800 
@<TRIPOS>BOND
     1    1    2 1    
     2    1  127 1    
     3    1  128 1    
     4    1  129 1    
     5    2    3 2    
     6    2    4 am   BACKBONE|DICT|INTERRES
     7    4    5 1    
     8    4  130 1    
     9    5    6 1    
    10    5   65 1    
    11    5  131 1    
    12    6    7 1    
    13    6  132 1    
    14    6  133 1    
    15    7    8 1    
    16    8    9 1    
    17    8  134 1    
    18    8  135 1    
    19    9   10 ar   
    20    9   14 ar   
    21   10   11 ar   
    22   10  136 1    
    23   11   12 ar   
    24   11  126 1    
    25   12   13 ar   
    26   12  137 1    
    27   13   14 ar   
    28   13   15 1    
    29   14  138 1    
    30   15   16 1    
    31   15  139 1    
    32   15  140 1    
    33   16   17 1    
    34   17   18 1    
    35   17  141 1    
    36   17  142 1    
    37   18   19 1    
    38   18   67 1    
    39   18  143 1    
    40   19   20 am   BACKBONE|DICT|INTERRES
    41   19  144 1    
    42   20   21 2    
    43   20   22 1    
    44   22   23 1    
    45   22   24 1    
    46   22  145 1    
    47   23  146 1    
    48   23  147 1    
    49   23  148 1    
    50   24   25 am   BACKBONE|DICT|INTERRES
    51   24  149 1    
    52   25   26 2    
    53   25   27 1    
    54   27   28 1    
    55   27   29 1    
    56   27  150 1    
    57   28  151 1    
    58   28  152 1    
    59   28  153 1    
    60   29   30 am   BACKBONE|DICT|INTERRES
    61   29  154 1    
    62   30   31 2    
    63   30   32 1    
    64   32   33 1    
    65   32   34 1    
    66   32  155 1    
    67   33  156 1    
    68   33  157 1    
    69   33  158 1    
    70   34   35 am   BACKBONE|DICT|INTERRES
    71   34  159 1    
    72   35   36 2    
    73   35   37 1    
    74   37   38 1    
    75   37   39 1    
    76   37  160 1    
    77   38  161 1    
    78   38  162 1    
    79   38  163 1    
    80   39   40 am   BACKBONE|DICT|INTERRES
    81   39  164 1    
    82   40   41 2    
    83   40   42 1    
    84   42   43 1    
    85   42   44 1    
    86   42  165 1    
    87   43  166 1    
    88   43  167 1    
    89   43  168 1    
    90   44   45 am   BACKBONE|DICT|INTERRES
    91   44  169 1    
    92   45   46 2    
    93   45   47 1    
    94   47   48 1    
    95   47   49 1    
    96   47  170 1    
    97   48  171 1    
    98   48  172 1    
    99   48  173 1    
   100   49   50 am   BACKBONE|DICT|INTERRES
   101   49  174 1    
   102   50   51 2    
   103   50   52 1    
   104   52   53 1    
   105   52   54 1    
   106   52  175 1    
   107   53  176 1    
   108   53  177 1    
   109   53  178 1    
   110   54   55 am   BACKBONE|DICT|INTERRES
   111   54  179 1    
   112   55   56 2    
   113   55   57 1    
   114   57   58 1    
   115   57   59 1    
   116   57  180 1    
   117   58  181 1    
   118   58  182 1    
   119   58  183 1    
   120   59   60 am   BACKBONE|DICT|INTERRES
   121   59  184 1    
   122   60   61 2    
   123   60   62 1    
   124   62   63 1    
   125   62   64 1    
   126   62  185 1    
   127   63  186 1    
   128   63  187 1    
   129   63  188 1    
   130   64   65 am   BACKBONE|DICT|INTERRES
   131   64  189 1    
   132   65   66 2    
   133   67   68 2    
   134   67   69 am   BACKBONE|DICT|INTERRES
   135   69   70 1    
   136   69  190 1    
   137   70   71 1    
   138   70   72 1    
   139   70  191 1    
   140   71  192 1    
   141   71  193 1    
   142   71  194 1    
   143   72   73 2    
   144   72   74 am   BACKBONE|DICT|INTERRES
   145   74   75 1    
   146   74  195 1    
   147   75   76 1    
   148   75   77 1    
   149   75  196 1    
   150   76  197 1    
   151   76  198 1    
   152   76  199 1    
   153   77   78 2    
   154   77   79 am   BACKBONE|DICT|INTERRES
   155   79   80 1    
   156   79  200 1    
   157   80   81 1    
   158   80   82 1    
   159   80  201 1    
   160   81  202 1    
   161   81  203 1    
   162   81  204 1    
   163   82   83 2    
   164   82   84 am   BACKBONE|DICT|INTERRES
   165   84   85 1    
   166   84  205 1    
   167   85   86 1    
   168   85   87 1    
   169   85  206 1    
   170   86  207 1    
   171   86  208 1    
   172   86  209 1    
   173   87   88 2    
   174   87   89 am   BACKBONE|DICT|INTERRES
   175   89   90 1    
   176   89  210 1    
   177   90   91 1    
   178   90   92 1    
   179   90  211 1    
   180   91  212 1    
   181   91  213 1    
   182   91  214 1    
   183   92   93 2    
   184   92   94 am   BACKBONE|DICT|INTERRES
   185   94   95 1    
   186   94  215 1    
   187   95   96 1    
   188   95   97 1    
   189   95  216 1    
   190   96  217 1    
   191   96  218 1    
   192   96  219 1    
   193   97   98 2    
   194   97   99 am   BACKBONE|DICT|INTERRES
   195   99  100 1    
   196   99  220 1    
   197  100  101 1    
   198  100  102 1    
   199  100  221 1    
   200  101  222 1    
   201  101  223 1    
   202  101  224 1    
   203  102  103 2    
   204  102  104 am   BACKBONE|DICT|INTERRES
   205  104  105 1    
   206  104  225 1    
   207  105  106 1    
   208  105  107 1    
   209  105  226 1    
   210  106  227 1    
   211  106  228 1    
   212  106  229 1    
   213  107  108 2    
   214  107  109 am   BACKBONE|DICT|INTERRES
   215  109  110 1    
   216  109  230 1    
   217  110  111 1    
   218  110  112 1    
   219  110  231 1    
   220  111  232 1    
   221  111  233 1    
   222  111  234 1    
   223  112  113 2    
   224  112  114 am   BACKBONE|DICT|INTERRES
   225  114  115 1    
   226  114  235 1    
   227  115  116 1    
   228  115  117 1    
   229  115  236 1    
   230  116  237 1    
   231  116  238 1    
   232  116  239 1    
   233  117  118 2    
   234  117  119 am   BACKBONE|DICT|INTERRES
   235  119  120 1    
   236  119  240 1    
   237  120  121 1    
   238  120  124 1    
   239  120  241 1    
   240  121  122 am   BACKBONE|DICT|INTERRES
   241  121  123 2    
   242  122  242 1    
   243  122  243 1    
   244  124  125 1    
   245  124  244 1    
   246  124  245 1    
   247  125  126 1    
   248  126  246 1    
   249  126  247 1    
@<TRIPOS>SUBSTRUCTURE
     1 UNK         1 GROUP             0       ****    0 ROOT    
