@<TRIPOS>MOLECULE
3R540
247   249    1
SMALL
USER_CHARGES


@<TRIPOS>ATOM
      1 CA         -5.4840  -14.8674  -50.9531 C.3       0 UNK        -0.1800 
      2 C          -4.3788  -14.2642  -50.0975 C.2       0 UNK         0.5000 
      3 O          -4.3786  -13.0561  -49.8582 O.2       0 UNK        -0.5000 
      4 N          -3.4449  -15.0949  -49.6212 N.am      1 UNK        -0.5000 
      5 CA         -2.2870  -14.7083  -48.8030 C.3       1 UNK         0.1400 
      6 C6         -1.0765  -15.6504  -49.0309 C.3       23 UNK        -0.0398 
      7 S7         -0.4641  -15.5074  -50.7440 S.3       23 UNK        -0.2404 
      8 C8          1.3334  -15.7255  -50.5677 C.3       23 UNK        -0.0205 
      9 C9          1.7377  -17.1829  -50.7242 C.ar      23 UNK        -0.0193 
     10 C10         1.6439  -17.7984  -51.9759 C.ar      23 UNK        -0.1150 
     11 C11         2.0271  -19.1310  -52.1437 C.ar      23 UNK        -0.0193 
     12 C12         2.5121  -19.8483  -51.0467 C.ar      23 UNK        -0.1150 
     13 C13         2.6218  -19.2446  -49.7893 C.ar      23 UNK        -0.0193 
     14 C14         2.2333  -17.9075  -49.6367 C.ar      23 UNK        -0.1150 
     15 C15         3.2006  -20.0453  -48.6245 C.3       23 UNK        -0.0205 
     16 S16         2.3724  -19.7735  -47.0209 S.3       23 UNK        -0.2404 
     17 C17         0.6560  -20.2616  -47.3957 C.3       23 UNK        -0.0398 
     18 CA          0.4005  -21.7918  -47.3179 C.3       11 UNK         0.1400 
     19 N           0.8489  -22.4247  -46.0707 N.am      11 UNK        -0.5000 
     20 C           0.4818  -22.1220  -44.8189 C.2       10 UNK         0.5000 
     21 O          -0.3846  -21.2888  -44.5490 O.2       10 UNK        -0.5000 
     22 CA          1.1996  -22.8678  -43.6804 C.3       10 UNK         0.1400 
     23 CB          2.6268  -23.3270  -44.0610 C.3       10 UNK        -0.1800 
     24 N           1.2459  -21.9927  -42.5143 N.am      10 UNK        -0.5000 
     25 C           1.5289  -22.3606  -41.2596 C.2       9 UNK         0.5000 
     26 O           1.6936  -23.5312  -40.9098 O.2       9 UNK        -0.5000 
     27 CA          1.6822  -21.2101  -40.2425 C.3       9 UNK         0.1400 
     28 CB          2.3221  -21.6470  -38.9087 C.3       9 UNK        -0.1800 
     29 N           2.3981  -20.0692  -40.8212 N.am      9 UNK        -0.5000 
     30 C           3.6475  -20.0375  -41.3094 C.2       8 UNK         0.5000 
     31 O           4.4465  -20.9717  -41.2361 O.2       8 UNK        -0.5000 
     32 CA          4.0692  -18.7408  -42.0282 C.3       8 UNK         0.1400 
     33 CB          3.8561  -18.8882  -43.5434 C.3       8 UNK        -0.1800 
     34 N           3.3411  -17.5606  -41.5572 N.am      8 UNK        -0.5000 
     35 C           3.5064  -16.9937  -40.3537 C.2       7 UNK         0.5000 
     36 O           4.3565  -17.3533  -39.5382 O.2       7 UNK        -0.5000 
     37 CA          2.5364  -15.8553  -39.9868 C.3       7 UNK         0.1400 
     38 CB          3.0042  -14.5219  -40.5894 C.3       7 UNK        -0.1800 
     39 N           1.1624  -16.1284  -40.4116 N.am      7 UNK        -0.5000 
     40 C           0.3858  -17.1030  -39.9169 C.2       6 UNK         0.5000 
     41 O           0.7272  -17.8562  -39.0054 O.2       6 UNK        -0.5000 
     42 CA         -0.9906  -17.2962  -40.5779 C.3       6 UNK         0.1400 
     43 CB         -2.0223  -16.3118  -40.0062 C.3       6 UNK        -0.1800 
     44 N          -0.9329  -17.1615  -42.0337 N.am      6 UNK        -0.5000 
     45 C          -0.3382  -18.0413  -42.8520 C.2       5 UNK         0.5000 
     46 O           0.2143  -19.0699  -42.4628 O.2       5 UNK        -0.5000 
     47 CA         -0.3258  -17.6871  -44.3508 C.3       5 UNK         0.1400 
     48 CB         -1.6524  -18.0949  -45.0105 C.3       5 UNK        -0.1800 
     49 N          -0.0852  -16.2640  -44.5977 N.am      5 UNK        -0.5000 
     50 C           1.0330  -15.6099  -44.2509 C.2       4 UNK         0.5000 
     51 O           2.0035  -16.1482  -43.7194 O.2       4 UNK        -0.5000 
     52 CA          1.0427  -14.0871  -44.4737 C.3       4 UNK         0.1400 
     53 CB          1.3086  -13.7453  -45.9470 C.3       4 UNK        -0.1800 
     54 N          -0.1989  -13.4452  -44.0397 N.am      4 UNK        -0.5000 
     55 C          -0.6744  -13.4370  -42.7880 C.2       3 UNK         0.5000 
     56 O          -0.0897  -13.9622  -41.8419 O.2       3 UNK        -0.5000 
     57 CA         -2.0506  -12.7833  -42.5460 C.3       3 UNK         0.1400 
     58 CB         -1.9214  -11.2631  -42.3336 C.3       3 UNK        -0.1800 
     59 N          -3.0577  -13.1169  -43.5646 N.am      3 UNK        -0.5000 
     60 C          -3.0897  -12.7570  -44.8542 C.2       2 UNK         0.5000 
     61 O          -2.2810  -11.9867  -45.3786 O.2       2 UNK        -0.5000 
     62 CA         -4.1900  -13.4072  -45.7125 C.3       2 UNK         0.1400 
     63 CB         -5.3973  -12.4683  -45.8510 C.3       2 UNK        -0.1800 
     64 N          -3.7003  -13.7544  -47.0459 N.am      2 UNK        -0.5000 
     65 C          -2.6842  -14.5852  -47.3162 C.2       1 UNK         0.5000 
     66 O          -2.0815  -15.2248  -46.4510 O.2       1 UNK        -0.5000 
     67 C          -1.0668  -22.1326  -47.6422 C.2       11 UNK         0.5000 
     68 O          -1.3231  -22.8900  -48.5774 O.2       11 UNK        -0.5000 
     69 N          -1.9988  -21.6072  -46.8364 N.am      12 UNK        -0.5000 
     70 CA         -3.4470  -21.7752  -46.9773 C.3       12 UNK         0.1400 
     71 CB         -4.1556  -20.8301  -45.9960 C.3       12 UNK        -0.1800 
     72 C          -3.9282  -23.2263  -46.7792 C.2       12 UNK         0.5000 
     73 O          -5.0038  -23.5816  -47.2619 O.2       12 UNK        -0.5000 
     74 N          -3.1213  -24.0319  -46.0766 N.am      13 UNK        -0.5000 
     75 CA         -3.3275  -25.4657  -45.8877 C.3       13 UNK         0.1400 
     76 CB         -2.6040  -25.8991  -44.6029 C.3       13 UNK        -0.1800 
     77 C          -2.8351  -26.3018  -47.0860 C.2       13 UNK         0.5000 
     78 O          -3.3128  -27.4223  -47.2671 O.2       13 UNK        -0.5000 
     79 N          -1.8853  -25.7672  -47.8687 N.am      14 UNK        -0.5000 
     80 CA         -1.3048  -26.4389  -49.0332 C.3       14 UNK         0.1400 
     81 CB          0.1253  -25.9254  -49.2663 C.3       14 UNK        -0.1800 
     82 C          -2.1702  -26.2432  -50.2888 C.2       14 UNK         0.5000 
     83 O          -2.3367  -27.1844  -51.0657 O.2       14 UNK        -0.5000 
     84 N          -2.7247  -25.0378  -50.4490 N.am      15 UNK        -0.5000 
     85 CA         -3.6737  -24.6709  -51.4923 C.3       15 UNK         0.1400 
     86 CB         -2.9157  -24.1501  -52.7227 C.3       15 UNK        -0.1800 
     87 C          -4.5968  -23.5973  -50.9078 C.2       15 UNK         0.5000 
     88 O          -4.1114  -22.7530  -50.1570 O.2       15 UNK        -0.5000 
     89 N          -5.8923  -23.6502  -51.2456 N.am      16 UNK        -0.5000 
     90 CA         -6.9789  -22.8397  -50.6791 C.3       16 UNK         0.1400 
     91 CB         -8.2815  -23.1713  -51.4268 C.3       16 UNK        -0.1800 
     92 C          -6.7051  -21.3201  -50.6785 C.2       16 UNK         0.5000 
     93 O          -6.8638  -20.6704  -51.7119 O.2       16 UNK        -0.5000 
     94 N          -6.2669  -20.8078  -49.5179 N.am      17 UNK        -0.5000 
     95 CA         -5.8253  -19.4317  -49.2393 C.3       17 UNK         0.1400 
     96 CB         -6.9682  -18.4211  -49.4675 C.3       17 UNK        -0.1800 
     97 C          -4.5293  -19.0064  -49.9675 C.2       17 UNK         0.5000 
     98 O          -4.1504  -17.8375  -49.8811 O.2       17 UNK        -0.5000 
     99 N          -3.8554  -19.9522  -50.6360 N.am      18 UNK        -0.5000 
    100 CA        -2.6698  -19.7761  -51.4733 C.3       18 UNK         0.1400 
    101 CB        -1.4452  -19.4868  -50.5876 C.3       18 UNK        -0.1800 
    102 C         -2.9025  -18.7562  -52.6110 C.2       18 UNK         0.5000 
    103 O         -3.9548  -18.8029  -53.2523 O.2       18 UNK        -0.5000 
    104 N         -1.9257  -17.8734  -52.8636 N.am      19 UNK        -0.5000 
    105 CA        -1.9191  -16.8488  -53.9121 C.3       19 UNK         0.1400 
    106 CB        -2.9427  -15.7350  -53.5882 C.3       19 UNK        -0.1800 
    107 C         -2.1009  -17.4805  -55.3079 C.2       19 UNK         0.5000 
    108 O         -1.2215  -18.2175  -55.7545 O.2       19 UNK        -0.5000 
    109 N         -3.2447  -17.2206  -55.9549 N.am      20 UNK        -0.5000 
    110 CA        -3.6305  -17.7914  -57.2458 C.3       20 UNK         0.1400 
    111 CB        -4.9034  -17.0894  -57.7419 C.3       20 UNK        -0.1800 
    112 C         -3.8356  -19.3193  -57.2130 C.2       20 UNK         0.5000 
    113 O         -3.6473  -19.9707  -58.2420 O.2       20 UNK        -0.5000 
    114 N         -4.1811  -19.8772  -56.0411 N.am      21 UNK        -0.5000 
    115 CA        -4.3735  -21.3169  -55.8406 C.3       21 UNK         0.1400 
    116 CB        -5.0805  -21.5667  -54.4993 C.3       21 UNK        -0.1800 
    117 C         -3.0645  -22.1265  -55.9331 C.2       21 UNK         0.5000 
    118 O         -3.1262  -23.3386  -56.1408 O.2       21 UNK        -0.5000 
    119 N         -1.9113  -21.4531  -55.8115 N.am      22 UNK        -0.5000 
    120 CA        -0.5792  -22.0303  -56.0500 C.3       22 UNK         0.1400 
    121 C         -0.2951  -22.3861  -57.5421 C.2       22 UNK         0.5000 
    122 N         -1.0804  -21.9198  -58.5081 N.am      22 UNK        -0.7600 
    123 O          0.6590  -23.1040  -57.8285 O.2       22 UNK        -0.5000 
    124 C124        0.5548  -21.1276  -55.5011 C.3       23 UNK        -0.0398 
    125 S125        0.3980  -20.7239  -53.7295 S.3       23 UNK        -0.2404 
    126 C126        1.9410  -19.7838  -53.5141 C.3       23 UNK        -0.0205 
    127 H127       -6.4191  -14.8961  -50.3942 H         1 UNK         0.0600 
    128 H128       -5.2429  -15.8818  -51.2704 H         1 UNK         0.0600 
    129 H129       -5.6369  -14.2654  -51.8487 H         1 UNK         0.0600 
    130 H130       -3.5505  -16.0942  -49.7912 H         1 UNK         0.3000 
    131 H131       -1.9697  -13.7075  -49.1044 H         1 UNK         0.0600 
    132 H132       -0.2621  -15.4007  -48.3510 H         1 UNK         0.0800 
    133 H133       -1.3448  -16.6847  -48.8170 H         1 UNK         0.0800 
    134 H134        1.8297  -15.1411  -51.3437 H         1 UNK         0.0800 
    135 H135        1.6784  -15.3163  -49.6172 H         1 UNK         0.0800 
    136 H136        1.2749  -17.2355  -52.8217 H         1 UNK         0.1150 
    137 H137        2.8156  -20.8774  -51.1793 H         1 UNK         0.1150 
    138 H138        2.3243  -17.4278  -48.6725 H         1 UNK         0.1150 
    139 H139        4.2534  -19.7819  -48.5176 H         1 UNK         0.0800 
    140 H140        3.1738  -21.1132  -48.8456 H         1 UNK         0.0800 
    141 H141        0.3923  -19.8790  -48.3804 H         1 UNK         0.0800 
    142 H142        0.0156  -19.7274  -46.6958 H         1 UNK         0.0800 
    143 H143        0.9984  -22.2526  -48.1059 H         1 UNK         0.0600 
    144 H144        1.5626  -23.1295  -46.1874 H         1 UNK         0.3000 
    145 H145        0.5942  -23.7425  -43.4357 H         1 UNK         0.0600 
    146 H146        3.1317  -23.8061  -43.2223 H         1 UNK         0.0600 
    147 H147        2.6122  -24.0582  -44.8696 H         1 UNK         0.0600 
    148 H148        3.2453  -22.4858  -44.3780 H         1 UNK         0.0600 
    149 H149        1.0147  -21.0198  -42.6995 H         1 UNK         0.3000 
    150 H150        0.6732  -20.8567  -40.0251 H         1 UNK         0.0600 
    151 H151        1.7140  -22.4059  -38.4152 H         1 UNK         0.0600 
    152 H152        2.4102  -20.8049  -38.2221 H         1 UNK         0.0600 
    153 H153        3.3170  -22.0688  -39.0528 H         1 UNK         0.0600 
    154 H154        1.8186  -19.2592  -41.0021 H         1 UNK         0.3000 
    155 H155        5.1341  -18.5862  -41.8431 H         1 UNK         0.0600 
    156 H156        2.8030  -19.0309  -43.7894 H         1 UNK         0.0600 
    157 H157        4.4022  -19.7469  -43.9361 H         1 UNK         0.0600 
    158 H158        4.2067  -18.0066  -44.0802 H         1 UNK         0.0600 
    159 H159        2.6711  -17.1523  -42.2037 H         1 UNK         0.3000 
    160 H160        2.5371  -15.7549  -38.8995 H         1 UNK         0.0600 
    161 H161        3.0018  -14.5489  -41.6794 H         1 UNK         0.0600 
    162 H162        4.0185  -14.2822  -40.2683 H         1 UNK         0.0600 
    163 H163        2.3601  -13.7005  -40.2751 H         1 UNK         0.0600 
    164 H164        0.7764  -15.5093  -41.1191 H         1 UNK         0.3000 
    165 H165       -1.3295  -18.3088  -40.3476 H         1 UNK         0.0600 
    166 H166       -3.0081  -16.4756  -40.4416 H         1 UNK         0.0600 
    167 H167       -2.1196  -16.4364  -38.9270 H         1 UNK         0.0600 
    168 H168       -1.7414  -15.2750  -40.1897 H         1 UNK         0.0600 
    169 H169       -1.3227  -16.3214  -42.4323 H         1 UNK         0.3000 
    170 H170        0.4836  -18.2533  -44.8157 H         1 UNK         0.0600 
    171 H171       -1.8871  -19.1394  -44.8080 H         1 UNK         0.0600 
    172 H172       -2.4862  -17.4970  -44.6408 H         1 UNK         0.0600 
    173 H173       -1.6103  -17.9722  -46.0928 H         1 UNK         0.0600 
    174 H174       -0.8230  -15.7584  -45.0812 H         1 UNK         0.3000 
    175 H175        1.8574  -13.6729  -43.8764 H         1 UNK         0.0600 
    176 H176        0.4813  -14.0525  -46.5855 H         1 UNK         0.0600 
    177 H177        1.4509  -12.6729  -46.0811 H         1 UNK         0.0600 
    178 H178        2.2097  -14.2415  -46.3099 H         1 UNK         0.0600 
    179 H179       -0.7559  -12.9812  -44.7510 H         1 UNK         0.3000 
    180 H180       -2.4317  -13.2047  -41.6145 H         1 UNK         0.0600 
    181 H181       -1.4933  -10.7602  -43.2008 H         1 UNK         0.0600 
    182 H182       -1.2732  -11.0466  -41.4836 H         1 UNK         0.0600 
    183 H183       -2.8909  -10.8100  -42.1266 H         1 UNK         0.0600 
    184 H184       -3.7681  -13.7623  -43.2481 H         1 UNK         0.3000 
    185 H185       -4.5169  -14.3309  -45.2308 H         1 UNK         0.0600 
    186 H186       -6.1985  -12.9370  -46.4228 H         1 UNK         0.0600 
    187 H187       -5.8050  -12.2079  -44.8734 H         1 UNK         0.0600 
    188 H188       -5.1266  -11.5382  -46.3528 H         1 UNK         0.0600 
    189 H189       -4.1173  -13.2632  -47.8286 H         1 UNK         0.3000 
    190 H190       -1.6734  -21.1107  -46.0125 H         1 UNK         0.3000 
    191 H191       -3.7150  -21.4732  -47.9894 H         1 UNK         0.0600 
    192 H192       -3.9139  -19.7887  -46.2092 H         1 UNK         0.0600 
    193 H193       -5.2395  -20.9311  -46.0651 H         1 UNK         0.0600 
    194 H194       -3.8715  -21.0372  -44.9635 H         1 UNK         0.0600 
    195 H195       -2.2769  -23.6371  -45.6912 H         1 UNK         0.3000 
    196 H196       -4.3948  -25.6600  -45.7611 H         1 UNK         0.0600 
    197 H197       -2.7555  -26.9618  -44.4088 H         1 UNK         0.0600 
    198 H198       -2.9800  -25.3553  -43.7360 H         1 UNK         0.0600 
    199 H199       -1.5287  -25.7272  -44.6672 H         1 UNK         0.0600 
    200 H200       -1.5999  -24.8089  -47.7163 H         1 UNK         0.3000 
    201 H201       -1.2421  -27.5108  -48.8324 H         1 UNK         0.0600 
    202 H202        0.7458  -26.0701  -48.3818 H         1 UNK         0.0600 
    203 H203        0.1431  -24.8654  -49.5197 H         1 UNK         0.0600 
    204 H204        0.5999  -26.4632  -50.0879 H         1 UNK         0.0600 
    205 H205       -2.5434  -24.3042  -49.7699 H         1 UNK         0.3000 
    206 H206       -4.2718  -25.5414  -51.7699 H         1 UNK         0.0600 
    207 H207       -2.3539  -23.2419  -52.5002 H         1 UNK         0.0600 
    208 H208       -2.2137  -24.8929  -53.1016 H         1 UNK         0.0600 
    209 H209       -3.6101  -23.9240  -53.5297 H         1 UNK         0.0600 
    210 H210       -6.1839  -24.3633  -51.8978 H         1 UNK         0.3000 
    211 H211       -7.1066  -23.1585  -49.6424 H         1 UNK         0.0600 
    212 H212       -8.1993  -22.9560  -52.4930 H         1 UNK         0.0600 
    213 H213       -9.1156  -22.5862  -51.0372 H         1 UNK         0.0600 
    214 H214       -8.5449  -24.2233  -51.3159 H         1 UNK         0.0600 
    215 H215       -6.1307  -21.4594  -48.7569 H         1 UNK         0.3000 
    216 H216       -5.5845  -19.4085  -48.1765 H         1 UNK         0.0600 
    217 H217       -6.6948  -17.4320  -49.0979 H         1 UNK         0.0600 
    218 H218       -7.8745  -18.7229  -48.9427 H         1 UNK         0.0600 
    219 H219       -7.2101  -18.3142  -50.5252 H         1 UNK         0.0600 
    220 H220       -4.2072  -20.9038  -50.5877 H         1 UNK         0.3000 
    221 H221       -2.5014  -20.7371  -51.9608 H         1 UNK         0.0600 
    222 H222       -1.4984  -18.5053  -50.1219 H         1 UNK         0.0600 
    223 H223       -1.3727  -20.2297  -49.7969 H         1 UNK         0.0600 
    224 H224       -0.5205  -19.5402  -51.1568 H         1 UNK         0.0600 
    225 H225       -1.0912  -17.9177  -52.2964 H         1 UNK         0.3000 
    226 H226       -0.9255  -16.3990  -53.9041 H         1 UNK         0.0600 
    227 H227       -2.7237  -15.2722  -52.6271 H         1 UNK         0.0600 
    228 H228       -2.9110  -14.9416  -54.3358 H         1 UNK         0.0600 
    229 H229       -3.9656  -16.1091  -53.5397 H         1 UNK         0.0600 
    230 H230       -3.9271  -16.6327  -55.4991 H         1 UNK         0.3000 
    231 H231       -2.8269  -17.5852  -57.9558 H         1 UNK         0.0600 
    232 H232       -5.7389  -17.2408  -57.0572 H         1 UNK         0.0600 
    233 H233       -5.2053  -17.4715  -58.7180 H         1 UNK         0.0600 
    234 H234       -4.7463  -16.0159  -57.8495 H         1 UNK         0.0600 
    235 H235       -4.2674  -19.2922  -55.2153 H         1 UNK         0.3000 
    236 H236       -5.0327  -21.6739  -56.6347 H         1 UNK         0.0600 
    237 H237       -5.9640  -20.9373  -54.3912 H         1 UNK         0.0600 
    238 H238       -5.4132  -22.6020  -54.4225 H         1 UNK         0.0600 
    239 H239       -4.4255  -21.3721  -53.6501 H         1 UNK         0.0600 
    240 H240       -1.9375  -20.4544  -55.6531 H         1 UNK         0.3000 
    241 H241       -0.5375  -22.9736  -55.5021 H         1 UNK         0.0600 
    242 H242       -1.8744  -21.3291  -58.2987 H         1 UNK         0.3800 
    243 H243       -0.8817  -22.1638  -59.4656 H         1 UNK         0.3800 
    244 H244        0.5959  -20.1930  -56.0631 H         1 UNK         0.0800 
    245 H245        1.5223  -21.6123  -55.6446 H         1 UNK         0.0800 
    246 H246        2.0094  -19.0213  -54.2919 H         1 UNK         0.0800 
    247 H247        2.7931  -20.4493  -53.6608 H         1 UNK         0.0800 
@<TRIPOS>BOND
     1    1    2 1    
     2    1  127 1    
     3    1  128 1    
     4    1  129 1    
     5    2    3 2    
     6    2    4 am   BACKBONE|DICT|INTERRES
     7    4    5 1    
     8    4  130 1    
     9    5    6 1    
    10    5   65 1    
    11    5  131 1    
    12    6    7 1    
    13    6  132 1    
    14    6  133 1    
    15    7    8 1    
    16    8    9 1    
    17    8  134 1    
    18    8  135 1    
    19    9   10 ar   
    20    9   14 ar   
    21   10   11 ar   
    22   10  136 1    
    23   11   12 ar   
    24   11  126 1    
    25   12   13 ar   
    26   12  137 1    
    27   13   14 ar   
    28   13   15 1    
    29   14  138 1    
    30   15   16 1    
    31   15  139 1    
    32   15  140 1    
    33   16   17 1    
    34   17   18 1    
    35   17  141 1    
    36   17  142 1    
    37   18   19 1    
    38   18   67 1    
    39   18  143 1    
    40   19   20 am   BACKBONE|DICT|INTERRES
    41   19  144 1    
    42   20   21 2    
    43   20   22 1    
    44   22   23 1    
    45   22   24 1    
    46   22  145 1    
    47   23  146 1    
    48   23  147 1    
    49   23  148 1    
    50   24   25 am   BACKBONE|DICT|INTERRES
    51   24  149 1    
    52   25   26 2    
    53   25   27 1    
    54   27   28 1    
    55   27   29 1    
    56   27  150 1    
    57   28  151 1    
    58   28  152 1    
    59   28  153 1    
    60   29   30 am   BACKBONE|DICT|INTERRES
    61   29  154 1    
    62   30   31 2    
    63   30   32 1    
    64   32   33 1    
    65   32   34 1    
    66   32  155 1    
    67   33  156 1    
    68   33  157 1    
    69   33  158 1    
    70   34   35 am   BACKBONE|DICT|INTERRES
    71   34  159 1    
    72   35   36 2    
    73   35   37 1    
    74   37   38 1    
    75   37   39 1    
    76   37  160 1    
    77   38  161 1    
    78   38  162 1    
    79   38  163 1    
    80   39   40 am   BACKBONE|DICT|INTERRES
    81   39  164 1    
    82   40   41 2    
    83   40   42 1    
    84   42   43 1    
    85   42   44 1    
    86   42  165 1    
    87   43  166 1    
    88   43  167 1    
    89   43  168 1    
    90   44   45 am   BACKBONE|DICT|INTERRES
    91   44  169 1    
    92   45   46 2    
    93   45   47 1    
    94   47   48 1    
    95   47   49 1    
    96   47  170 1    
    97   48  171 1    
    98   48  172 1    
    99   48  173 1    
   100   49   50 am   BACKBONE|DICT|INTERRES
   101   49  174 1    
   102   50   51 2    
   103   50   52 1    
   104   52   53 1    
   105   52   54 1    
   106   52  175 1    
   107   53  176 1    
   108   53  177 1    
   109   53  178 1    
   110   54   55 am   BACKBONE|DICT|INTERRES
   111   54  179 1    
   112   55   56 2    
   113   55   57 1    
   114   57   58 1    
   115   57   59 1    
   116   57  180 1    
   117   58  181 1    
   118   58  182 1    
   119   58  183 1    
   120   59   60 am   BACKBONE|DICT|INTERRES
   121   59  184 1    
   122   60   61 2    
   123   60   62 1    
   124   62   63 1    
   125   62   64 1    
   126   62  185 1    
   127   63  186 1    
   128   63  187 1    
   129   63  188 1    
   130   64   65 am   BACKBONE|DICT|INTERRES
   131   64  189 1    
   132   65   66 2    
   133   67   68 2    
   134   67   69 am   BACKBONE|DICT|INTERRES
   135   69   70 1    
   136   69  190 1    
   137   70   71 1    
   138   70   72 1    
   139   70  191 1    
   140   71  192 1    
   141   71  193 1    
   142   71  194 1    
   143   72   73 2    
   144   72   74 am   BACKBONE|DICT|INTERRES
   145   74   75 1    
   146   74  195 1    
   147   75   76 1    
   148   75   77 1    
   149   75  196 1    
   150   76  197 1    
   151   76  198 1    
   152   76  199 1    
   153   77   78 2    
   154   77   79 am   BACKBONE|DICT|INTERRES
   155   79   80 1    
   156   79  200 1    
   157   80   81 1    
   158   80   82 1    
   159   80  201 1    
   160   81  202 1    
   161   81  203 1    
   162   81  204 1    
   163   82   83 2    
   164   82   84 am   BACKBONE|DICT|INTERRES
   165   84   85 1    
   166   84  205 1    
   167   85   86 1    
   168   85   87 1    
   169   85  206 1    
   170   86  207 1    
   171   86  208 1    
   172   86  209 1    
   173   87   88 2    
   174   87   89 am   BACKBONE|DICT|INTERRES
   175   89   90 1    
   176   89  210 1    
   177   90   91 1    
   178   90   92 1    
   179   90  211 1    
   180   91  212 1    
   181   91  213 1    
   182   91  214 1    
   183   92   93 2    
   184   92   94 am   BACKBONE|DICT|INTERRES
   185   94   95 1    
   186   94  215 1    
   187   95   96 1    
   188   95   97 1    
   189   95  216 1    
   190   96  217 1    
   191   96  218 1    
   192   96  219 1    
   193   97   98 2    
   194   97   99 am   BACKBONE|DICT|INTERRES
   195   99  100 1    
   196   99  220 1    
   197  100  101 1    
   198  100  102 1    
   199  100  221 1    
   200  101  222 1    
   201  101  223 1    
   202  101  224 1    
   203  102  103 2    
   204  102  104 am   BACKBONE|DICT|INTERRES
   205  104  105 1    
   206  104  225 1    
   207  105  106 1    
   208  105  107 1    
   209  105  226 1    
   210  106  227 1    
   211  106  228 1    
   212  106  229 1    
   213  107  108 2    
   214  107  109 am   BACKBONE|DICT|INTERRES
   215  109  110 1    
   216  109  230 1    
   217  110  111 1    
   218  110  112 1    
   219  110  231 1    
   220  111  232 1    
   221  111  233 1    
   222  111  234 1    
   223  112  113 2    
   224  112  114 am   BACKBONE|DICT|INTERRES
   225  114  115 1    
   226  114  235 1    
   227  115  116 1    
   228  115  117 1    
   229  115  236 1    
   230  116  237 1    
   231  116  238 1    
   232  116  239 1    
   233  117  118 2    
   234  117  119 am   BACKBONE|DICT|INTERRES
   235  119  120 1    
   236  119  240 1    
   237  120  121 1    
   238  120  124 1    
   239  120  241 1    
   240  121  122 am   BACKBONE|DICT|INTERRES
   241  121  123 2    
   242  122  242 1    
   243  122  243 1    
   244  124  125 1    
   245  124  244 1    
   246  124  245 1    
   247  125  126 1    
   248  126  246 1    
   249  126  247 1    
@<TRIPOS>SUBSTRUCTURE
     1 UNK         1 GROUP             0       ****    0 ROOT    
