@<TRIPOS>MOLECULE
3R540
247   249    1
SMALL
USER_CHARGES


@<TRIPOS>ATOM
      1 CA         -5.4652  -14.2964  -51.6411 C.3       0 UNK        -0.1800 
      2 C          -4.1686  -13.7303  -51.0801 C.2       0 UNK         0.5000 
      3 O          -3.9588  -12.5184  -51.1443 O.2       0 UNK        -0.5000 
      4 N          -3.3055  -14.5944  -50.5292 N.am      1 UNK        -0.5000 
      5 CA         -2.0793  -14.2260  -49.8093 C.3       1 UNK         0.1400 
      6 C6         -1.3098  -15.4723  -49.3063 C.3       23 UNK        -0.0398 
      7 S7         -0.5623  -16.4497  -50.6476 S.3       23 UNK        -0.2404 
      8 C8         -0.6616  -18.1226  -49.9326 C.3       23 UNK        -0.0205 
      9 C9          0.4624  -19.0105  -50.4397 C.ar      23 UNK        -0.0193 
     10 C10         0.5239  -19.3740  -51.7877 C.ar      23 UNK        -0.1150 
     11 C11         1.5941  -20.1331  -52.2695 C.ar      23 UNK        -0.0193 
     12 C12         2.5793  -20.5736  -51.3816 C.ar      23 UNK        -0.1150 
     13 C13         2.5215  -20.2287  -50.0278 C.ar      23 UNK        -0.0193 
     14 C14         1.4634  -19.4418  -49.5642 C.ar      23 UNK        -0.1150 
     15 C15         3.6338  -20.6631  -49.0854 C.3       23 UNK        -0.0205 
     16 S16         3.2215  -22.1983  -48.2013 S.3       23 UNK        -0.2404 
     17 C17         2.4190  -21.5511  -46.6964 C.3       23 UNK        -0.0398 
     18 CA          1.2343  -22.4258  -46.2257 C.3       11 UNK         0.1400 
     19 N           0.9915  -22.2766  -44.7893 N.am      11 UNK        -0.5000 
     20 C           0.1918  -23.0711  -44.0650 C.2       10 UNK         0.5000 
     21 O          -0.3986  -24.0481  -44.5252 O.2       10 UNK        -0.5000 
     22 CA         -0.0211  -22.6789  -42.5908 C.3       10 UNK         0.1400 
     23 CB          1.1489  -23.1593  -41.7198 C.3       10 UNK        -0.1800 
     24 N          -0.2054  -21.2369  -42.4183 N.am      10 UNK        -0.5000 
     25 C          -1.2322  -20.5433  -42.9296 C.2       9 UNK         0.5000 
     26 O          -2.1657  -21.0600  -43.5416 O.2       9 UNK        -0.5000 
     27 CA         -1.1826  -19.0131  -42.7908 C.3       9 UNK         0.1400 
     28 CB         -1.6676  -18.5622  -41.4060 C.3       9 UNK        -0.1800 
     29 N           0.1495  -18.4658  -43.0521 N.am      9 UNK        -0.5000 
     30 C           0.7915  -18.5414  -44.2266 C.2       8 UNK         0.5000 
     31 O           0.3089  -19.0408  -45.2403 O.2       8 UNK        -0.5000 
     32 CA          2.2356  -18.0179  -44.2672 C.3       8 UNK         0.1400 
     33 CB          2.2681  -16.4966  -44.4706 C.3       8 UNK        -0.1800 
     34 N           2.9775  -18.3789  -43.0604 N.am      8 UNK        -0.5000 
     35 C           3.3354  -19.6323  -42.7466 C.2       7 UNK         0.5000 
     36 O           3.1118  -20.6068  -43.4648 O.2       7 UNK        -0.5000 
     37 CA          4.0142  -19.8312  -41.3799 C.3       7 UNK         0.1400 
     38 CB          5.5136  -19.5101  -41.4661 C.3       7 UNK        -0.1800 
     39 N           3.4003  -19.0147  -40.3312 N.am      7 UNK        -0.5000 
     40 C           2.1552  -19.1940  -39.8680 C.2       6 UNK         0.5000 
     41 O           1.4083  -20.0949  -40.2493 O.2       6 UNK        -0.5000 
     42 CA          1.6443  -18.1647  -38.8422 C.3       6 UNK         0.1400 
     43 CB          2.0574  -18.5694  -37.4195 C.3       6 UNK        -0.1800 
     44 N           2.1008  -16.7972  -39.1125 N.am      6 UNK        -0.5000 
     45 C           1.7918  -16.0987  -40.2127 C.2       5 UNK         0.5000 
     46 O           1.1226  -16.5519  -41.1434 O.2       5 UNK        -0.5000 
     47 CA          2.3821  -14.6838  -40.3211 C.3       5 UNK         0.1400 
     48 CB          3.7274  -14.7262  -41.0624 C.3       5 UNK        -0.1800 
     49 N           1.4726  -13.7942  -41.0407 N.am      5 UNK        -0.5000 
     50 C           0.3943  -13.2096  -40.5016 C.2       4 UNK         0.5000 
     51 O           0.0918  -13.2980  -39.3107 O.2       4 UNK        -0.5000 
     52 CA         -0.4941  -12.3829  -41.4514 C.3       4 UNK         0.1400 
     53 CB         -0.0222  -10.9218  -41.4986 C.3       4 UNK        -0.1800 
     54 N          -0.5188  -12.9197  -42.8127 N.am      4 UNK        -0.5000 
     55 C          -1.1809  -14.0205  -43.1868 C.2       3 UNK         0.5000 
     56 O          -1.9023  -14.6702  -42.4286 O.2       3 UNK        -0.5000 
     57 CA         -1.0136  -14.4440  -44.6605 C.3       3 UNK         0.1400 
     58 CB         -1.7331  -15.7607  -44.9934 C.3       3 UNK        -0.1800 
     59 N          -1.4729  -13.4281  -45.6031 N.am      3 UNK        -0.5000 
     60 C          -0.8249  -12.3129  -45.9552 C.2       2 UNK         0.5000 
     61 O           0.2301  -11.9469  -45.4326 O.2       2 UNK        -0.5000 
     62 CA         -1.4421  -11.5255  -47.1311 C.3       2 UNK         0.1400 
     63 CB         -0.6813  -10.2234  -47.4386 C.3       2 UNK        -0.1800 
     64 N          -1.4713  -12.3558  -48.3393 N.am      2 UNK        -0.5000 
     65 C          -2.3723  -13.3134  -48.5979 C.2       1 UNK         0.5000 
     66 O          -3.3465  -13.5418  -47.8750 O.2       1 UNK        -0.5000 
     67 C          -0.0469  -22.1843  -47.0541 C.2       11 UNK         0.5000 
     68 O          -0.3527  -22.9823  -47.9382 O.2       11 UNK        -0.5000 
     69 N          -0.8098  -21.1347  -46.7148 N.am      12 UNK        -0.5000 
     70 CA         -2.1111  -20.8223  -47.3080 C.3       12 UNK         0.1400 
     71 CB         -2.6108  -19.4662  -46.7861 C.3       12 UNK        -0.1800 
     72 C          -3.1582  -21.9226  -47.0551 C.2       12 UNK         0.5000 
     73 O          -3.8881  -22.2834  -47.9765 O.2       12 UNK        -0.5000 
     74 N          -3.1896  -22.4698  -45.8319 N.am      13 UNK        -0.5000 
     75 CA         -4.0479  -23.5937  -45.4522 C.3       13 UNK         0.1400 
     76 CB         -3.9751  -23.8139  -43.9339 C.3       13 UNK        -0.1800 
     77 C          -3.7088  -24.8901  -46.2118 C.2       13 UNK         0.5000 
     78 O          -4.6232  -25.6190  -46.5970 O.2       13 UNK        -0.5000 
     79 N          -2.4110  -25.1391  -46.4381 N.am      14 UNK        -0.5000 
     80 CA         -1.9119  -26.2476  -47.2525 C.3       14 UNK         0.1400 
     81 CB         -0.4033  -26.4216  -47.0192 C.3       14 UNK        -0.1800 
     82 C          -2.2231  -26.0655  -48.7509 C.2       14 UNK         0.5000 
     83 O          -2.5803  -27.0391  -49.4154 O.2       14 UNK        -0.5000 
     84 N          -2.0984  -24.8269  -49.2500 N.am      15 UNK        -0.5000 
     85 CA         -2.4384  -24.4327  -50.6184 C.3       15 UNK         0.1400 
     86 CB         -1.9213  -23.0092  -50.8846 C.3       15 UNK        -0.1800 
     87 C          -3.9490  -24.5389  -50.9058 C.2       15 UNK         0.5000 
     88 O          -4.3270  -24.9707  -51.9956 O.2       15 UNK        -0.5000 
     89 N          -4.7780  -24.1726  -49.9168 N.am      16 UNK        -0.5000 
     90 CA         -6.2397  -24.2629  -49.8906 C.3       16 UNK         0.1400 
     91 CB         -6.6871  -25.7394  -49.8206 C.3       16 UNK        -0.1800 
     92 C          -6.8790  -23.4718  -51.0476 C.2       16 UNK         0.5000 
     93 O          -6.9354  -22.2448  -50.9792 O.2       16 UNK        -0.5000 
     94 N          -7.3085  -24.1660  -52.1098 N.am      17 UNK        -0.5000 
     95 CA         -7.8233  -23.5671  -53.3442 C.3       17 UNK         0.1400 
     96 CB         -8.3802  -24.6796  -54.2450 C.3       17 UNK        -0.1800 
     97 C          -6.7719  -22.7310  -54.1045 C.2       17 UNK         0.5000 
     98 O          -7.1416  -21.8021  -54.8231 O.2       17 UNK        -0.5000 
     99 N          -5.4853  -23.0548  -53.9154 N.am      18 UNK        -0.5000 
    100 CA        -4.3470  -22.3468  -54.4978 C.3       18 UNK         0.1400 
    101 CB        -3.2180  -23.3565  -54.7688 C.3       18 UNK        -0.1800 
    102 C         -3.8570  -21.1670  -53.6324 C.2       18 UNK         0.5000 
    103 O         -2.8610  -20.5448  -53.9948 O.2       18 UNK        -0.5000 
    104 N         -4.5427  -20.8405  -52.5233 N.am      19 UNK        -0.5000 
    105 CA        -4.1681  -19.7543  -51.6040 C.3       19 UNK         0.1400 
    106 CB        -5.0475  -19.8063  -50.3481 C.3       19 UNK        -0.1800 
    107 C         -4.1900  -18.3364  -52.2166 C.2       19 UNK         0.5000 
    108 O         -3.6613  -17.4071  -51.6060 O.2       19 UNK        -0.5000 
    109 N         -4.7527  -18.1877  -53.4225 N.am      20 UNK        -0.5000 
    110 CA        -4.6894  -16.9901  -54.2604 C.3       20 UNK         0.1400 
    111 CB        -5.8964  -16.9959  -55.2154 C.3       20 UNK        -0.1800 
    112 C         -3.3362  -16.8636  -54.9991 C.2       20 UNK         0.5000 
    113 O         -3.3157  -16.6539  -56.2128 O.2       20 UNK        -0.5000 
    114 N         -2.2326  -16.9975  -54.2482 N.am      21 UNK        -0.5000 
    115 CA        -0.8322  -16.8999  -54.6806 C.3       21 UNK         0.1400 
    116 CB        -0.5050  -15.4612  -55.1325 C.3       21 UNK        -0.1800 
    117 C         -0.3946  -17.9672  -55.7129 C.2       21 UNK         0.5000 
    118 O          0.5711  -17.7427  -56.4453 O.2       21 UNK        -0.5000 
    119 N         -1.0737  -19.1219  -55.7205 N.am      22 UNK        -0.5000 
    120 CA        -0.8226  -20.2973  -56.5734 C.3       22 UNK         0.1400 
    121 C         -0.9228  -20.0064  -58.1054 C.2       22 UNK         0.5000 
    122 N         -0.3008  -20.8043  -58.9655 N.am      22 UNK        -0.7600 
    123 O         -1.6186  -19.0914  -58.5401 O.2       22 UNK        -0.5000 
    124 C124        0.4543  -21.0858  -56.1533 C.3       23 UNK        -0.0398 
    125 S125        0.4657  -21.5472  -54.3829 S.3       23 UNK        -0.2404 
    126 C126        1.7285  -20.3976  -53.7603 C.3       23 UNK        -0.0205 
    127 H127       -5.5387  -14.0857  -52.7077 H         1 UNK         0.0600 
    128 H128       -6.3177  -13.8320  -51.1453 H         1 UNK         0.0600 
    129 H129       -5.5375  -15.3737  -51.4902 H         1 UNK         0.0600 
    130 H130       -3.5011  -15.5886  -50.5819 H         1 UNK         0.3000 
    131 H131       -1.4440  -13.6752  -50.5061 H         1 UNK         0.0600 
    132 H132       -1.9754  -16.1064  -48.7170 H         1 UNK         0.0800 
    133 H133       -0.4928  -15.1880  -48.6395 H         1 UNK         0.0800 
    134 H134       -1.6265  -18.5676  -50.1702 H         1 UNK         0.0800 
    135 H135       -0.6112  -18.0552  -48.8455 H         1 UNK         0.0800 
    136 H136       -0.2435  -19.0366  -52.4693 H         1 UNK         0.1150 
    137 H137        3.4107  -21.1584  -51.7496 H         1 UNK         0.1150 
    138 H138        1.4256  -19.1500  -48.5247 H         1 UNK         0.1150 
    139 H139        4.5515  -20.8291  -49.6517 H         1 UNK         0.0800 
    140 H140        3.8642  -19.8669  -48.3758 H         1 UNK         0.0800 
    141 H141        2.1135  -20.5129  -46.8253 H         1 UNK         0.0800 
    142 H142        3.1946  -21.5352  -45.9302 H         1 UNK         0.0800 
    143 H143        1.5151  -23.4711  -46.3735 H         1 UNK         0.0600 
    144 H144        1.4757  -21.5178  -44.3220 H         1 UNK         0.3000 
    145 H145       -0.9290  -23.1757  -42.2429 H         1 UNK         0.0600 
    146 H146        0.9671  -22.9478  -40.6659 H         1 UNK         0.0600 
    147 H147        2.0860  -22.6775  -41.9993 H         1 UNK         0.0600 
    148 H148        1.2908  -24.2364  -41.8163 H         1 UNK         0.0600 
    149 H149        0.4952  -20.7464  -41.8705 H         1 UNK         0.3000 
    150 H150       -1.8681  -18.6047  -43.5344 H         1 UNK         0.0600 
    151 H151       -2.6817  -18.9147  -41.2147 H         1 UNK         0.0600 
    152 H152       -1.6801  -17.4744  -41.3294 H         1 UNK         0.0600 
    153 H153       -1.0309  -18.9467  -40.6100 H         1 UNK         0.0600 
    154 H154        0.5965  -17.9717  -42.2842 H         1 UNK         0.3000 
    155 H155        2.7334  -18.4816  -45.1217 H         1 UNK         0.0600 
    156 H156        1.7719  -16.2226  -45.4024 H         1 UNK         0.0600 
    157 H157        3.2923  -16.1284  -44.5299 H         1 UNK         0.0600 
    158 H158        1.7667  -15.9671  -43.6607 H         1 UNK         0.0600 
    159 H159        3.1494  -17.6433  -42.3925 H         1 UNK         0.3000 
    160 H160        3.9045  -20.8820  -41.1030 H         1 UNK         0.0600 
    161 H161        5.6899  -18.4630  -41.7155 H         1 UNK         0.0600 
    162 H162        5.9984  -20.1165  -42.2324 H         1 UNK         0.0600 
    163 H163        6.0161  -19.7196  -40.5217 H         1 UNK         0.0600 
    164 H164        3.9487  -18.2528  -39.9608 H         1 UNK         0.3000 
    165 H165        0.5536  -18.1655  -38.8913 H         1 UNK         0.0600 
    166 H166        1.6238  -17.8992  -36.6771 H         1 UNK         0.0600 
    167 H167        1.7128  -19.5776  -37.1853 H         1 UNK         0.0600 
    168 H168        3.1407  -18.5553  -37.2939 H         1 UNK         0.0600 
    169 H169        2.6674  -16.3632  -38.3979 H         1 UNK         0.3000 
    170 H170        2.5492  -14.2885  -39.3168 H         1 UNK         0.0600 
    171 H171        4.4411  -15.3685  -40.5448 H         1 UNK         0.0600 
    172 H172        3.6195  -15.1071  -42.0783 H         1 UNK         0.0600 
    173 H173        4.1730  -13.7332  -41.1242 H         1 UNK         0.0600 
    174 H174        1.6207  -13.7011  -42.0338 H         1 UNK         0.3000 
    175 H175       -1.5110  -12.3987  -41.0536 H         1 UNK         0.0600 
    176 H176        0.9858  -10.8368  -41.9062 H         1 UNK         0.0600 
    177 H177       -0.6851  -10.3136  -42.1144 H         1 UNK         0.0600 
    178 H178       -0.0118  -10.4821  -40.5004 H         1 UNK         0.0600 
    179 H179        0.0027  -12.4165  -43.5242 H         1 UNK         0.3000 
    180 H180        0.0534  -14.6013  -44.8232 H         1 UNK         0.0600 
    181 H181       -1.4972  -16.0994  -46.0023 H         1 UNK         0.0600 
    182 H182       -2.8163  -15.6624  -44.9135 H         1 UNK         0.0600 
    183 H183       -1.4241  -16.5461  -44.3094 H         1 UNK         0.0600 
    184 H184       -2.3349  -13.6340  -46.0966 H         1 UNK         0.3000 
    185 H185       -2.4631  -11.2578  -46.8505 H         1 UNK         0.0600 
    186 H186        0.3507  -10.4174  -47.7340 H         1 UNK         0.0600 
    187 H187       -1.1617   -9.6681  -48.2444 H         1 UNK         0.0600 
    188 H188       -0.6566   -9.5701  -46.5654 H         1 UNK         0.0600 
    189 H189       -0.6824  -12.2499  -48.9613 H         1 UNK         0.3000 
    190 H190       -0.4686  -20.4869  -46.0074 H         1 UNK         0.3000 
    191 H191       -1.9678  -20.7376  -48.3870 H         1 UNK         0.0600 
    192 H192       -1.8875  -18.6739  -46.9740 H         1 UNK         0.0600 
    193 H193       -2.7985  -19.4923  -45.7128 H         1 UNK         0.0600 
    194 H194       -3.5427  -19.1803  -47.2752 H         1 UNK         0.0600 
    195 H195       -2.6035  -22.0758  -45.1007 H         1 UNK         0.3000 
    196 H196       -5.0757  -23.3244  -45.7044 H         1 UNK         0.0600 
    197 H197       -4.2947  -22.9241  -43.3912 H         1 UNK         0.0600 
    198 H198       -2.9635  -24.0576  -43.6096 H         1 UNK         0.0600 
    199 H199       -4.6253  -24.6337  -43.6264 H         1 UNK         0.0600 
    200 H200       -1.7168  -24.5209  -46.0317 H         1 UNK         0.3000 
    201 H201       -2.4097  -27.1607  -46.9192 H         1 UNK         0.0600 
    202 H202       -0.1868  -26.6095  -45.9675 H         1 UNK         0.0600 
    203 H203        0.1586  -25.5383  -47.3223 H         1 UNK         0.0600 
    204 H204       -0.0161  -27.2676  -47.5882 H         1 UNK         0.0600 
    205 H205       -1.7121  -24.1005  -48.6526 H         1 UNK         0.3000 
    206 H206       -1.9213  -25.1127  -51.2983 H         1 UNK         0.0600 
    207 H207       -2.4377  -22.2695  -50.2734 H         1 UNK         0.0600 
    208 H208       -0.8543  -22.9284  -50.6758 H         1 UNK         0.0600 
    209 H209       -2.0613  -22.7270  -51.9267 H         1 UNK         0.0600 
    210 H210       -4.3643  -23.7220  -49.1039 H         1 UNK         0.3000 
    211 H211       -6.5612  -23.7761  -48.9686 H         1 UNK         0.0600 
    212 H212       -6.3359  -26.3236  -50.6716 H         1 UNK         0.0600 
    213 H213       -7.7743  -25.8194  -49.7861 H         1 UNK         0.0600 
    214 H214       -6.3013  -26.2151  -48.9186 H         1 UNK         0.0600 
    215 H215       -7.1913  -25.1690  -52.1058 H         1 UNK         0.3000 
    216 H216       -8.6440  -22.8982  -53.0770 H         1 UNK         0.0600 
    217 H217       -8.7975  -24.2661  -55.1642 H         1 UNK         0.0600 
    218 H218       -9.1784  -25.2295  -53.7461 H         1 UNK         0.0600 
    219 H219       -7.6052  -25.3932  -54.5281 H         1 UNK         0.0600 
    220 H220       -5.2588  -23.8215  -53.2872 H         1 UNK         0.3000 
    221 H221       -4.6425  -21.9245  -55.4603 H         1 UNK         0.0600 
    222 H222       -2.8500  -23.8143  -53.8521 H         1 UNK         0.0600 
    223 H223       -3.5574  -24.1567  -55.4265 H         1 UNK         0.0600 
    224 H224       -2.3664  -22.8813  -55.2547 H         1 UNK         0.0600 
    225 H225       -5.3639  -21.3776  -52.2720 H         1 UNK         0.3000 
    226 H226       -3.1387  -19.9450  -51.2964 H         1 UNK         0.0600 
    227 H227       -4.9681  -20.7733  -49.8532 H         1 UNK         0.0600 
    228 H228       -4.7460  -19.0485  -49.6238 H         1 UNK         0.0600 
    229 H229       -6.0976  -19.6350  -50.5868 H         1 UNK         0.0600 
    230 H230       -5.1438  -19.0113  -53.8550 H         1 UNK         0.3000 
    231 H231       -4.7761  -16.1104  -53.6253 H         1 UNK         0.0600 
    232 H232       -5.9224  -16.0894  -55.8214 H         1 UNK         0.0600 
    233 H233       -6.8352  -17.0405  -54.6629 H         1 UNK         0.0600 
    234 H234       -5.8665  -17.8479  -55.8960 H         1 UNK         0.0600 
    235 H235       -2.3729  -17.1600  -53.2571 H         1 UNK         0.3000 
    236 H236       -0.2347  -17.0938  -53.7894 H         1 UNK         0.0600 
    237 H237       -1.0134  -15.2037  -56.0622 H         1 UNK         0.0600 
    238 H238       -0.7989  -14.7344  -54.3749 H         1 UNK         0.0600 
    239 H239        0.5653  -15.3358  -55.2999 H         1 UNK         0.0600 
    240 H240       -1.8265  -19.2515  -55.0525 H         1 UNK         0.3000 
    241 H241       -1.6722  -20.9522  -56.3863 H         1 UNK         0.0600 
    242 H242       -0.3938  -20.6180  -59.9524 H         1 UNK         0.3800 
    243 H243        0.2585  -21.5864  -58.6646 H         1 UNK         0.3800 
    244 H244        1.3521  -20.5172  -56.4003 H         1 UNK         0.0800 
    245 H245        0.5252  -22.0195  -56.7119 H         1 UNK         0.0800 
    246 H246        1.6546  -19.4433  -54.2814 H         1 UNK         0.0800 
    247 H247        2.7156  -20.7966  -53.9984 H         1 UNK         0.0800 
@<TRIPOS>BOND
     1    1    2 1    
     2    1  127 1    
     3    1  128 1    
     4    1  129 1    
     5    2    3 2    
     6    2    4 am   BACKBONE|DICT|INTERRES
     7    4    5 1    
     8    4  130 1    
     9    5    6 1    
    10    5   65 1    
    11    5  131 1    
    12    6    7 1    
    13    6  132 1    
    14    6  133 1    
    15    7    8 1    
    16    8    9 1    
    17    8  134 1    
    18    8  135 1    
    19    9   10 ar   
    20    9   14 ar   
    21   10   11 ar   
    22   10  136 1    
    23   11   12 ar   
    24   11  126 1    
    25   12   13 ar   
    26   12  137 1    
    27   13   14 ar   
    28   13   15 1    
    29   14  138 1    
    30   15   16 1    
    31   15  139 1    
    32   15  140 1    
    33   16   17 1    
    34   17   18 1    
    35   17  141 1    
    36   17  142 1    
    37   18   19 1    
    38   18   67 1    
    39   18  143 1    
    40   19   20 am   BACKBONE|DICT|INTERRES
    41   19  144 1    
    42   20   21 2    
    43   20   22 1    
    44   22   23 1    
    45   22   24 1    
    46   22  145 1    
    47   23  146 1    
    48   23  147 1    
    49   23  148 1    
    50   24   25 am   BACKBONE|DICT|INTERRES
    51   24  149 1    
    52   25   26 2    
    53   25   27 1    
    54   27   28 1    
    55   27   29 1    
    56   27  150 1    
    57   28  151 1    
    58   28  152 1    
    59   28  153 1    
    60   29   30 am   BACKBONE|DICT|INTERRES
    61   29  154 1    
    62   30   31 2    
    63   30   32 1    
    64   32   33 1    
    65   32   34 1    
    66   32  155 1    
    67   33  156 1    
    68   33  157 1    
    69   33  158 1    
    70   34   35 am   BACKBONE|DICT|INTERRES
    71   34  159 1    
    72   35   36 2    
    73   35   37 1    
    74   37   38 1    
    75   37   39 1    
    76   37  160 1    
    77   38  161 1    
    78   38  162 1    
    79   38  163 1    
    80   39   40 am   BACKBONE|DICT|INTERRES
    81   39  164 1    
    82   40   41 2    
    83   40   42 1    
    84   42   43 1    
    85   42   44 1    
    86   42  165 1    
    87   43  166 1    
    88   43  167 1    
    89   43  168 1    
    90   44   45 am   BACKBONE|DICT|INTERRES
    91   44  169 1    
    92   45   46 2    
    93   45   47 1    
    94   47   48 1    
    95   47   49 1    
    96   47  170 1    
    97   48  171 1    
    98   48  172 1    
    99   48  173 1    
   100   49   50 am   BACKBONE|DICT|INTERRES
   101   49  174 1    
   102   50   51 2    
   103   50   52 1    
   104   52   53 1    
   105   52   54 1    
   106   52  175 1    
   107   53  176 1    
   108   53  177 1    
   109   53  178 1    
   110   54   55 am   BACKBONE|DICT|INTERRES
   111   54  179 1    
   112   55   56 2    
   113   55   57 1    
   114   57   58 1    
   115   57   59 1    
   116   57  180 1    
   117   58  181 1    
   118   58  182 1    
   119   58  183 1    
   120   59   60 am   BACKBONE|DICT|INTERRES
   121   59  184 1    
   122   60   61 2    
   123   60   62 1    
   124   62   63 1    
   125   62   64 1    
   126   62  185 1    
   127   63  186 1    
   128   63  187 1    
   129   63  188 1    
   130   64   65 am   BACKBONE|DICT|INTERRES
   131   64  189 1    
   132   65   66 2    
   133   67   68 2    
   134   67   69 am   BACKBONE|DICT|INTERRES
   135   69   70 1    
   136   69  190 1    
   137   70   71 1    
   138   70   72 1    
   139   70  191 1    
   140   71  192 1    
   141   71  193 1    
   142   71  194 1    
   143   72   73 2    
   144   72   74 am   BACKBONE|DICT|INTERRES
   145   74   75 1    
   146   74  195 1    
   147   75   76 1    
   148   75   77 1    
   149   75  196 1    
   150   76  197 1    
   151   76  198 1    
   152   76  199 1    
   153   77   78 2    
   154   77   79 am   BACKBONE|DICT|INTERRES
   155   79   80 1    
   156   79  200 1    
   157   80   81 1    
   158   80   82 1    
   159   80  201 1    
   160   81  202 1    
   161   81  203 1    
   162   81  204 1    
   163   82   83 2    
   164   82   84 am   BACKBONE|DICT|INTERRES
   165   84   85 1    
   166   84  205 1    
   167   85   86 1    
   168   85   87 1    
   169   85  206 1    
   170   86  207 1    
   171   86  208 1    
   172   86  209 1    
   173   87   88 2    
   174   87   89 am   BACKBONE|DICT|INTERRES
   175   89   90 1    
   176   89  210 1    
   177   90   91 1    
   178   90   92 1    
   179   90  211 1    
   180   91  212 1    
   181   91  213 1    
   182   91  214 1    
   183   92   93 2    
   184   92   94 am   BACKBONE|DICT|INTERRES
   185   94   95 1    
   186   94  215 1    
   187   95   96 1    
   188   95   97 1    
   189   95  216 1    
   190   96  217 1    
   191   96  218 1    
   192   96  219 1    
   193   97   98 2    
   194   97   99 am   BACKBONE|DICT|INTERRES
   195   99  100 1    
   196   99  220 1    
   197  100  101 1    
   198  100  102 1    
   199  100  221 1    
   200  101  222 1    
   201  101  223 1    
   202  101  224 1    
   203  102  103 2    
   204  102  104 am   BACKBONE|DICT|INTERRES
   205  104  105 1    
   206  104  225 1    
   207  105  106 1    
   208  105  107 1    
   209  105  226 1    
   210  106  227 1    
   211  106  228 1    
   212  106  229 1    
   213  107  108 2    
   214  107  109 am   BACKBONE|DICT|INTERRES
   215  109  110 1    
   216  109  230 1    
   217  110  111 1    
   218  110  112 1    
   219  110  231 1    
   220  111  232 1    
   221  111  233 1    
   222  111  234 1    
   223  112  113 2    
   224  112  114 am   BACKBONE|DICT|INTERRES
   225  114  115 1    
   226  114  235 1    
   227  115  116 1    
   228  115  117 1    
   229  115  236 1    
   230  116  237 1    
   231  116  238 1    
   232  116  239 1    
   233  117  118 2    
   234  117  119 am   BACKBONE|DICT|INTERRES
   235  119  120 1    
   236  119  240 1    
   237  120  121 1    
   238  120  124 1    
   239  120  241 1    
   240  121  122 am   BACKBONE|DICT|INTERRES
   241  121  123 2    
   242  122  242 1    
   243  122  243 1    
   244  124  125 1    
   245  124  244 1    
   246  124  245 1    
   247  125  126 1    
   248  126  246 1    
   249  126  247 1    
@<TRIPOS>SUBSTRUCTURE
     1 UNK         1 GROUP             0       ****    0 ROOT    
