@<TRIPOS>MOLECULE
3R540
247   249    1
SMALL
USER_CHARGES


@<TRIPOS>ATOM
      1 CA         -2.1948  -12.4211  -50.3952 C.3       0 UNK        -0.1800 
      2 C          -2.1296  -13.9022  -50.7646 C.2       0 UNK         0.5000 
      3 O          -2.9872  -14.3722  -51.5057 O.2       0 UNK        -0.5000 
      4 N          -1.1457  -14.6715  -50.2772 N.am      1 UNK        -0.5000 
      5 CA         -0.0678  -14.2603  -49.3666 C.3       1 UNK         0.1400 
      6 C6          1.2508  -15.0260  -49.6300 C.3       23 UNK        -0.0398 
      7 S7          1.1312  -16.8424  -49.5124 S.3       23 UNK        -0.2404 
      8 C8          2.9030  -17.2440  -49.6091 C.3       23 UNK        -0.0205 
      9 C9          3.1429  -18.7256  -49.8438 C.ar      23 UNK        -0.0193 
     10 C10         2.8699  -19.2788  -51.0961 C.ar      23 UNK        -0.1150 
     11 C11         3.1139  -20.6304  -51.3487 C.ar      23 UNK        -0.0193 
     12 C12         3.6704  -21.4253  -50.3417 C.ar      23 UNK        -0.1150 
     13 C13         3.9793  -20.8763  -49.0921 C.ar      23 UNK        -0.0193 
     14 C14         3.6926  -19.5300  -48.8418 C.ar      23 UNK        -0.1150 
     15 C15         4.6932  -21.7153  -48.0403 C.3       23 UNK        -0.0205 
     16 S16         3.6526  -23.0373  -47.3527 S.3       23 UNK        -0.2404 
     17 C17         2.4571  -22.0790  -46.3641 C.3       23 UNK        -0.0398 
     18 CA          1.0769  -22.7686  -46.2865 C.3       11 UNK         0.1400 
     19 N           0.2445  -22.2164  -45.2174 N.am      11 UNK        -0.5000 
     20 C          -0.9163  -22.7469  -44.8080 C.2       10 UNK         0.5000 
     21 O          -1.3888  -23.7899  -45.2589 O.2       10 UNK        -0.5000 
     22 CA         -1.6994  -21.9659  -43.7394 C.3       10 UNK         0.1400 
     23 CB         -1.1468  -22.2610  -42.3371 C.3       10 UNK        -0.1800 
     24 N          -1.6954  -20.5225  -43.9725 N.am      10 UNK        -0.5000 
     25 C          -2.2317  -19.9153  -45.0409 C.2       9 UNK         0.5000 
     26 O          -2.8078  -20.5063  -45.9532 O.2       9 UNK        -0.5000 
     27 CA         -2.0537  -18.3891  -45.1190 C.3       9 UNK         0.1400 
     28 CB         -2.9665  -17.6927  -44.0928 C.3       9 UNK        -0.1800 
     29 N          -0.6623  -17.9812  -44.9097 N.am      9 UNK        -0.5000 
     30 C           0.3779  -18.3850  -45.6573 C.2       8 UNK         0.5000 
     31 O           0.2797  -19.1186  -46.6400 O.2       8 UNK        -0.5000 
     32 CA          1.7755  -17.9640  -45.1725 C.3       8 UNK         0.1400 
     33 CB          2.1154  -16.5302  -45.6088 C.3       8 UNK        -0.1800 
     34 N           1.8999  -18.0867  -43.7195 N.am      8 UNK        -0.5000 
     35 C           1.8981  -19.2538  -43.0578 C.2       7 UNK         0.5000 
     36 O           1.8426  -20.3518  -43.6096 O.2       7 UNK        -0.5000 
     37 CA          1.9100  -19.1791  -41.5200 C.3       7 UNK         0.1400 
     38 CB          3.3394  -18.9720  -40.9977 C.3       7 UNK        -0.1800 
     39 N           1.0472  -18.1135  -41.0099 N.am      7 UNK        -0.5000 
     40 C          -0.2875  -18.0887  -41.1393 C.2       6 UNK         0.5000 
     41 O          -0.9393  -19.0092  -41.6294 O.2       6 UNK        -0.5000 
     42 CA         -1.0063  -16.7990  -40.6955 C.3       6 UNK         0.1400 
     43 CB         -1.4646  -16.9124  -39.2343 C.3       6 UNK        -0.1800 
     44 N          -0.1722  -15.6039  -40.8530 N.am      6 UNK        -0.5000 
     45 C           0.2543  -15.1307  -42.0310 C.2       5 UNK         0.5000 
     46 O          -0.0624  -15.6157  -43.1205 O.2       5 UNK        -0.5000 
     47 CA          1.2864  -13.9993  -41.9661 C.3       5 UNK         0.1400 
     48 CB          2.6898  -14.5982  -41.7315 C.3       5 UNK        -0.1800 
     49 N           1.2590  -13.2371  -43.2103 N.am      5 UNK        -0.5000 
     50 C           1.8943  -12.0769  -43.4205 C.2       4 UNK         0.5000 
     51 O           2.5602  -11.4935  -42.5640 O.2       4 UNK        -0.5000 
     52 CA          1.7602  -11.4541  -44.8198 C.3       4 UNK         0.1400 
     53 CB          2.7320  -12.1240  -45.8047 C.3       4 UNK        -0.1800 
     54 N           0.3935  -11.5375  -45.3345 N.am      4 UNK        -0.5000 
     55 C          -0.6114  -10.7486  -44.9215 C.2       3 UNK         0.5000 
     56 O          -0.4750   -9.8651  -44.0741 O.2       3 UNK        -0.5000 
     57 CA         -2.0003  -10.9550  -45.5618 C.3       3 UNK         0.1400 
     58 CB         -2.2471   -9.9048  -46.6561 C.3       3 UNK        -0.1800 
     59 N          -2.1867  -12.2836  -46.1408 N.am      3 UNK        -0.5000 
     60 C          -2.2817  -13.4208  -45.4405 C.2       2 UNK         0.5000 
     61 O          -2.3131  -13.4621  -44.2111 O.2       2 UNK        -0.5000 
     62 CA         -2.3328  -14.7327  -46.2496 C.3       2 UNK         0.1400 
     63 CB         -3.7874  -15.2044  -46.3832 C.3       2 UNK        -0.1800 
     64 N          -1.7395  -14.6692  -47.5901 N.am      2 UNK        -0.5000 
     65 C          -0.4835  -14.2974  -47.8794 C.2       1 UNK         0.5000 
     66 O           0.3219  -13.9348  -47.0234 O.2       1 UNK        -0.5000 
     67 C           0.3407  -22.7600  -47.6407 C.2       11 UNK         0.5000 
     68 O           0.2725  -23.8023  -48.2912 O.2       11 UNK        -0.5000 
     69 N          -0.2514  -21.6156  -48.0100 N.am      12 UNK        -0.5000 
     70 CA         -1.0614  -21.4681  -49.2185 C.3       12 UNK         0.1400 
     71 CB         -1.4341  -19.9925  -49.4135 C.3       12 UNK        -0.1800 
     72 C          -2.3089  -22.3708  -49.2151 C.2       12 UNK         0.5000 
     73 O          -2.5908  -23.0152  -50.2255 O.2       12 UNK        -0.5000 
     74 N          -2.9942  -22.4575  -48.0653 N.am      13 UNK        -0.5000 
     75 CA         -4.1403  -23.3411  -47.8484 C.3       13 UNK         0.1400 
     76 CB         -4.7752  -23.0492  -46.4822 C.3       13 UNK        -0.1800 
     77 C          -3.8034  -24.8354  -47.9905 C.2       13 UNK         0.5000 
     78 O          -4.6318  -25.5894  -48.4982 O.2       13 UNK        -0.5000 
     79 N          -2.6000  -25.2377  -47.5663 N.am      14 UNK        -0.5000 
     80 CA         -2.0893  -26.5949  -47.7374 C.3       14 UNK         0.1400 
     81 CB         -0.9349  -26.8360  -46.7517 C.3       14 UNK        -0.1800 
     82 C          -1.6436  -26.8691  -49.1855 C.2       14 UNK         0.5000 
     83 O          -2.0075  -27.9025  -49.7479 O.2       14 UNK        -0.5000 
     84 N          -0.8489  -25.9532  -49.7531 N.am      15 UNK        -0.5000 
     85 CA         -0.1824  -26.1239  -51.0430 C.3       15 UNK         0.1400 
     86 CB          1.0130  -25.1626  -51.1200 C.3       15 UNK        -0.1800 
     87 C          -1.1035  -25.9343  -52.2604 C.2       15 UNK         0.5000 
     88 O          -0.9628  -26.6764  -53.2337 O.2       15 UNK        -0.5000 
     89 N          -2.0049  -24.9459  -52.2030 N.am      16 UNK        -0.5000 
     90 CA         -2.8388  -24.5144  -53.3291 C.3       16 UNK         0.1400 
     91 CB         -2.4380  -23.0828  -53.7156 C.3       16 UNK        -0.1800 
     92 C          -4.3458  -24.6182  -53.0343 C.2       16 UNK         0.5000 
     93 O          -5.1475  -24.1281  -53.8299 O.2       16 UNK        -0.5000 
     94 N          -4.7092  -25.2583  -51.9137 N.am      17 UNK        -0.5000 
     95 CA         -6.0723  -25.5646  -51.4565 C.3       17 UNK         0.1400 
     96 CB         -6.8250  -26.4292  -52.4906 C.3       17 UNK        -0.1800 
     97 C          -6.9082  -24.3445  -51.0080 C.2       17 UNK         0.5000 
     98 O          -8.0780  -24.5211  -50.6626 O.2       17 UNK        -0.5000 
     99 N          -6.3194  -23.1426  -50.9858 N.am      18 UNK        -0.5000 
    100 CA        -6.9544  -21.9073  -50.5399 C.3       18 UNK         0.1400 
    101 CB        -7.8265  -21.3167  -51.6615 C.3       18 UNK        -0.1800 
    102 C         -5.8654  -20.9169  -50.1199 C.2       18 UNK         0.5000 
    103 O         -4.8557  -20.7943  -50.8131 O.2       18 UNK        -0.5000 
    104 N         -6.0953  -20.2060  -49.0095 N.am      19 UNK        -0.5000 
    105 CA        -5.1574  -19.2348  -48.4351 C.3       19 UNK         0.1400 
    106 CB        -5.6724  -18.8135  -47.0512 C.3       19 UNK        -0.1800 
    107 C         -4.9153  -17.9983  -49.3273 C.2       19 UNK         0.5000 
    108 O         -3.8675  -17.3631  -49.2178 O.2       19 UNK        -0.5000 
    109 N         -5.8898  -17.6915  -50.1937 N.am      20 UNK        -0.5000 
    110 CA        -5.8371  -16.6185  -51.1870 C.3       20 UNK         0.1400 
    111 CB        -7.2680  -16.1002  -51.4101 C.3       20 UNK        -0.1800 
    112 C         -5.2006  -17.0581  -52.5241 C.2       20 UNK         0.5000 
    113 O         -5.0764  -16.2284  -53.4267 O.2       20 UNK        -0.5000 
    114 N         -4.8401  -18.3426  -52.6536 N.am      21 UNK        -0.5000 
    115 CA        -4.1249  -18.8979  -53.8010 C.3       21 UNK         0.1400 
    116 CB        -4.7465  -20.2602  -54.1630 C.3       21 UNK        -0.1800 
    117 C         -2.6139  -18.9803  -53.4975 C.2       21 UNK         0.5000 
    118 O         -2.1303  -18.3214  -52.5746 O.2       21 UNK        -0.5000 
    119 N         -1.8843  -19.7720  -54.2955 N.am      22 UNK        -0.5000 
    120 CA        -0.4212  -19.9550  -54.2201 C.3       22 UNK         0.1400 
    121 C          0.3981  -18.7327  -54.7459 C.2       22 UNK         0.5000 
    122 N         -0.1994  -17.8063  -55.4864 N.am      22 UNK        -0.7600 
    123 O          1.5970  -18.6248  -54.5129 O.2       22 UNK        -0.5000 
    124 C124        0.0528  -20.4737  -52.8249 C.3       23 UNK        -0.0398 
    125 S125        1.1731  -21.9163  -52.9043 S.3       23 UNK        -0.2404 
    126 C126        2.8430  -21.2078  -52.7308 C.3       23 UNK        -0.0205 
    127 H127       -1.3566  -11.8793  -50.8333 H         1 UNK         0.0600 
    128 H128       -2.1829  -12.2770  -49.3160 H         1 UNK         0.0600 
    129 H129       -3.1136  -11.9740  -50.7755 H         1 UNK         0.0600 
    130 H130       -1.1317  -15.6511  -50.5293 H         1 UNK         0.3000 
    131 H131        0.1652  -13.2134  -49.5661 H         1 UNK         0.0600 
    132 H132        2.0340  -14.6780  -48.9533 H         1 UNK         0.0800 
    133 H133        1.6052  -14.7846  -50.6331 H         1 UNK         0.0800 
    134 H134        3.3989  -16.9123  -48.6958 H         1 UNK         0.0800 
    135 H135        3.3579  -16.6828  -50.4267 H         1 UNK         0.0800 
    136 H136        2.4740  -18.6478  -51.8796 H         1 UNK         0.1150 
    137 H137        3.8907  -22.4653  -50.5382 H         1 UNK         0.1150 
    138 H138        3.9322  -19.0982  -47.8804 H         1 UNK         0.1150 
    139 H139        5.5754  -22.1688  -48.4943 H         1 UNK         0.0800 
    140 H140        5.0614  -21.0898  -47.2254 H         1 UNK         0.0800 
    141 H141        2.3608  -21.0635  -46.7504 H         1 UNK         0.0800 
    142 H142        2.8825  -21.9847  -45.3648 H         1 UNK         0.0800 
    143 H143        1.2488  -23.8151  -46.0240 H         1 UNK         0.0600 
    144 H144        0.5902  -21.3786  -44.7603 H         1 UNK         0.3000 
    145 H145       -2.7368  -22.3040  -43.7740 H         1 UNK         0.0600 
    146 H146       -1.7498  -21.7792  -41.5672 H         1 UNK         0.0600 
    147 H147       -0.1208  -21.9084  -42.2265 H         1 UNK         0.0600 
    148 H148       -1.1517  -23.3322  -42.1319 H         1 UNK         0.0600 
    149 H149       -1.2758  -19.9494  -43.2449 H         1 UNK         0.3000 
    150 H150       -2.3395  -18.0630  -46.1211 H         1 UNK         0.0600 
    151 H151       -4.0128  -17.7798  -44.3852 H         1 UNK         0.0600 
    152 H152       -2.7411  -16.6322  -43.9924 H         1 UNK         0.0600 
    153 H153       -2.8799  -18.1325  -43.1004 H         1 UNK         0.0600 
    154 H154       -0.4799  -17.3507  -44.1364 H         1 UNK         0.3000 
    155 H155        2.5033  -18.6359  -45.6325 H         1 UNK         0.0600 
    156 H156        2.0716  -16.4345  -46.6928 H         1 UNK         0.0600 
    157 H157        3.1215  -16.2487  -45.2985 H         1 UNK         0.0600 
    158 H158        1.4211  -15.7987  -45.1983 H         1 UNK         0.0600 
    159 H159        1.8900  -17.2278  -43.1913 H         1 UNK         0.3000 
    160 H160        1.5385  -20.1315  -41.1359 H         1 UNK         0.0600 
    161 H161        3.7573  -18.0199  -41.3274 H         1 UNK         0.0600 
    162 H162        4.0022  -19.7622  -41.3530 H         1 UNK         0.0600 
    163 H163        3.3674  -18.9917  -39.9081 H         1 UNK         0.0600 
    164 H164        1.5025  -17.3255  -40.5753 H         1 UNK         0.3000 
    165 H165       -1.8909  -16.6786  -41.3239 H         1 UNK         0.0600 
    166 H166       -2.0371  -16.0355  -38.9314 H         1 UNK         0.0600 
    167 H167       -2.1073  -17.7827  -39.0940 H         1 UNK         0.0600 
    168 H168       -0.6194  -17.0150  -38.5526 H         1 UNK         0.0600 
    169 H169        0.1360  -15.1559  -40.0017 H         1 UNK         0.3000 
    170 H170        1.0236  -13.3344  -41.1409 H         1 UNK         0.0600 
    171 H171        3.0058  -15.2190  -42.5708 H         1 UNK         0.0600 
    172 H172        3.4418  -13.8218  -41.5931 H         1 UNK         0.0600 
    173 H173        2.7125  -15.2190  -40.8353 H         1 UNK         0.0600 
    174 H174        0.6964  -13.6479  -43.9454 H         1 UNK         0.3000 
    175 H175        2.0364  -10.3998  -44.7473 H         1 UNK         0.0600 
    176 H176        2.5657  -13.1996  -45.8724 H         1 UNK         0.0600 
    177 H177        2.6334  -11.7050  -46.8062 H         1 UNK         0.0600 
    178 H178        3.7654  -11.9757  -45.4893 H         1 UNK         0.0600 
    179 H179        0.2112  -12.2753  -46.0080 H         1 UNK         0.3000 
    180 H180       -2.7477  -10.8164  -44.7778 H         1 UNK         0.0600 
    181 H181       -3.2522   -9.9929  -47.0692 H         1 UNK         0.0600 
    182 H182       -1.5356  -10.0038  -47.4770 H         1 UNK         0.0600 
    183 H183       -2.1493   -8.8941  -46.2573 H         1 UNK         0.0600 
    184 H184       -2.1824  -12.3438  -47.1467 H         1 UNK         0.3000 
    185 H185       -1.7623  -15.4723  -45.6881 H         1 UNK         0.0600 
    186 H186       -4.3767  -14.5221  -46.9969 H         1 UNK         0.0600 
    187 H187       -3.8334  -16.1891  -46.8419 H         1 UNK         0.0600 
    188 H188       -4.2750  -15.2744  -45.4101 H         1 UNK         0.0600 
    189 H189       -2.3234  -14.9843  -48.3529 H         1 UNK         0.3000 
    190 H190       -0.1449  -20.7859  -47.4303 H         1 UNK         0.3000 
    191 H191       -0.4440  -21.7751  -50.0648 H         1 UNK         0.0600 
    192 H192       -1.8864  -19.5676  -48.5176 H         1 UNK         0.0600 
    193 H193       -2.1414  -19.8660  -50.2344 H         1 UNK         0.0600 
    194 H194       -0.5521  -19.3977  -49.6499 H         1 UNK         0.0600 
    195 H195       -2.7224  -21.8662  -47.2838 H         1 UNK         0.3000 
    196 H196       -4.8801  -23.1119  -48.6131 H         1 UNK         0.0600 
    197 H197       -5.1085  -22.0141  -46.4167 H         1 UNK         0.0600 
    198 H198       -4.0742  -23.2283  -45.6673 H         1 UNK         0.0600 
    199 H199       -5.6467  -23.6824  -46.3122 H         1 UNK         0.0600 
    200 H200       -1.9914  -24.5705  -47.1046 H         1 UNK         0.3000 
    201 H201       -2.8865  -27.3004  -47.4933 H         1 UNK         0.0600 
    202 H202       -1.2682  -26.7162  -45.7207 H         1 UNK         0.0600 
    203 H203       -0.1092  -26.1429  -46.9156 H         1 UNK         0.0600 
    204 H204       -0.5404  -27.8478  -46.8516 H         1 UNK         0.0600 
    205 H205       -0.5756  -25.1347  -49.2115 H         1 UNK         0.3000 
    206 H206        0.2113  -27.1416  -51.0888 H         1 UNK         0.0600 
    207 H207        1.5281  -25.2450  -52.0779 H         1 UNK         0.0600 
    208 H208        0.6962  -24.1260  -51.0034 H         1 UNK         0.0600 
    209 H209        1.7416  -25.3752  -50.3374 H         1 UNK         0.0600 
    210 H210       -2.0687  -24.3678  -51.3664 H         1 UNK         0.3000 
    211 H211       -2.6650  -25.1495  -54.1995 H         1 UNK         0.0600 
    212 H212       -2.6131  -22.3834  -52.8977 H         1 UNK         0.0600 
    213 H213       -3.0026  -22.7344  -54.5803 H         1 UNK         0.0600 
    214 H214       -1.3833  -23.0331  -53.9828 H         1 UNK         0.0600 
    215 H215       -3.9679  -25.5963  -51.3157 H         1 UNK         0.3000 
    216 H216       -5.9538  -26.1850  -50.5693 H         1 UNK         0.0600 
    217 H217       -7.7585  -26.8102  -52.0751 H         1 UNK         0.0600 
    218 H218       -6.2312  -27.2924  -52.7915 H         1 UNK         0.0600 
    219 H219       -7.0789  -25.8649  -53.3880 H         1 UNK         0.0600 
    220 H220       -5.3496  -23.0534  -51.2631 H         1 UNK         0.3000 
    221 H221       -7.5815  -22.1221  -49.6718 H         1 UNK         0.0600 
    222 H222       -7.2435  -21.1284  -52.5633 H         1 UNK         0.0600 
    223 H223       -8.6410  -21.9906  -51.9270 H         1 UNK         0.0600 
    224 H224       -8.2753  -20.3712  -51.3549 H         1 UNK         0.0600 
    225 H225       -6.9553  -20.3505  -48.4998 H         1 UNK         0.3000 
    226 H226       -4.1995  -19.7387  -48.3013 H         1 UNK         0.0600 
    227 H227       -5.7979  -19.6747  -46.3953 H         1 UNK         0.0600 
    228 H228       -4.9677  -18.1439  -46.5621 H         1 UNK         0.0600 
    229 H229       -6.6298  -18.2951  -47.1163 H         1 UNK         0.0600 
    230 H230       -6.7159  -18.2708  -50.2033 H         1 UNK         0.3000 
    231 H231       -5.2357  -15.7957  -50.7955 H         1 UNK         0.0600 
    232 H232       -7.2771  -15.2593  -52.1048 H         1 UNK         0.0600 
    233 H233       -7.7111  -15.7514  -50.4772 H         1 UNK         0.0600 
    234 H234       -7.9164  -16.8742  -51.8226 H         1 UNK         0.0600 
    235 H235       -4.9079  -18.9548  -51.8492 H         1 UNK         0.3000 
    236 H236       -4.2398  -18.2437  -54.6672 H         1 UNK         0.0600 
    237 H237       -4.5799  -21.0052  -53.3858 H         1 UNK         0.0600 
    238 H238       -5.8226  -20.1702  -54.3099 H         1 UNK         0.0600 
    239 H239       -4.3367  -20.6543  -55.0930 H         1 UNK         0.0600 
    240 H240       -2.3472  -20.2688  -55.0424 H         1 UNK         0.3000 
    241 H241       -0.2206  -20.7397  -54.9499 H         1 UNK         0.0600 
    242 H242        0.3397  -17.0270  -55.8295 H         1 UNK         0.3800 
    243 H243       -1.1803  -17.8717  -55.7032 H         1 UNK         0.3800 
    244 H244        0.4700  -19.6739  -52.2162 H         1 UNK         0.0800 
    245 H245       -0.8063  -20.8246  -52.2538 H         1 UNK         0.0800 
    246 H246        3.0096  -20.4524  -53.4972 H         1 UNK         0.0800 
    247 H247        3.5678  -21.9962  -52.9384 H         1 UNK         0.0800 
@<TRIPOS>BOND
     1    1    2 1    
     2    1  127 1    
     3    1  128 1    
     4    1  129 1    
     5    2    3 2    
     6    2    4 am   BACKBONE|DICT|INTERRES
     7    4    5 1    
     8    4  130 1    
     9    5    6 1    
    10    5   65 1    
    11    5  131 1    
    12    6    7 1    
    13    6  132 1    
    14    6  133 1    
    15    7    8 1    
    16    8    9 1    
    17    8  134 1    
    18    8  135 1    
    19    9   10 ar   
    20    9   14 ar   
    21   10   11 ar   
    22   10  136 1    
    23   11   12 ar   
    24   11  126 1    
    25   12   13 ar   
    26   12  137 1    
    27   13   14 ar   
    28   13   15 1    
    29   14  138 1    
    30   15   16 1    
    31   15  139 1    
    32   15  140 1    
    33   16   17 1    
    34   17   18 1    
    35   17  141 1    
    36   17  142 1    
    37   18   19 1    
    38   18   67 1    
    39   18  143 1    
    40   19   20 am   BACKBONE|DICT|INTERRES
    41   19  144 1    
    42   20   21 2    
    43   20   22 1    
    44   22   23 1    
    45   22   24 1    
    46   22  145 1    
    47   23  146 1    
    48   23  147 1    
    49   23  148 1    
    50   24   25 am   BACKBONE|DICT|INTERRES
    51   24  149 1    
    52   25   26 2    
    53   25   27 1    
    54   27   28 1    
    55   27   29 1    
    56   27  150 1    
    57   28  151 1    
    58   28  152 1    
    59   28  153 1    
    60   29   30 am   BACKBONE|DICT|INTERRES
    61   29  154 1    
    62   30   31 2    
    63   30   32 1    
    64   32   33 1    
    65   32   34 1    
    66   32  155 1    
    67   33  156 1    
    68   33  157 1    
    69   33  158 1    
    70   34   35 am   BACKBONE|DICT|INTERRES
    71   34  159 1    
    72   35   36 2    
    73   35   37 1    
    74   37   38 1    
    75   37   39 1    
    76   37  160 1    
    77   38  161 1    
    78   38  162 1    
    79   38  163 1    
    80   39   40 am   BACKBONE|DICT|INTERRES
    81   39  164 1    
    82   40   41 2    
    83   40   42 1    
    84   42   43 1    
    85   42   44 1    
    86   42  165 1    
    87   43  166 1    
    88   43  167 1    
    89   43  168 1    
    90   44   45 am   BACKBONE|DICT|INTERRES
    91   44  169 1    
    92   45   46 2    
    93   45   47 1    
    94   47   48 1    
    95   47   49 1    
    96   47  170 1    
    97   48  171 1    
    98   48  172 1    
    99   48  173 1    
   100   49   50 am   BACKBONE|DICT|INTERRES
   101   49  174 1    
   102   50   51 2    
   103   50   52 1    
   104   52   53 1    
   105   52   54 1    
   106   52  175 1    
   107   53  176 1    
   108   53  177 1    
   109   53  178 1    
   110   54   55 am   BACKBONE|DICT|INTERRES
   111   54  179 1    
   112   55   56 2    
   113   55   57 1    
   114   57   58 1    
   115   57   59 1    
   116   57  180 1    
   117   58  181 1    
   118   58  182 1    
   119   58  183 1    
   120   59   60 am   BACKBONE|DICT|INTERRES
   121   59  184 1    
   122   60   61 2    
   123   60   62 1    
   124   62   63 1    
   125   62   64 1    
   126   62  185 1    
   127   63  186 1    
   128   63  187 1    
   129   63  188 1    
   130   64   65 am   BACKBONE|DICT|INTERRES
   131   64  189 1    
   132   65   66 2    
   133   67   68 2    
   134   67   69 am   BACKBONE|DICT|INTERRES
   135   69   70 1    
   136   69  190 1    
   137   70   71 1    
   138   70   72 1    
   139   70  191 1    
   140   71  192 1    
   141   71  193 1    
   142   71  194 1    
   143   72   73 2    
   144   72   74 am   BACKBONE|DICT|INTERRES
   145   74   75 1    
   146   74  195 1    
   147   75   76 1    
   148   75   77 1    
   149   75  196 1    
   150   76  197 1    
   151   76  198 1    
   152   76  199 1    
   153   77   78 2    
   154   77   79 am   BACKBONE|DICT|INTERRES
   155   79   80 1    
   156   79  200 1    
   157   80   81 1    
   158   80   82 1    
   159   80  201 1    
   160   81  202 1    
   161   81  203 1    
   162   81  204 1    
   163   82   83 2    
   164   82   84 am   BACKBONE|DICT|INTERRES
   165   84   85 1    
   166   84  205 1    
   167   85   86 1    
   168   85   87 1    
   169   85  206 1    
   170   86  207 1    
   171   86  208 1    
   172   86  209 1    
   173   87   88 2    
   174   87   89 am   BACKBONE|DICT|INTERRES
   175   89   90 1    
   176   89  210 1    
   177   90   91 1    
   178   90   92 1    
   179   90  211 1    
   180   91  212 1    
   181   91  213 1    
   182   91  214 1    
   183   92   93 2    
   184   92   94 am   BACKBONE|DICT|INTERRES
   185   94   95 1    
   186   94  215 1    
   187   95   96 1    
   188   95   97 1    
   189   95  216 1    
   190   96  217 1    
   191   96  218 1    
   192   96  219 1    
   193   97   98 2    
   194   97   99 am   BACKBONE|DICT|INTERRES
   195   99  100 1    
   196   99  220 1    
   197  100  101 1    
   198  100  102 1    
   199  100  221 1    
   200  101  222 1    
   201  101  223 1    
   202  101  224 1    
   203  102  103 2    
   204  102  104 am   BACKBONE|DICT|INTERRES
   205  104  105 1    
   206  104  225 1    
   207  105  106 1    
   208  105  107 1    
   209  105  226 1    
   210  106  227 1    
   211  106  228 1    
   212  106  229 1    
   213  107  108 2    
   214  107  109 am   BACKBONE|DICT|INTERRES
   215  109  110 1    
   216  109  230 1    
   217  110  111 1    
   218  110  112 1    
   219  110  231 1    
   220  111  232 1    
   221  111  233 1    
   222  111  234 1    
   223  112  113 2    
   224  112  114 am   BACKBONE|DICT|INTERRES
   225  114  115 1    
   226  114  235 1    
   227  115  116 1    
   228  115  117 1    
   229  115  236 1    
   230  116  237 1    
   231  116  238 1    
   232  116  239 1    
   233  117  118 2    
   234  117  119 am   BACKBONE|DICT|INTERRES
   235  119  120 1    
   236  119  240 1    
   237  120  121 1    
   238  120  124 1    
   239  120  241 1    
   240  121  122 am   BACKBONE|DICT|INTERRES
   241  121  123 2    
   242  122  242 1    
   243  122  243 1    
   244  124  125 1    
   245  124  244 1    
   246  124  245 1    
   247  125  126 1    
   248  126  246 1    
   249  126  247 1    
@<TRIPOS>SUBSTRUCTURE
     1 UNK         1 GROUP             0       ****    0 ROOT    
