@<TRIPOS>MOLECULE
3R540
247   249    1
SMALL
USER_CHARGES


@<TRIPOS>ATOM
      1 CA          2.2558  -10.0685  -49.2649 C.3       0 UNK        -0.1800 
      2 C           3.5873  -10.5346  -48.6926 C.2       0 UNK         0.5000 
      3 O           4.3784   -9.7118  -48.2297 O.2       0 UNK        -0.5000 
      4 N           3.8388  -11.8478  -48.7309 N.am      1 UNK        -0.5000 
      5 CA          5.0098  -12.5006  -48.1386 C.3       1 UNK         0.1400 
      6 C6          5.2635  -13.8954  -48.7665 C.3       23 UNK        -0.0398 
      7 S7          3.8396  -15.0438  -48.6929 S.3       23 UNK        -0.2404 
      8 C8          3.6923  -15.4964  -50.4506 C.3       23 UNK        -0.0205 
      9 C9          2.7153  -16.6423  -50.6590 C.ar      23 UNK        -0.0193 
     10 C10         1.4620  -16.4177  -51.2351 C.ar      23 UNK        -0.1150 
     11 C11         0.5711  -17.4749  -51.4461 C.ar      23 UNK        -0.0193 
     12 C12         0.9528  -18.7663  -51.0582 C.ar      23 UNK        -0.1150 
     13 C13         2.2041  -19.0116  -50.4779 C.ar      23 UNK        -0.0193 
     14 C14         3.0785  -17.9389  -50.2889 C.ar      23 UNK        -0.1150 
     15 C15         2.6542  -20.3977  -50.0108 C.3       23 UNK        -0.0205 
     16 S16         1.6810  -21.8154  -50.6277 S.3       23 UNK        -0.2404 
     17 C17         0.2111  -21.7621  -49.5480 C.3       23 UNK        -0.0398 
     18 CA          0.3248  -22.7780  -48.3902 C.3       11 UNK         0.1400 
     19 N           1.2330  -22.2961  -47.3500 N.am      11 UNK        -0.5000 
     20 C           2.1245  -23.0490  -46.6964 C.2       10 UNK         0.5000 
     21 O           2.2984  -24.2490  -46.9088 O.2       10 UNK        -0.5000 
     22 CA          2.9607  -22.3415  -45.6115 C.3       10 UNK         0.1400 
     23 CB          4.2868  -21.8372  -46.2013 C.3       10 UNK        -0.1800 
     24 N           2.2705  -21.2183  -44.9720 N.am      10 UNK        -0.5000 
     25 C           1.1737  -21.3311  -44.2114 C.2       9 UNK         0.5000 
     26 O           0.6006  -22.3980  -43.9876 O.2       9 UNK        -0.5000 
     27 CA          0.5960  -20.0236  -43.6391 C.3       9 UNK         0.1400 
     28 CB          1.3736  -19.5980  -42.3847 C.3       9 UNK        -0.1800 
     29 N           0.5356  -18.8899  -44.5685 N.am      9 UNK        -0.5000 
     30 C           0.0481  -18.8923  -45.8160 C.2       8 UNK         0.5000 
     31 O          -0.2432  -19.9095  -46.4449 O.2       8 UNK        -0.5000 
     32 CA         -0.2133  -17.5180  -46.4534 C.3       8 UNK         0.1400 
     33 CB          0.1826  -17.4923  -47.9341 C.3       8 UNK        -0.1800 
     34 N          -1.6276  -17.1628  -46.3265 N.am      8 UNK        -0.5000 
     35 C          -2.2183  -16.8164  -45.1769 C.2       7 UNK         0.5000 
     36 O          -1.6030  -16.6589  -44.1167 O.2       7 UNK        -0.5000 
     37 CA         -3.7414  -16.6001  -45.2082 C.3       7 UNK         0.1400 
     38 CB         -4.5035  -17.9209  -45.4140 C.3       7 UNK        -0.1800 
     39 N          -4.1129  -16.0195  -43.9267 N.am      7 UNK        -0.5000 
     40 C          -5.1191  -15.1811  -43.6625 C.2       6 UNK         0.5000 
     41 O          -5.9860  -14.8661  -44.4782 O.2       6 UNK        -0.5000 
     42 CA         -5.1344  -14.5736  -42.2416 C.3       6 UNK         0.1400 
     43 CB         -6.0812  -15.3650  -41.3265 C.3       6 UNK        -0.1800 
     44 N          -3.7955  -14.5458  -41.6378 N.am      6 UNK        -0.5000 
     45 C          -2.8100  -13.7279  -42.0347 C.2       5 UNK         0.5000 
     46 O          -2.9874  -12.7908  -42.8158 O.2       5 UNK        -0.5000 
     47 CA         -1.3813  -14.0355  -41.5451 C.3       5 UNK         0.1400 
     48 CB         -1.2861  -15.2252  -40.5686 C.3       5 UNK        -0.1800 
     49 N          -0.5881  -14.3429  -42.7303 N.am      5 UNK        -0.5000 
     50 C           0.2602  -13.5087  -43.3379 C.2       4 UNK         0.5000 
     51 O           0.6459  -12.4406  -42.8578 O.2       4 UNK        -0.5000 
     52 CA          0.7432  -13.9453  -44.7331 C.3       4 UNK         0.1400 
     53 CB          0.6645  -12.7938  -45.7489 C.3       4 UNK        -0.1800 
     54 N           2.1016  -14.4853  -44.7022 N.am      4 UNK        -0.5000 
     55 C           2.4401  -15.6617  -44.1523 C.2       3 UNK         0.5000 
     56 O           1.6268  -16.4150  -43.6174 O.2       3 UNK        -0.5000 
     57 CA          3.9083  -16.1233  -44.2513 C.3       3 UNK         0.1400 
     58 CB          4.0307  -17.2820  -45.2557 C.3       3 UNK        -0.1800 
     59 N           4.8345  -15.0616  -44.6419 N.am      3 UNK        -0.5000 
     60 C           5.2551  -14.0756  -43.8378 C.2       2 UNK         0.5000 
     61 O           4.9602  -13.9983  -42.6448 O.2       2 UNK        -0.5000 
     62 CA          6.1410  -12.9805  -44.4719 C.3       2 UNK         0.1400 
     63 CB          7.6159  -13.2063  -44.1046 C.3       2 UNK        -0.1800 
     64 N           6.0292  -12.8662  -45.9324 N.am      2 UNK        -0.5000 
     65 C           4.9038  -12.5711  -46.5986 C.2       1 UNK         0.5000 
     66 O           3.8185  -12.4015  -46.0396 O.2       1 UNK        -0.5000 
     67 C          -1.0541  -23.1006  -47.7879 C.2       11 UNK         0.5000 
     68 O          -1.7071  -24.0340  -48.2526 O.2       11 UNK        -0.5000 
     69 N          -1.4761  -22.3621  -46.7517 N.am      12 UNK        -0.5000 
     70 CA         -2.7038  -22.5958  -45.9870 C.3       12 UNK         0.1400 
     71 CB         -2.9090  -21.4558  -44.9802 C.3       12 UNK        -0.1800 
     72 C          -2.7062  -23.9574  -45.2714 C.2       12 UNK         0.5000 
     73 O          -3.7530  -24.6000  -45.2043 O.2       12 UNK        -0.5000 
     74 N          -1.5246  -24.4096  -44.8273 N.am      13 UNK        -0.5000 
     75 CA         -1.2822  -25.7452  -44.2738 C.3       13 UNK         0.1400 
     76 CB          0.1710  -25.8198  -43.7815 C.3       13 UNK        -0.1800 
     77 C          -1.5730  -26.8952  -45.2635 C.2       13 UNK         0.5000 
     78 O          -1.9044  -27.9978  -44.8271 O.2       13 UNK        -0.5000 
     79 N          -1.4659  -26.6131  -46.5689 N.am      14 UNK        -0.5000 
     80 CA         -1.7941  -27.5235  -47.6676 C.3       14 UNK         0.1400 
     81 CB         -0.6933  -27.3999  -48.7355 C.3       14 UNK        -0.1800 
     82 C          -3.1801  -27.2239  -48.2790 C.2       14 UNK         0.5000 
     83 O          -3.5562  -27.8734  -49.2549 O.2       14 UNK        -0.5000 
     84 N          -3.8946  -26.2292  -47.7271 N.am      15 UNK        -0.5000 
     85 CA         -5.1672  -25.6533  -48.1815 C.3       15 UNK         0.1400 
     86 CB         -6.2970  -26.7020  -48.1598 C.3       15 UNK        -0.1800 
     87 C          -5.0879  -24.9113  -49.5343 C.2       15 UNK         0.5000 
     88 O          -6.1240  -24.5091  -50.0638 O.2       15 UNK        -0.5000 
     89 N          -3.8753  -24.6911  -50.0588 N.am      16 UNK        -0.5000 
     90 CA         -3.6282  -24.0303  -51.3393 C.3       16 UNK         0.1400 
     91 CB         -2.1799  -24.2880  -51.7800 C.3       16 UNK        -0.1800 
     92 C          -3.9366  -22.5259  -51.2927 C.2       16 UNK         0.5000 
     93 O          -4.4725  -21.9906  -52.2623 O.2       16 UNK        -0.5000 
     94 N          -3.6433  -21.8798  -50.1547 N.am      17 UNK        -0.5000 
     95 CA         -3.9813  -20.4733  -49.9173 C.3       17 UNK         0.1400 
     96 CB         -3.1494  -19.9171  -48.7538 C.3       17 UNK        -0.1800 
     97 C          -5.4842  -20.2710  -49.6532 C.2       17 UNK         0.5000 
     98 O          -6.0267  -19.2325  -50.0275 O.2       17 UNK        -0.5000 
     99 N          -6.1352  -21.2760  -49.0481 N.am      18 UNK        -0.5000 
    100 CA        -7.5794  -21.3013  -48.8039 C.3       18 UNK         0.1400 
    101 CB        -7.9106  -22.4027  -47.7847 C.3       18 UNK        -0.1800 
    102 C         -8.3774  -21.4907  -50.1075 C.2       18 UNK         0.5000 
    103 O         -9.3997  -20.8323  -50.2994 O.2       18 UNK        -0.5000 
    104 N         -7.8655  -22.3516  -50.9984 N.am      19 UNK        -0.5000 
    105 CA        -8.3698  -22.5557  -52.3583 C.3       19 UNK         0.1400 
    106 CB        -7.7819  -23.8666  -52.9048 C.3       19 UNK        -0.1800 
    107 C         -8.0410  -21.3899  -53.3151 C.2       19 UNK         0.5000 
    108 O         -8.6411  -21.3067  -54.3872 O.2       19 UNK        -0.5000 
    109 N         -7.0832  -20.5364  -52.9214 N.am      20 UNK        -0.5000 
    110 CA        -6.4963  -19.4236  -53.6754 C.3       20 UNK         0.1400 
    111 CB        -7.5447  -18.3301  -53.9648 C.3       20 UNK        -0.1800 
    112 C         -5.7402  -19.8905  -54.9376 C.2       20 UNK         0.5000 
    113 O         -5.6633  -19.1570  -55.9253 O.2       20 UNK        -0.5000 
    114 N         -5.1630  -21.0985  -54.8716 N.am      21 UNK        -0.5000 
    115 CA        -4.3967  -21.7389  -55.9426 C.3       21 UNK         0.1400 
    116 CB        -4.1334  -23.2027  -55.5568 C.3       21 UNK        -0.1800 
    117 C         -3.0754  -21.0105  -56.2525 C.2       21 UNK         0.5000 
    118 O         -2.5872  -21.0832  -57.3807 O.2       21 UNK        -0.5000 
    119 N         -2.5430  -20.3018  -55.2508 N.am      22 UNK        -0.5000 
    120 CA        -1.3995  -19.3880  -55.3621 C.3       22 UNK         0.1400 
    121 C         -1.7229  -18.0121  -56.0218 C.2       22 UNK         0.5000 
    122 N         -2.9710  -17.6957  -56.3513 N.am      22 UNK        -0.7600 
    123 O         -0.8160  -17.2179  -56.2556 O.2       22 UNK        -0.5000 
    124 C124       -0.6788  -19.2355  -53.9992 C.3       23 UNK        -0.0398 
    125 S125       -1.7537  -18.6109  -52.6554 S.3       23 UNK        -0.2404 
    126 C126       -0.7938  -17.1674  -52.0715 C.3       23 UNK        -0.0205 
    127 H127        1.6705   -9.5697  -48.4924 H         1 UNK         0.0600 
    128 H128        1.6675  -10.9009  -49.6519 H         1 UNK         0.0600 
    129 H129        2.4225   -9.3623  -50.0783 H         1 UNK         0.0600 
    130 H130        3.1348  -12.4786  -49.0859 H         1 UNK         0.3000 
    131 H131        5.8812  -11.8813  -48.3625 H         1 UNK         0.0600 
    132 H132        5.5527  -13.7538  -49.8087 H         1 UNK         0.0800 
    133 H133        6.1213  -14.3841  -48.3020 H         1 UNK         0.0800 
    134 H134        3.3883  -14.6198  -51.0249 H         1 UNK         0.0800 
    135 H135        4.6698  -15.7942  -50.8331 H         1 UNK         0.0800 
    136 H136        1.1780  -15.4149  -51.5219 H         1 UNK         0.1150 
    137 H137        0.2651  -19.5823  -51.2004 H         1 UNK         0.1150 
    138 H138        4.0465  -18.1092  -49.8383 H         1 UNK         0.1150 
    139 H139        3.6868  -20.5522  -50.3274 H         1 UNK         0.0800 
    140 H140        2.6643  -20.4146  -48.9210 H         1 UNK         0.0800 
    141 H141       -0.6544  -21.9664  -50.1792 H         1 UNK         0.0800 
    142 H142        0.0718  -20.7532  -49.1584 H         1 UNK         0.0800 
    143 H143        0.6997  -23.7179  -48.8020 H         1 UNK         0.0600 
    144 H144        1.1065  -21.3337  -47.0598 H         1 UNK         0.3000 
    145 H145        3.1868  -23.0802  -44.8396 H         1 UNK         0.0600 
    146 H146        4.9293  -21.4186  -45.4264 H         1 UNK         0.0600 
    147 H147        4.8386  -22.6503  -46.6748 H         1 UNK         0.0600 
    148 H148        4.1257  -21.0666  -46.9560 H         1 UNK         0.0600 
    149 H149        2.6607  -20.2997  -45.1172 H         1 UNK         0.3000 
    150 H150       -0.4302  -20.2301  -43.3341 H         1 UNK         0.0600 
    151 H151        2.3960  -19.3044  -42.6259 H         1 UNK         0.0600 
    152 H152        1.4248  -20.4100  -41.6581 H         1 UNK         0.0600 
    153 H153        0.8925  -18.7522  -41.8929 H         1 UNK         0.0600 
    154 H154        0.7465  -17.9847  -44.1521 H         1 UNK         0.3000 
    155 H155        0.3949  -16.7746  -45.9427 H         1 UNK         0.0600 
    156 H156       -0.4096  -18.1892  -48.5275 H         1 UNK         0.0600 
    157 H157        1.2315  -17.7632  -48.0531 H         1 UNK         0.0600 
    158 H158        0.0569  -16.4973  -48.3609 H         1 UNK         0.0600 
    159 H159       -2.1922  -17.2838  -47.1537 H         1 UNK         0.3000 
    160 H160       -3.9761  -15.9007  -46.0131 H         1 UNK         0.0600 
    161 H161       -4.2856  -18.6359  -44.6198 H         1 UNK         0.0600 
    162 H162       -4.2408  -18.3886  -46.3624 H         1 UNK         0.0600 
    163 H163       -5.5808  -17.7551  -45.4248 H         1 UNK         0.0600 
    164 H164       -3.4159  -16.1773  -43.2103 H         1 UNK         0.3000 
    165 H165       -5.5067  -13.5499  -42.3190 H         1 UNK         0.0600 
    166 H166       -6.1401  -14.9144  -40.3356 H         1 UNK         0.0600 
    167 H167       -7.0926  -15.3835  -41.7348 H         1 UNK         0.0600 
    168 H168       -5.7564  -16.3994  -41.2076 H         1 UNK         0.0600 
    169 H169       -3.5809  -15.2798  -40.9782 H         1 UNK         0.3000 
    170 H170       -1.0049  -13.1431  -41.0414 H         1 UNK         0.0600 
    171 H171       -1.6296  -16.1570  -41.0204 H         1 UNK         0.0600 
    172 H172       -0.2542  -15.3804  -40.2528 H         1 UNK         0.0600 
    173 H173       -1.8717  -15.0465  -39.6659 H         1 UNK         0.0600 
    174 H174       -0.8255  -15.2133  -43.2018 H         1 UNK         0.3000 
    175 H175        0.0740  -14.7245  -45.0961 H         1 UNK         0.0600 
    176 H176        1.2842  -11.9473  -45.4519 H         1 UNK         0.0600 
    177 H177        0.9898  -13.1160  -46.7385 H         1 UNK         0.0600 
    178 H178       -0.3593  -12.4302  -45.8434 H         1 UNK         0.0600 
    179 H179        2.8225  -13.8970  -45.1072 H         1 UNK         0.3000 
    180 H180        4.2003  -16.4945  -43.2667 H         1 UNK         0.0600 
    181 H181        3.7224  -16.9818  -46.2579 H         1 UNK         0.0600 
    182 H182        3.4047  -18.1239  -44.9592 H         1 UNK         0.0600 
    183 H183        5.0557  -17.6484  -45.3146 H         1 UNK         0.0600 
    184 H184        5.1214  -15.0448  -45.6092 H         1 UNK         0.3000 
    185 H185        5.8252  -12.0270  -44.0435 H         1 UNK         0.0600 
    186 H186        7.7459  -13.2649  -43.0230 H         1 UNK         0.0600 
    187 H187        7.9986  -14.1342  -44.5316 H         1 UNK         0.0600 
    188 H188        8.2421  -12.3879  -44.4602 H         1 UNK         0.0600 
    189 H189        6.8861  -12.9964  -46.4509 H         1 UNK         0.3000 
    190 H190       -0.9234  -21.5530  -46.4761 H         1 UNK         0.3000 
    191 H191       -3.5392  -22.5886  -46.6897 H         1 UNK         0.0600 
    192 H192       -2.8493  -20.4806  -45.4619 H         1 UNK         0.0600 
    193 H193       -3.8882  -21.5277  -44.5054 H         1 UNK         0.0600 
    194 H194       -2.1604  -21.4838  -44.1895 H         1 UNK         0.0600 
    195 H195       -0.7267  -23.7840  -44.8619 H         1 UNK         0.3000 
    196 H196       -1.9445  -25.8754  -43.4157 H         1 UNK         0.0600 
    197 H197        0.3906  -26.7976  -43.3509 H         1 UNK         0.0600 
    198 H198        0.3640  -25.0747  -43.0094 H         1 UNK         0.0600 
    199 H199        0.8789  -25.6501  -44.5941 H         1 UNK         0.0600 
    200 H200       -1.2123  -25.6726  -46.8422 H         1 UNK         0.3000 
    201 H201       -1.8109  -28.5557  -47.3125 H         1 UNK         0.0600 
    202 H202       -0.8569  -28.1031  -49.5530 H         1 UNK         0.0600 
    203 H203        0.2889  -27.6170  -48.3153 H         1 UNK         0.0600 
    204 H204       -0.6584  -26.3987  -49.1667 H         1 UNK         0.0600 
    205 H205       -3.5066  -25.7805  -46.9059 H         1 UNK         0.3000 
    206 H206       -5.4221  -24.8900  -47.4455 H         1 UNK         0.0600 
    207 H207       -6.3507  -27.2035  -47.1936 H         1 UNK         0.0600 
    208 H208       -7.2669  -26.2351  -48.3354 H         1 UNK         0.0600 
    209 H209       -6.1608  -27.4634  -48.9279 H         1 UNK         0.0600 
    210 H210       -3.0616  -24.9561  -49.5163 H         1 UNK         0.3000 
    211 H211       -4.2902  -24.4744  -52.0858 H         1 UNK         0.0600 
    212 H212       -1.4616  -23.9705  -51.0256 H         1 UNK         0.0600 
    213 H213       -1.9468  -23.7557  -52.7032 H         1 UNK         0.0600 
    214 H214       -2.0134  -25.3491  -51.9662 H         1 UNK         0.0600 
    215 H215       -3.2159  -22.3982  -49.4014 H         1 UNK         0.3000 
    216 H216       -3.7261  -19.9028  -50.8123 H         1 UNK         0.0600 
    217 H217       -3.3391  -18.8518  -48.6208 H         1 UNK         0.0600 
    218 H218       -2.0834  -20.0291  -48.9378 H         1 UNK         0.0600 
    219 H219       -3.3868  -20.4123  -47.8140 H         1 UNK         0.0600 
    220 H220       -5.6203  -22.1069  -48.8040 H         1 UNK         0.3000 
    221 H221       -7.8694  -20.3417  -48.3704 H         1 UNK         0.0600 
    222 H222       -7.6614  -23.3951  -48.1602 H         1 UNK         0.0600 
    223 H223       -7.3704  -22.2514  -46.8501 H         1 UNK         0.0600 
    224 H224       -8.9752  -22.4029  -47.5476 H         1 UNK         0.0600 
    225 H225       -7.0735  -22.9254  -50.7241 H         1 UNK         0.3000 
    226 H226       -9.4563  -22.6546  -52.3158 H         1 UNK         0.0600 
    227 H227       -8.1589  -24.0799  -53.9057 H         1 UNK         0.0600 
    228 H228       -6.6936  -23.8229  -52.9658 H         1 UNK         0.0600 
    229 H229       -8.0470  -24.7126  -52.2704 H         1 UNK         0.0600 
    230 H230       -6.6463  -20.7251  -52.0305 H         1 UNK         0.3000 
    231 H231       -5.7407  -18.9865  -53.0209 H         1 UNK         0.0600 
    232 H232       -8.2969  -18.6660  -54.6788 H         1 UNK         0.0600 
    233 H233       -7.0741  -17.4394  -54.3827 H         1 UNK         0.0600 
    234 H234       -8.0581  -18.0266  -53.0524 H         1 UNK         0.0600 
    235 H235       -5.1845  -21.5851  -53.9793 H         1 UNK         0.3000 
    236 H236       -5.0052  -21.7237  -56.8490 H         1 UNK         0.0600 
    237 H237       -5.0666  -23.7389  -55.3830 H         1 UNK         0.0600 
    238 H238       -3.5997  -23.7263  -56.3509 H         1 UNK         0.0600 
    239 H239       -3.5308  -23.2769  -54.6511 H         1 UNK         0.0600 
    240 H240       -3.0177  -20.3019  -54.3595 H         1 UNK         0.3000 
    241 H241       -0.6820  -19.8578  -56.0375 H         1 UNK         0.0600 
    242 H242       -3.7416  -18.3310  -56.1850 H         1 UNK         0.3800 
    243 H243       -3.1518  -16.8034  -56.7829 H         1 UNK         0.3800 
    244 H244       -0.2922  -20.2062  -53.6855 H         1 UNK         0.0800 
    245 H245        0.2000  -18.5971  -54.1045 H         1 UNK         0.0800 
    246 H246       -1.3950  -16.6384  -51.3312 H         1 UNK         0.0800 
    247 H247       -0.6627  -16.4817  -52.9102 H         1 UNK         0.0800 
@<TRIPOS>BOND
     1    1    2 1    
     2    1  127 1    
     3    1  128 1    
     4    1  129 1    
     5    2    3 2    
     6    2    4 am   BACKBONE|DICT|INTERRES
     7    4    5 1    
     8    4  130 1    
     9    5    6 1    
    10    5   65 1    
    11    5  131 1    
    12    6    7 1    
    13    6  132 1    
    14    6  133 1    
    15    7    8 1    
    16    8    9 1    
    17    8  134 1    
    18    8  135 1    
    19    9   10 ar   
    20    9   14 ar   
    21   10   11 ar   
    22   10  136 1    
    23   11   12 ar   
    24   11  126 1    
    25   12   13 ar   
    26   12  137 1    
    27   13   14 ar   
    28   13   15 1    
    29   14  138 1    
    30   15   16 1    
    31   15  139 1    
    32   15  140 1    
    33   16   17 1    
    34   17   18 1    
    35   17  141 1    
    36   17  142 1    
    37   18   19 1    
    38   18   67 1    
    39   18  143 1    
    40   19   20 am   BACKBONE|DICT|INTERRES
    41   19  144 1    
    42   20   21 2    
    43   20   22 1    
    44   22   23 1    
    45   22   24 1    
    46   22  145 1    
    47   23  146 1    
    48   23  147 1    
    49   23  148 1    
    50   24   25 am   BACKBONE|DICT|INTERRES
    51   24  149 1    
    52   25   26 2    
    53   25   27 1    
    54   27   28 1    
    55   27   29 1    
    56   27  150 1    
    57   28  151 1    
    58   28  152 1    
    59   28  153 1    
    60   29   30 am   BACKBONE|DICT|INTERRES
    61   29  154 1    
    62   30   31 2    
    63   30   32 1    
    64   32   33 1    
    65   32   34 1    
    66   32  155 1    
    67   33  156 1    
    68   33  157 1    
    69   33  158 1    
    70   34   35 am   BACKBONE|DICT|INTERRES
    71   34  159 1    
    72   35   36 2    
    73   35   37 1    
    74   37   38 1    
    75   37   39 1    
    76   37  160 1    
    77   38  161 1    
    78   38  162 1    
    79   38  163 1    
    80   39   40 am   BACKBONE|DICT|INTERRES
    81   39  164 1    
    82   40   41 2    
    83   40   42 1    
    84   42   43 1    
    85   42   44 1    
    86   42  165 1    
    87   43  166 1    
    88   43  167 1    
    89   43  168 1    
    90   44   45 am   BACKBONE|DICT|INTERRES
    91   44  169 1    
    92   45   46 2    
    93   45   47 1    
    94   47   48 1    
    95   47   49 1    
    96   47  170 1    
    97   48  171 1    
    98   48  172 1    
    99   48  173 1    
   100   49   50 am   BACKBONE|DICT|INTERRES
   101   49  174 1    
   102   50   51 2    
   103   50   52 1    
   104   52   53 1    
   105   52   54 1    
   106   52  175 1    
   107   53  176 1    
   108   53  177 1    
   109   53  178 1    
   110   54   55 am   BACKBONE|DICT|INTERRES
   111   54  179 1    
   112   55   56 2    
   113   55   57 1    
   114   57   58 1    
   115   57   59 1    
   116   57  180 1    
   117   58  181 1    
   118   58  182 1    
   119   58  183 1    
   120   59   60 am   BACKBONE|DICT|INTERRES
   121   59  184 1    
   122   60   61 2    
   123   60   62 1    
   124   62   63 1    
   125   62   64 1    
   126   62  185 1    
   127   63  186 1    
   128   63  187 1    
   129   63  188 1    
   130   64   65 am   BACKBONE|DICT|INTERRES
   131   64  189 1    
   132   65   66 2    
   133   67   68 2    
   134   67   69 am   BACKBONE|DICT|INTERRES
   135   69   70 1    
   136   69  190 1    
   137   70   71 1    
   138   70   72 1    
   139   70  191 1    
   140   71  192 1    
   141   71  193 1    
   142   71  194 1    
   143   72   73 2    
   144   72   74 am   BACKBONE|DICT|INTERRES
   145   74   75 1    
   146   74  195 1    
   147   75   76 1    
   148   75   77 1    
   149   75  196 1    
   150   76  197 1    
   151   76  198 1    
   152   76  199 1    
   153   77   78 2    
   154   77   79 am   BACKBONE|DICT|INTERRES
   155   79   80 1    
   156   79  200 1    
   157   80   81 1    
   158   80   82 1    
   159   80  201 1    
   160   81  202 1    
   161   81  203 1    
   162   81  204 1    
   163   82   83 2    
   164   82   84 am   BACKBONE|DICT|INTERRES
   165   84   85 1    
   166   84  205 1    
   167   85   86 1    
   168   85   87 1    
   169   85  206 1    
   170   86  207 1    
   171   86  208 1    
   172   86  209 1    
   173   87   88 2    
   174   87   89 am   BACKBONE|DICT|INTERRES
   175   89   90 1    
   176   89  210 1    
   177   90   91 1    
   178   90   92 1    
   179   90  211 1    
   180   91  212 1    
   181   91  213 1    
   182   91  214 1    
   183   92   93 2    
   184   92   94 am   BACKBONE|DICT|INTERRES
   185   94   95 1    
   186   94  215 1    
   187   95   96 1    
   188   95   97 1    
   189   95  216 1    
   190   96  217 1    
   191   96  218 1    
   192   96  219 1    
   193   97   98 2    
   194   97   99 am   BACKBONE|DICT|INTERRES
   195   99  100 1    
   196   99  220 1    
   197  100  101 1    
   198  100  102 1    
   199  100  221 1    
   200  101  222 1    
   201  101  223 1    
   202  101  224 1    
   203  102  103 2    
   204  102  104 am   BACKBONE|DICT|INTERRES
   205  104  105 1    
   206  104  225 1    
   207  105  106 1    
   208  105  107 1    
   209  105  226 1    
   210  106  227 1    
   211  106  228 1    
   212  106  229 1    
   213  107  108 2    
   214  107  109 am   BACKBONE|DICT|INTERRES
   215  109  110 1    
   216  109  230 1    
   217  110  111 1    
   218  110  112 1    
   219  110  231 1    
   220  111  232 1    
   221  111  233 1    
   222  111  234 1    
   223  112  113 2    
   224  112  114 am   BACKBONE|DICT|INTERRES
   225  114  115 1    
   226  114  235 1    
   227  115  116 1    
   228  115  117 1    
   229  115  236 1    
   230  116  237 1    
   231  116  238 1    
   232  116  239 1    
   233  117  118 2    
   234  117  119 am   BACKBONE|DICT|INTERRES
   235  119  120 1    
   236  119  240 1    
   237  120  121 1    
   238  120  124 1    
   239  120  241 1    
   240  121  122 am   BACKBONE|DICT|INTERRES
   241  121  123 2    
   242  122  242 1    
   243  122  243 1    
   244  124  125 1    
   245  124  244 1    
   246  124  245 1    
   247  125  126 1    
   248  126  246 1    
   249  126  247 1    
@<TRIPOS>SUBSTRUCTURE
     1 UNK         1 GROUP             0       ****    0 ROOT    
