@<TRIPOS>MOLECULE
3R540
247   249    1
SMALL
USER_CHARGES


@<TRIPOS>ATOM
      1 CA         -0.1841  -17.3910  -42.1017 C.3       0 UNK        -0.1800 
      2 C          -0.8427  -18.0881  -43.2810 C.2       0 UNK         0.5000 
      3 O          -1.9020  -18.6915  -43.1140 O.2       0 UNK        -0.5000 
      4 N          -0.2175  -18.0206  -44.4640 N.am      1 UNK        -0.5000 
      5 CA         -0.6901  -18.6290  -45.7116 C.3       1 UNK         0.1400 
      6 C6          0.3956  -18.6072  -46.8161 C.3       23 UNK        -0.0398 
      7 S7          0.8192  -16.9371  -47.4260 S.3       23 UNK        -0.2404 
      8 C8          2.5110  -17.1666  -48.0494 C.3       23 UNK        -0.0205 
      9 C9          2.5416  -18.0352  -49.2978 C.ar      23 UNK        -0.0193 
     10 C10         2.3409  -17.4739  -50.5630 C.ar      23 UNK        -0.1150 
     11 C11         2.3883  -18.2709  -51.7133 C.ar      23 UNK        -0.0193 
     12 C12         2.6308  -19.6425  -51.5810 C.ar      23 UNK        -0.1150 
     13 C13         2.8103  -20.2175  -50.3210 C.ar      23 UNK        -0.0193 
     14 C14         2.7818  -19.4051  -49.1858 C.ar      23 UNK        -0.1150 
     15 C15         3.0303  -21.7169  -50.1883 C.3       23 UNK        -0.0205 
     16 S16         1.4855  -22.6494  -50.4365 S.3       23 UNK        -0.2404 
     17 C17         0.4456  -22.0536  -49.0597 C.3       23 UNK        -0.0398 
     18 CA         -0.1447  -23.2093  -48.2209 C.3       11 UNK         0.1400 
     19 N           0.8942  -24.0047  -47.5647 N.am      11 UNK        -0.5000 
     20 C           0.6995  -25.1399  -46.8794 C.2       10 UNK         0.5000 
     21 O          -0.3942  -25.7001  -46.7871 O.2       10 UNK        -0.5000 
     22 CA          1.9167  -25.6875  -46.1024 C.3       10 UNK         0.1400 
     23 CB          2.6189  -26.7839  -46.9160 C.3       10 UNK        -0.1800 
     24 N           2.8974  -24.6530  -45.7342 N.am      10 UNK        -0.5000 
     25 C           2.6271  -23.5749  -44.9836 C.2       9 UNK         0.5000 
     26 O           1.5208  -23.3636  -44.4791 O.2       9 UNK        -0.5000 
     27 CA          3.7354  -22.5188  -44.8468 C.3       9 UNK         0.1400 
     28 CB          4.0634  -21.9096  -46.2255 C.3       9 UNK        -0.1800 
     29 N           3.2517  -21.4806  -43.9406 N.am      9 UNK        -0.5000 
     30 C           3.9593  -20.4749  -43.4194 C.2       8 UNK         0.5000 
     31 O           5.1665  -20.3080  -43.6110 O.2       8 UNK        -0.5000 
     32 CA          3.1865  -19.5124  -42.4990 C.3       8 UNK         0.1400 
     33 CB          3.2588  -19.9797  -41.0377 C.3       8 UNK        -0.1800 
     34 N           3.7119  -18.1505  -42.5899 N.am      8 UNK        -0.5000 
     35 C           3.4562  -17.3151  -43.6024 C.2       7 UNK         0.5000 
     36 O           2.6920  -17.5836  -44.5295 O.2       7 UNK        -0.5000 
     37 CA          4.1286  -15.9306  -43.5532 C.3       7 UNK         0.1400 
     38 CB          4.8306  -15.6086  -44.8827 C.3       7 UNK        -0.1800 
     39 N           3.1407  -14.8897  -43.2750 N.am      7 UNK        -0.5000 
     40 C           2.4970  -14.7316  -42.1110 C.2       6 UNK         0.5000 
     41 O           2.7659  -15.3816  -41.0997 O.2       6 UNK        -0.5000 
     42 CA          1.3682  -13.6787  -42.0433 C.3       6 UNK         0.1400 
     43 CB          1.7336  -12.5570  -41.0571 C.3       6 UNK        -0.1800 
     44 N           0.9983  -13.0662  -43.3238 N.am      6 UNK        -0.5000 
     45 C           0.3834  -13.6841  -44.3401 C.2       5 UNK         0.5000 
     46 O           0.1091  -14.8835  -44.3499 O.2       5 UNK        -0.5000 
     47 CA          0.0020  -12.7919  -45.5285 C.3       5 UNK         0.1400 
     48 CB          0.0963  -13.5278  -46.8742 C.3       5 UNK        -0.1800 
     49 N          -1.3624  -12.3044  -45.3421 N.am      5 UNK        -0.5000 
     50 C          -1.7572  -11.0439  -45.5728 C.2       4 UNK         0.5000 
     51 O          -0.9792  -10.1466  -45.9012 O.2       4 UNK        -0.5000 
     52 CA         -3.2592  -10.7099  -45.4473 C.3       4 UNK         0.1400 
     53 CB         -3.7799  -10.0447  -46.7337 C.3       4 UNK        -0.1800 
     54 N          -4.0831  -11.8892  -45.1819 N.am      4 UNK        -0.5000 
     55 C          -4.6293  -12.2059  -44.0014 C.2       3 UNK         0.5000 
     56 O          -4.5136  -11.5206  -42.9847 O.2       3 UNK        -0.5000 
     57 CA         -5.4357  -13.5217  -43.9417 C.3       3 UNK         0.1400 
     58 CB         -6.9376  -13.2356  -44.0947 C.3       3 UNK        -0.1800 
     59 N          -5.0387  -14.5266  -44.9375 N.am      3 UNK        -0.5000 
     60 C          -3.8219  -15.0800  -45.0133 C.2       2 UNK         0.5000 
     61 O          -2.8878  -14.7556  -44.2780 O.2       2 UNK        -0.5000 
     62 CA         -3.6060  -16.1320  -46.1100 C.3       2 UNK         0.1400 
     63 CB         -3.5787  -15.4904  -47.5087 C.3       2 UNK        -0.1800 
     64 N          -2.3433  -16.8130  -45.8566 N.am      2 UNK        -0.5000 
     65 C          -2.0494  -18.0725  -46.1973 C.2       1 UNK         0.5000 
     66 O          -2.8057  -18.8001  -46.8428 O.2       1 UNK        -0.5000 
     67 C          -1.2110  -22.6654  -47.2436 C.2       11 UNK         0.5000 
     68 O          -2.3049  -22.3497  -47.7037 O.2       11 UNK        -0.5000 
     69 N          -0.9138  -22.5835  -45.9361 N.am      12 UNK        -0.5000 
     70 CA         -1.8883  -22.2351  -44.8979 C.3       12 UNK         0.1400 
     71 CB         -1.1541  -21.9049  -43.5879 C.3       12 UNK        -0.1800 
     72 C          -2.9059  -23.3630  -44.6575 C.2       12 UNK         0.5000 
     73 O          -4.0898  -23.0844  -44.4696 O.2       12 UNK        -0.5000 
     74 N          -2.4277  -24.6149  -44.6821 N.am      13 UNK        -0.5000 
     75 CA         -3.2463  -25.8144  -44.5095 C.3       13 UNK         0.1400 
     76 CB         -2.3472  -26.9958  -44.1132 C.3       13 UNK        -0.1800 
     77 C          -4.0514  -26.1374  -45.7784 C.2       13 UNK         0.5000 
     78 O          -5.2246  -26.4986  -45.6816 O.2       13 UNK        -0.5000 
     79 N          -3.4116  -25.9783  -46.9452 N.am      14 UNK        -0.5000 
     80 CA         -4.0277  -26.1826  -48.2578 C.3       14 UNK         0.1400 
     81 CB         -2.9130  -26.3746  -49.2981 C.3       14 UNK        -0.1800 
     82 C          -4.9636  -25.0327  -48.6849 C.2       14 UNK         0.5000 
     83 O          -5.7832  -25.2314  -49.5816 O.2       14 UNK        -0.5000 
     84 N          -4.7931  -23.8509  -48.0706 N.am      15 UNK        -0.5000 
     85 CA         -5.4128  -22.5590  -48.4018 C.3       15 UNK         0.1400 
     86 CB         -6.9420  -22.6042  -48.2075 C.3       15 UNK        -0.1800 
     87 C          -5.0042  -22.0321  -49.7965 C.2       15 UNK         0.5000 
     88 O          -5.7151  -21.2140  -50.3799 O.2       15 UNK        -0.5000 
     89 N          -3.8563  -22.5012  -50.3034 N.am      16 UNK        -0.5000 
     90 CA         -3.3747  -22.2930  -51.6686 C.3       16 UNK         0.1400 
     91 CB         -2.2440  -23.2924  -51.9561 C.3       16 UNK        -0.1800 
     92 C          -2.9122  -20.8592  -51.9725 C.2       16 UNK         0.5000 
     93 O          -2.8249  -20.5050  -53.1471 O.2       16 UNK        -0.5000 
     94 N          -2.6089  -20.0631  -50.9412 N.am      17 UNK        -0.5000 
     95 CA         -2.2870  -18.6429  -51.0979 C.3       17 UNK         0.1400 
     96 CB         -1.1930  -18.2569  -50.0999 C.3       17 UNK        -0.1800 
     97 C          -3.5324  -17.7564  -50.9158 C.2       17 UNK         0.5000 
     98 O          -3.5870  -16.6735  -51.4978 O.2       17 UNK        -0.5000 
     99 N          -4.5127  -18.2268  -50.1290 N.am      18 UNK        -0.5000 
    100 CA        -5.7972  -17.5600  -49.9126 C.3       18 UNK         0.1400 
    101 CB        -6.4671  -18.1281  -48.6516 C.3       18 UNK        -0.1800 
    102 C         -6.7019  -17.7017  -51.1480 C.2       18 UNK         0.5000 
    103 O         -7.1810  -16.6988  -51.6780 O.2       18 UNK        -0.5000 
    104 N         -6.8512  -18.9412  -51.6309 N.am      19 UNK        -0.5000 
    105 CA        -7.4015  -19.2757  -52.9411 C.3       19 UNK         0.1400 
    106 CB        -8.1619  -20.6101  -52.8369 C.3       19 UNK        -0.1800 
    107 C         -6.2237  -19.3296  -53.9298 C.2       19 UNK         0.5000 
    108 O         -5.8137  -20.4169  -54.3348 O.2       19 UNK        -0.5000 
    109 N         -5.6671  -18.1399  -54.2031 N.am      20 UNK        -0.5000 
    110 CA        -4.3806  -17.8394  -54.8374 C.3       20 UNK         0.1400 
    111 CB        -4.3423  -16.3387  -55.1724 C.3       20 UNK        -0.1800 
    112 C         -4.0064  -18.7012  -56.0602 C.2       20 UNK         0.5000 
    113 O         -4.3582  -18.3663  -57.1935 O.2       20 UNK        -0.5000 
    114 N         -3.2752  -19.7820  -55.7855 N.am      21 UNK        -0.5000 
    115 CA        -2.6499  -20.6829  -56.7465 C.3       21 UNK         0.1400 
    116 CB        -3.3923  -22.0284  -56.7385 C.3       21 UNK        -0.1800 
    117 C         -1.1630  -20.8786  -56.4032 C.2       21 UNK         0.5000 
    118 O         -0.3502  -21.0057  -57.3192 O.2       21 UNK        -0.5000 
    119 N         -0.8310  -20.8763  -55.1014 N.am      22 UNK        -0.5000 
    120 CA         0.5291  -20.9586  -54.5360 C.3       22 UNK         0.1400 
    121 C          1.2872  -22.2937  -54.8186 C.2       22 UNK         0.5000 
    122 N          0.6117  -23.3677  -55.2094 N.am      22 UNK        -0.7600 
    123 O          2.5007  -22.3743  -54.6490 O.2       22 UNK        -0.5000 
    124 C124        1.3717  -19.6912  -54.8591 C.3       23 UNK        -0.0398 
    125 S125        0.7389  -18.2135  -53.9859 S.3       23 UNK        -0.2404 
    126 C126        2.2212  -17.6351  -53.0902 C.3       23 UNK        -0.0205 
    127 H127       -0.7702  -16.5208  -41.8066 H         1 UNK         0.0600 
    128 H128       -0.1137  -18.0678  -41.2503 H         1 UNK         0.0600 
    129 H129        0.8205  -17.0573  -42.3508 H         1 UNK         0.0600 
    130 H130        0.6567  -17.5074  -44.5406 H         1 UNK         0.3000 
    131 H131       -0.8658  -19.6782  -45.4846 H         1 UNK         0.0600 
    132 H132        1.3015  -19.0787  -46.4329 H         1 UNK         0.0800 
    133 H133        0.0837  -19.2182  -47.6624 H         1 UNK         0.0800 
    134 H134        3.1355  -17.5953  -47.2641 H         1 UNK         0.0800 
    135 H135        2.9366  -16.1876  -48.2736 H         1 UNK         0.0800 
    136 H136        2.1562  -16.4123  -50.6487 H         1 UNK         0.1150 
    137 H137        2.6754  -20.2764  -52.4526 H         1 UNK         0.1150 
    138 H138        2.9384  -19.8362  -48.2093 H         1 UNK         0.1150 
    139 H139        3.4548  -21.9652  -49.2152 H         1 UNK         0.0800 
    140 H140        3.7605  -22.0413  -50.9311 H         1 UNK         0.0800 
    141 H141       -0.3459  -21.4444  -49.4999 H         1 UNK         0.0800 
    142 H142        1.0193  -21.3882  -48.4156 H         1 UNK         0.0800 
    143 H143       -0.6697  -23.8787  -48.9036 H         1 UNK         0.0600 
    144 H144        1.8315  -23.6361  -47.6082 H         1 UNK         0.3000 
    145 H145        1.5386  -26.1317  -45.1794 H         1 UNK         0.0600 
    146 H146        1.9213  -27.5786  -47.1843 H         1 UNK         0.0600 
    147 H147        3.4271  -27.2424  -46.3458 H         1 UNK         0.0600 
    148 H148        3.0406  -26.3905  -47.8419 H         1 UNK         0.0600 
    149 H149        3.8259  -24.7627  -46.1161 H         1 UNK         0.3000 
    150 H150        4.6217  -22.9897  -44.4177 H         1 UNK         0.0600 
    151 H151        3.1734  -21.4766  -46.6809 H         1 UNK         0.0600 
    152 H152        4.4550  -22.6613  -46.9113 H         1 UNK         0.0600 
    153 H153        4.8169  -21.1255  -46.1556 H         1 UNK         0.0600 
    154 H154        2.2761  -21.6004  -43.6947 H         1 UNK         0.3000 
    155 H155        2.1373  -19.5031  -42.8033 H         1 UNK         0.0600 
    156 H156        4.2865  -20.0045  -40.6729 H         1 UNK         0.0600 
    157 H157        2.8465  -20.9835  -40.9272 H         1 UNK         0.0600 
    158 H158        2.6859  -19.3204  -40.3851 H         1 UNK         0.0600 
    159 H159        4.3474  -17.8625  -41.8605 H         1 UNK         0.3000 
    160 H160        4.8794  -15.9233  -42.7603 H         1 UNK         0.0600 
    161 H161        4.1229  -15.5558  -45.7113 H         1 UNK         0.0600 
    162 H162        5.5673  -16.3743  -45.1292 H         1 UNK         0.0600 
    163 H163        5.3567  -14.6553  -44.8302 H         1 UNK         0.0600 
    164 H164        2.8269  -14.3457  -44.0640 H         1 UNK         0.3000 
    165 H165        0.4853  -14.1925  -41.6577 H         1 UNK         0.0600 
    166 H166        1.9661  -12.9597  -40.0703 H         1 UNK         0.0600 
    167 H167        2.6045  -11.9940  -41.3950 H         1 UNK         0.0600 
    168 H168        0.9076  -11.8568  -40.9311 H         1 UNK         0.0600 
    169 H169        1.1819  -12.0764  -43.4054 H         1 UNK         0.3000 
    170 H170        0.7101  -11.9610  -45.5563 H         1 UNK         0.0600 
    171 H171       -0.1338  -12.8621  -47.7060 H         1 UNK         0.0600 
    172 H172       -0.5943  -14.3695  -46.9193 H         1 UNK         0.0600 
    173 H173        1.1025  -13.9159  -47.0352 H         1 UNK         0.0600 
    174 H174       -2.0264  -12.9882  -44.9931 H         1 UNK         0.3000 
    175 H175       -3.3564   -9.9886  -44.6335 H         1 UNK         0.0600 
    176 H176       -3.2389   -9.1223  -46.9489 H         1 UNK         0.0600 
    177 H177       -3.6697  -10.7002  -47.5985 H         1 UNK         0.0600 
    178 H178       -4.8345   -9.7841  -46.6426 H         1 UNK         0.0600 
    179 H179       -4.2315  -12.5166  -45.9586 H         1 UNK         0.3000 
    180 H180       -5.2707  -13.9551  -42.9530 H         1 UNK         0.0600 
    181 H181       -7.1708  -12.8273  -45.0788 H         1 UNK         0.0600 
    182 H182       -7.2762  -12.5129  -43.3510 H         1 UNK         0.0600 
    183 H183       -7.5287  -14.1411  -43.9567 H         1 UNK         0.0600 
    184 H184       -5.7580  -14.8283  -45.5789 H         1 UNK         0.3000 
    185 H185       -4.4229  -16.8537  -46.0505 H         1 UNK         0.0600 
    186 H186       -3.3501  -16.2285  -48.2767 H         1 UNK         0.0600 
    187 H187       -4.5444  -15.0513  -47.7603 H         1 UNK         0.0600 
    188 H188       -2.8309  -14.7004  -47.5767 H         1 UNK         0.0600 
    189 H189       -1.6903  -16.2942  -45.2763 H         1 UNK         0.3000 
    190 H190        0.0020  -22.8734  -45.6070 H         1 UNK         0.3000 
    191 H191       -2.4406  -21.3498  -45.2200 H         1 UNK         0.0600 
    192 H192       -0.3709  -21.1630  -43.7385 H         1 UNK         0.0600 
    193 H193       -1.8474  -21.5017  -42.8490 H         1 UNK         0.0600 
    194 H194       -0.6915  -22.7889  -43.1478 H         1 UNK         0.0600 
    195 H195       -1.4496  -24.7601  -44.8899 H         1 UNK         0.3000 
    196 H196       -3.9541  -25.6409  -43.6960 H         1 UNK         0.0600 
    197 H197       -2.9394  -27.8969  -43.9490 H         1 UNK         0.0600 
    198 H198       -1.8091  -26.7880  -43.1882 H         1 UNK         0.0600 
    199 H199       -1.6112  -27.2242  -44.8847 H         1 UNK         0.0600 
    200 H200       -2.4244  -25.7420  -46.9287 H         1 UNK         0.3000 
    201 H201       -4.6233  -27.0974  -48.2249 H         1 UNK         0.0600 
    202 H202       -3.3293  -26.5819  -50.2848 H         1 UNK         0.0600 
    203 H203       -2.2678  -27.2132  -49.0352 H         1 UNK         0.0600 
    204 H204       -2.2874  -25.4872  -49.3868 H         1 UNK         0.0600 
    205 H205       -4.0660  -23.7952  -47.3703 H         1 UNK         0.3000 
    206 H206       -5.0144  -21.8416  -47.6828 H         1 UNK         0.0600 
    207 H207       -7.2023  -22.9882  -47.2211 H         1 UNK         0.0600 
    208 H208       -7.3766  -21.6076  -48.2915 H         1 UNK         0.0600 
    209 H209       -7.4285  -23.2332  -48.9532 H         1 UNK         0.0600 
    210 H210       -3.3040  -23.1012  -49.7089 H         1 UNK         0.3000 
    211 H211       -4.2010  -22.5089  -52.3496 H         1 UNK         0.0600 
    212 H212       -1.8743  -23.1858  -52.9770 H         1 UNK         0.0600 
    213 H213       -2.5882  -24.3206  -51.8438 H         1 UNK         0.0600 
    214 H214       -1.3978  -23.1461  -51.2856 H         1 UNK         0.0600 
    215 H215       -2.6775  -20.4299  -50.0029 H         1 UNK         0.3000 
    216 H216       -1.8900  -18.4536  -52.0976 H         1 UNK         0.0600 
    217 H217       -0.3119  -18.8886  -50.2137 H         1 UNK         0.0600 
    218 H218       -1.5468  -18.3449  -49.0761 H         1 UNK         0.0600 
    219 H219       -0.8743  -17.2245  -50.2481 H         1 UNK         0.0600 
    220 H220       -4.4050  -19.1378  -49.7110 H         1 UNK         0.3000 
    221 H221       -5.6139  -16.4962  -49.7478 H         1 UNK         0.0600 
    222 H222       -6.6831  -19.1922  -48.7486 H         1 UNK         0.0600 
    223 H223       -5.8310  -17.9968  -47.7763 H         1 UNK         0.0600 
    224 H224       -7.4101  -17.6190  -48.4495 H         1 UNK         0.0600 
    225 H225       -6.3993  -19.7133  -51.1427 H         1 UNK         0.3000 
    226 H226       -8.1030  -18.5082  -53.2748 H         1 UNK         0.0600 
    227 H227       -8.9922  -20.5341  -52.1347 H         1 UNK         0.0600 
    228 H228       -8.5764  -20.8986  -53.8034 H         1 UNK         0.0600 
    229 H229       -7.5151  -21.4212  -52.4997 H         1 UNK         0.0600 
    230 H230       -6.1190  -17.3375  -53.7862 H         1 UNK         0.3000 
    231 H231       -3.6168  -18.0104  -54.0769 H         1 UNK         0.0600 
    232 H232       -5.1433  -16.0587  -55.8577 H         1 UNK         0.0600 
    233 H233       -3.3961  -16.0659  -55.6416 H         1 UNK         0.0600 
    234 H234       -4.4421  -15.7317  -54.2721 H         1 UNK         0.0600 
    235 H235       -3.1211  -20.0042  -54.8034 H         1 UNK         0.3000 
    236 H236       -2.7029  -20.2574  -57.7508 H         1 UNK         0.0600 
    237 H237       -2.9410  -22.7298  -57.4413 H         1 UNK         0.0600 
    238 H238       -3.3763  -22.4903  -55.7504 H         1 UNK         0.0600 
    239 H239       -4.4355  -21.9005  -57.0278 H         1 UNK         0.0600 
    240 H240       -1.5684  -20.7708  -54.4106 H         1 UNK         0.3000 
    241 H241        0.3845  -20.9793  -53.4548 H         1 UNK         0.0600 
    242 H242       -0.3829  -23.3222  -55.3574 H         1 UNK         0.3800 
    243 H243        1.1067  -24.2289  -55.3788 H         1 UNK         0.3800 
    244 H244        2.4208  -19.8317  -54.6013 H         1 UNK         0.0800 
    245 H245        1.3712  -19.4888  -55.9304 H         1 UNK         0.0800 
    246 H246        3.1174  -17.8121  -53.6861 H         1 UNK         0.0800 
    247 H247        2.1441  -16.5514  -52.9913 H         1 UNK         0.0800 
@<TRIPOS>BOND
     1    1    2 1    
     2    1  127 1    
     3    1  128 1    
     4    1  129 1    
     5    2    3 2    
     6    2    4 am   BACKBONE|DICT|INTERRES
     7    4    5 1    
     8    4  130 1    
     9    5    6 1    
    10    5   65 1    
    11    5  131 1    
    12    6    7 1    
    13    6  132 1    
    14    6  133 1    
    15    7    8 1    
    16    8    9 1    
    17    8  134 1    
    18    8  135 1    
    19    9   10 ar   
    20    9   14 ar   
    21   10   11 ar   
    22   10  136 1    
    23   11   12 ar   
    24   11  126 1    
    25   12   13 ar   
    26   12  137 1    
    27   13   14 ar   
    28   13   15 1    
    29   14  138 1    
    30   15   16 1    
    31   15  139 1    
    32   15  140 1    
    33   16   17 1    
    34   17   18 1    
    35   17  141 1    
    36   17  142 1    
    37   18   19 1    
    38   18   67 1    
    39   18  143 1    
    40   19   20 am   BACKBONE|DICT|INTERRES
    41   19  144 1    
    42   20   21 2    
    43   20   22 1    
    44   22   23 1    
    45   22   24 1    
    46   22  145 1    
    47   23  146 1    
    48   23  147 1    
    49   23  148 1    
    50   24   25 am   BACKBONE|DICT|INTERRES
    51   24  149 1    
    52   25   26 2    
    53   25   27 1    
    54   27   28 1    
    55   27   29 1    
    56   27  150 1    
    57   28  151 1    
    58   28  152 1    
    59   28  153 1    
    60   29   30 am   BACKBONE|DICT|INTERRES
    61   29  154 1    
    62   30   31 2    
    63   30   32 1    
    64   32   33 1    
    65   32   34 1    
    66   32  155 1    
    67   33  156 1    
    68   33  157 1    
    69   33  158 1    
    70   34   35 am   BACKBONE|DICT|INTERRES
    71   34  159 1    
    72   35   36 2    
    73   35   37 1    
    74   37   38 1    
    75   37   39 1    
    76   37  160 1    
    77   38  161 1    
    78   38  162 1    
    79   38  163 1    
    80   39   40 am   BACKBONE|DICT|INTERRES
    81   39  164 1    
    82   40   41 2    
    83   40   42 1    
    84   42   43 1    
    85   42   44 1    
    86   42  165 1    
    87   43  166 1    
    88   43  167 1    
    89   43  168 1    
    90   44   45 am   BACKBONE|DICT|INTERRES
    91   44  169 1    
    92   45   46 2    
    93   45   47 1    
    94   47   48 1    
    95   47   49 1    
    96   47  170 1    
    97   48  171 1    
    98   48  172 1    
    99   48  173 1    
   100   49   50 am   BACKBONE|DICT|INTERRES
   101   49  174 1    
   102   50   51 2    
   103   50   52 1    
   104   52   53 1    
   105   52   54 1    
   106   52  175 1    
   107   53  176 1    
   108   53  177 1    
   109   53  178 1    
   110   54   55 am   BACKBONE|DICT|INTERRES
   111   54  179 1    
   112   55   56 2    
   113   55   57 1    
   114   57   58 1    
   115   57   59 1    
   116   57  180 1    
   117   58  181 1    
   118   58  182 1    
   119   58  183 1    
   120   59   60 am   BACKBONE|DICT|INTERRES
   121   59  184 1    
   122   60   61 2    
   123   60   62 1    
   124   62   63 1    
   125   62   64 1    
   126   62  185 1    
   127   63  186 1    
   128   63  187 1    
   129   63  188 1    
   130   64   65 am   BACKBONE|DICT|INTERRES
   131   64  189 1    
   132   65   66 2    
   133   67   68 2    
   134   67   69 am   BACKBONE|DICT|INTERRES
   135   69   70 1    
   136   69  190 1    
   137   70   71 1    
   138   70   72 1    
   139   70  191 1    
   140   71  192 1    
   141   71  193 1    
   142   71  194 1    
   143   72   73 2    
   144   72   74 am   BACKBONE|DICT|INTERRES
   145   74   75 1    
   146   74  195 1    
   147   75   76 1    
   148   75   77 1    
   149   75  196 1    
   150   76  197 1    
   151   76  198 1    
   152   76  199 1    
   153   77   78 2    
   154   77   79 am   BACKBONE|DICT|INTERRES
   155   79   80 1    
   156   79  200 1    
   157   80   81 1    
   158   80   82 1    
   159   80  201 1    
   160   81  202 1    
   161   81  203 1    
   162   81  204 1    
   163   82   83 2    
   164   82   84 am   BACKBONE|DICT|INTERRES
   165   84   85 1    
   166   84  205 1    
   167   85   86 1    
   168   85   87 1    
   169   85  206 1    
   170   86  207 1    
   171   86  208 1    
   172   86  209 1    
   173   87   88 2    
   174   87   89 am   BACKBONE|DICT|INTERRES
   175   89   90 1    
   176   89  210 1    
   177   90   91 1    
   178   90   92 1    
   179   90  211 1    
   180   91  212 1    
   181   91  213 1    
   182   91  214 1    
   183   92   93 2    
   184   92   94 am   BACKBONE|DICT|INTERRES
   185   94   95 1    
   186   94  215 1    
   187   95   96 1    
   188   95   97 1    
   189   95  216 1    
   190   96  217 1    
   191   96  218 1    
   192   96  219 1    
   193   97   98 2    
   194   97   99 am   BACKBONE|DICT|INTERRES
   195   99  100 1    
   196   99  220 1    
   197  100  101 1    
   198  100  102 1    
   199  100  221 1    
   200  101  222 1    
   201  101  223 1    
   202  101  224 1    
   203  102  103 2    
   204  102  104 am   BACKBONE|DICT|INTERRES
   205  104  105 1    
   206  104  225 1    
   207  105  106 1    
   208  105  107 1    
   209  105  226 1    
   210  106  227 1    
   211  106  228 1    
   212  106  229 1    
   213  107  108 2    
   214  107  109 am   BACKBONE|DICT|INTERRES
   215  109  110 1    
   216  109  230 1    
   217  110  111 1    
   218  110  112 1    
   219  110  231 1    
   220  111  232 1    
   221  111  233 1    
   222  111  234 1    
   223  112  113 2    
   224  112  114 am   BACKBONE|DICT|INTERRES
   225  114  115 1    
   226  114  235 1    
   227  115  116 1    
   228  115  117 1    
   229  115  236 1    
   230  116  237 1    
   231  116  238 1    
   232  116  239 1    
   233  117  118 2    
   234  117  119 am   BACKBONE|DICT|INTERRES
   235  119  120 1    
   236  119  240 1    
   237  120  121 1    
   238  120  124 1    
   239  120  241 1    
   240  121  122 am   BACKBONE|DICT|INTERRES
   241  121  123 2    
   242  122  242 1    
   243  122  243 1    
   244  124  125 1    
   245  124  244 1    
   246  124  245 1    
   247  125  126 1    
   248  126  246 1    
   249  126  247 1    
@<TRIPOS>SUBSTRUCTURE
     1 UNK         1 GROUP             0       ****    0 ROOT    
