@<TRIPOS>MOLECULE
3R540
247   249    1
SMALL
USER_CHARGES


@<TRIPOS>ATOM
      1 CA         -0.2320  -11.8800  -52.0047 C.3       0 UNK        -0.1800 
      2 C          -0.2386  -12.2851  -50.5383 C.2       0 UNK         0.5000 
      3 O           0.5096  -13.1805  -50.1461 O.2       0 UNK        -0.5000 
      4 N          -1.0715  -11.6275  -49.7222 N.am      1 UNK        -0.5000 
      5 CA         -1.2799  -11.9062  -48.2940 C.3       1 UNK         0.1400 
      6 C6         -2.6750  -11.4359  -47.8019 C.3       23 UNK        -0.0398 
      7 S7         -4.0692  -12.0597  -48.8038 S.3       23 UNK        -0.2404 
      8 C8         -4.6362  -13.5027  -47.8337 C.3       23 UNK        -0.0205 
      9 C9         -3.8989  -14.8220  -48.0810 C.ar      23 UNK        -0.0193 
     10 C10        -2.9522  -14.9932  -49.1008 C.ar      23 UNK        -0.1150 
     11 C11        -2.3361  -16.2301  -49.3072 C.ar      23 UNK        -0.0193 
     12 C12        -2.6770  -17.3138  -48.4954 C.ar      23 UNK        -0.1150 
     13 C13        -3.6373  -17.1679  -47.4914 C.ar      23 UNK        -0.0193 
     14 C14        -4.2314  -15.9207  -47.2812 C.ar      23 UNK        -0.1150 
     15 C15        -4.0620  -18.3708  -46.6679 C.3       23 UNK        -0.0205 
     16 S16        -3.0279  -18.5651  -45.1953 S.3       23 UNK        -0.2404 
     17 C17        -3.4795  -20.2424  -44.6404 C.3       23 UNK        -0.0398 
     18 CA         -3.0085  -21.3788  -45.5885 C.3       11 UNK         0.1400 
     19 N          -1.6171  -21.2336  -46.0076 N.am      11 UNK        -0.5000 
     20 C          -1.1327  -21.6660  -47.1767 C.2       10 UNK         0.5000 
     21 O          -1.8181  -22.2068  -48.0417 O.2       10 UNK        -0.5000 
     22 CA          0.3829  -21.5062  -47.3954 C.3       10 UNK         0.1400 
     23 CB          0.6990  -20.1099  -47.9471 C.3       10 UNK        -0.1800 
     24 N           1.1518  -21.7627  -46.1758 N.am      10 UNK        -0.5000 
     25 C           1.1434  -22.9321  -45.5170 C.2       9 UNK         0.5000 
     26 O           0.5307  -23.9292  -45.9042 O.2       9 UNK        -0.5000 
     27 CA          1.8973  -22.9940  -44.1756 C.3       9 UNK         0.1400 
     28 CB          3.3138  -23.5466  -44.3875 C.3       9 UNK        -0.1800 
     29 N           1.9797  -21.7193  -43.4534 N.am      9 UNK        -0.5000 
     30 C           0.9427  -20.9624  -43.0660 C.2       8 UNK         0.5000 
     31 O          -0.2326  -21.2351  -43.3307 O.2       8 UNK        -0.5000 
     32 CA          1.2816  -19.7018  -42.2477 C.3       8 UNK         0.1400 
     33 CB          2.5228  -18.9639  -42.7849 C.3       8 UNK        -0.1800 
     34 N           0.1457  -18.7855  -42.2717 N.am      8 UNK        -0.5000 
     35 C          -0.5964  -18.4326  -41.2148 C.2       7 UNK         0.5000 
     36 O          -0.3627  -18.8089  -40.0645 O.2       7 UNK        -0.5000 
     37 CA         -1.8214  -17.5296  -41.4849 C.3       7 UNK         0.1400 
     38 CB         -2.1367  -16.5769  -40.3125 C.3       7 UNK        -0.1800 
     39 N          -1.7508  -16.8032  -42.7574 N.am      7 UNK        -0.5000 
     40 C          -0.8856  -15.8430  -43.1083 C.2       6 UNK         0.5000 
     41 O          -0.0390  -15.3521  -42.3595 O.2       6 UNK        -0.5000 
     42 CA         -0.9743  -15.3752  -44.5709 C.3       6 UNK         0.1400 
     43 CB         -1.2860  -13.8741  -44.6636 C.3       6 UNK        -0.1800 
     44 N           0.2555  -15.6620  -45.3035 N.am      6 UNK        -0.5000 
     45 C           0.7511  -16.8830  -45.5448 C.2       5 UNK         0.5000 
     46 O           0.2473  -17.9260  -45.1272 O.2       5 UNK        -0.5000 
     47 CA          2.0295  -16.9521  -46.3918 C.3       5 UNK         0.1400 
     48 CB          1.7465  -16.5244  -47.8423 C.3       5 UNK        -0.1800 
     49 N           3.0707  -16.0953  -45.8310 N.am      5 UNK        -0.5000 
     50 C           4.2420  -16.5221  -45.3390 C.2       4 UNK         0.5000 
     51 O           4.5835  -17.7050  -45.3167 O.2       4 UNK        -0.5000 
     52 CA          5.2171  -15.4567  -44.7929 C.3       4 UNK         0.1400 
     53 CB          6.3450  -15.1964  -45.8037 C.3       4 UNK        -0.1800 
     54 N           4.5699  -14.1830  -44.4787 N.am      4 UNK        -0.5000 
     55 C           3.7598  -13.9716  -43.4331 C.2       3 UNK         0.5000 
     56 O           3.5662  -14.8028  -42.5463 O.2       3 UNK        -0.5000 
     57 CA          3.0297  -12.6117  -43.3754 C.3       3 UNK         0.1400 
     58 CB          3.6843  -11.6955  -42.3299 C.3       3 UNK        -0.1800 
     59 N           2.9520  -11.8897  -44.6545 N.am      3 UNK        -0.5000 
     60 C           2.3422  -12.3392  -45.7587 C.2       2 UNK         0.5000 
     61 O           1.8608  -13.4694  -45.8570 O.2       2 UNK        -0.5000 
     62 CA          2.3055  -11.3986  -46.9743 C.3       2 UNK         0.1400 
     63 CB          3.5471  -11.6152  -47.8523 C.3       2 UNK        -0.1800 
     64 N           1.1118  -11.6567  -47.7766 N.am      2 UNK        -0.5000 
     65 C          -0.1373  -11.3433  -47.4144 C.2       1 UNK         0.5000 
     66 O          -0.3954  -10.6434  -46.4329 O.2       1 UNK        -0.5000 
     67 C          -3.2196  -22.7499  -44.9245 C.2       11 UNK         0.5000 
     68 O          -4.1627  -23.4603  -45.2735 O.2       11 UNK        -0.5000 
     69 N          -2.3468  -23.0769  -43.9614 N.am      12 UNK        -0.5000 
     70 CA         -2.5162  -24.1958  -43.0368 C.3       12 UNK         0.1400 
     71 CB         -1.5686  -24.0056  -41.8423 C.3       12 UNK        -0.1800 
     72 C          -2.3183  -25.5851  -43.6656 C.2       12 UNK         0.5000 
     73 O          -3.0166  -26.5187  -43.2673 O.2       12 UNK        -0.5000 
     74 N          -1.3715  -25.7096  -44.6045 N.am      13 UNK        -0.5000 
     75 CA         -0.9931  -26.9837  -45.2169 C.3       13 UNK         0.1400 
     76 CB          0.5065  -27.2377  -44.9874 C.3       13 UNK        -0.1800 
     77 C          -1.3291  -27.0116  -46.7133 C.2       13 UNK         0.5000 
     78 O          -1.9105  -27.9913  -47.1813 O.2       13 UNK        -0.5000 
     79 N          -0.9585  -25.9499  -47.4420 N.am      14 UNK        -0.5000 
     80 CA         -1.0954  -25.8817  -48.9005 C.3       14 UNK         0.1400 
     81 CB         -0.0041  -24.9672  -49.4654 C.3       14 UNK        -0.1800 
     82 C          -2.4980  -25.4642  -49.3897 C.2       14 UNK         0.5000 
     83 O          -2.7518  -25.5613  -50.5885 O.2       14 UNK        -0.5000 
     84 N          -3.3830  -25.0565  -48.4685 N.am      15 UNK        -0.5000 
     85 CA         -4.8133  -24.7887  -48.6661 C.3       15 UNK         0.1400 
     86 CB         -5.5529  -26.0414  -49.1848 C.3       15 UNK        -0.1800 
     87 C          -5.1462  -23.5079  -49.4643 C.2       15 UNK         0.5000 
     88 O          -6.1781  -23.4574  -50.1377 O.2       15 UNK        -0.5000 
     89 N          -4.3198  -22.4666  -49.2967 N.am      16 UNK        -0.5000 
     90 CA         -4.5653  -21.0710  -49.6761 C.3       16 UNK         0.1400 
     91 CB         -5.7965  -20.5279  -48.9118 C.3       16 UNK        -0.1800 
     92 C          -4.6621  -20.8148  -51.1951 C.2       16 UNK         0.5000 
     93 O          -4.2785  -21.6575  -52.0105 O.2       16 UNK        -0.5000 
     94 N          -5.1572  -19.6206  -51.5508 N.am      17 UNK        -0.5000 
     95 CA         -5.3230  -19.1266  -52.9201 C.3       17 UNK         0.1400 
     96 CB         -5.8409  -17.6814  -52.8695 C.3       17 UNK        -0.1800 
     97 C          -6.2510  -19.9956  -53.7895 C.2       17 UNK         0.5000 
     98 O          -6.0559  -20.0556  -55.0029 O.2       17 UNK        -0.5000 
     99 N          -7.2013  -20.6962  -53.1541 N.am      18 UNK        -0.5000 
    100 CA        -8.0947  -21.6741  -53.7812 C.3       18 UNK         0.1400 
    101 CB        -9.1322  -22.1340  -52.7458 C.3       18 UNK        -0.1800 
    102 C         -7.3534  -22.8894  -54.3761 C.2       18 UNK         0.5000 
    103 O         -7.8263  -23.4664  -55.3557 O.2       18 UNK        -0.5000 
    104 N         -6.1990  -23.2334  -53.7918 N.am      19 UNK        -0.5000 
    105 CA        -5.2863  -24.2774  -54.2561 C.3       19 UNK         0.1400 
    106 CB        -4.8957  -25.1334  -53.0445 C.3       19 UNK        -0.1800 
    107 C         -4.0374  -23.6849  -54.9433 C.2       19 UNK         0.5000 
    108 O         -3.1148  -24.4345  -55.2656 O.2       19 UNK        -0.5000 
    109 N         -4.0256  -22.3586  -55.1521 N.am      20 UNK        -0.5000 
    110 CA        -2.9528  -21.5472  -55.7348 C.3       20 UNK         0.1400 
    111 CB        -2.7315  -21.9106  -57.2179 C.3       20 UNK        -0.1800 
    112 C         -1.6470  -21.5559  -54.9100 C.2       20 UNK         0.5000 
    113 O         -0.5633  -21.4004  -55.4779 O.2       20 UNK        -0.5000 
    114 N         -1.7629  -21.6971  -53.5792 N.am      21 UNK        -0.5000 
    115 CA        -0.6340  -21.7459  -52.6406 C.3       21 UNK         0.1400 
    116 CB        -1.1548  -22.0638  -51.2347 C.3       21 UNK        -0.1800 
    117 C          0.2062  -20.4554  -52.5929 C.2       21 UNK         0.5000 
    118 O          1.3743  -20.5051  -52.2067 O.2       21 UNK        -0.5000 
    119 N         -0.4027  -19.3316  -52.9877 N.am      22 UNK        -0.5000 
    120 CA         0.2343  -18.0118  -53.0937 C.3       22 UNK         0.1400 
    121 C          1.2563  -17.8819  -54.2635 C.2       22 UNK         0.5000 
    122 N          1.3200  -18.8173  -55.2057 N.am      22 UNK        -0.7600 
    123 O          2.0069  -16.9118  -54.3158 O.2       22 UNK        -0.5000 
    124 C124       -0.8099  -16.8655  -53.1605 C.3       23 UNK        -0.0398 
    125 S125       -2.1554  -17.0015  -51.9346 S.3       23 UNK        -0.2404 
    126 C126       -1.3306  -16.4013  -50.4327 C.3       23 UNK        -0.0205 
    127 H127       -0.9446  -11.0803  -52.2077 H         1 UNK         0.0600 
    128 H128       -0.4926  -12.7347  -52.6291 H         1 UNK         0.0600 
    129 H129        0.7604  -11.5345  -52.2939 H         1 UNK         0.0600 
    130 H130       -1.6469  -10.8892  -50.1018 H         1 UNK         0.3000 
    131 H131       -1.2429  -12.9882  -48.1569 H         1 UNK         0.0600 
    132 H132       -2.8303  -11.7238  -46.7610 H         1 UNK         0.0800 
    133 H133       -2.7291  -10.3459  -47.8194 H         1 UNK         0.0800 
    134 H134       -5.6880  -13.6635  -48.0740 H         1 UNK         0.0800 
    135 H135       -4.6044  -13.2602  -46.7706 H         1 UNK         0.0800 
    136 H136       -2.6953  -14.1761  -49.7577 H         1 UNK         0.1150 
    137 H137       -2.2135  -18.2761  -48.6623 H         1 UNK         0.1150 
    138 H138       -4.9762  -15.8116  -46.5051 H         1 UNK         0.1150 
    139 H139       -3.9721  -19.2630  -47.2821 H         1 UNK         0.0800 
    140 H140       -5.1105  -18.2905  -46.3768 H         1 UNK         0.0800 
    141 H141       -3.0431  -20.3641  -43.6470 H         1 UNK         0.0800 
    142 H142       -4.5614  -20.2859  -44.5031 H         1 UNK         0.0800 
    143 H143       -3.6464  -21.3564  -46.4734 H         1 UNK         0.0600 
    144 H144       -0.9833  -20.8335  -45.3268 H         1 UNK         0.3000 
    145 H145        0.7102  -22.2312  -48.1383 H         1 UNK         0.0600 
    146 H146        0.2409  -19.9691  -48.9272 H         1 UNK         0.0600 
    147 H147        1.7719  -19.9581  -48.0653 H         1 UNK         0.0600 
    148 H148        0.3112  -19.3286  -47.2963 H         1 UNK         0.0600 
    149 H149        1.6629  -20.9880  -45.7801 H         1 UNK         0.3000 
    150 H150        1.3559  -23.6947  -43.5383 H         1 UNK         0.0600 
    151 H151        3.9233  -22.8711  -44.9891 H         1 UNK         0.0600 
    152 H152        3.2855  -24.5090  -44.9008 H         1 UNK         0.0600 
    153 H153        3.8233  -23.7036  -43.4366 H         1 UNK         0.0600 
    154 H154        2.9094  -21.4168  -43.2014 H         1 UNK         0.3000 
    155 H155        1.4903  -20.0283  -41.2275 H         1 UNK         0.0600 
    156 H156        2.6446  -17.9925  -42.3044 H         1 UNK         0.0600 
    157 H157        2.4579  -18.7939  -43.8590 H         1 UNK         0.0600 
    158 H158        3.4362  -19.5283  -42.5962 H         1 UNK         0.0600 
    159 H159       -0.1255  -18.4619  -43.1952 H         1 UNK         0.3000 
    160 H160       -2.6680  -18.2102  -41.5846 H         1 UNK         0.0600 
    161 H161       -1.2970  -15.9198  -40.0855 H         1 UNK         0.0600 
    162 H162       -2.3653  -17.1364  -39.4048 H         1 UNK         0.0600 
    163 H163       -3.0026  -15.9526  -40.5329 H         1 UNK         0.0600 
    164 H164       -2.3611  -17.1637  -43.4811 H         1 UNK         0.3000 
    165 H165       -1.7842  -15.9080  -45.0717 H         1 UNK         0.0600 
    166 H166       -1.4267  -13.5707  -45.6999 H         1 UNK         0.0600 
    167 H167       -2.2034  -13.6312  -44.1264 H         1 UNK         0.0600 
    168 H168       -0.4843  -13.2673  -44.2406 H         1 UNK         0.0600 
    169 H169        0.7809  -14.8503  -45.6209 H         1 UNK         0.3000 
    170 H170        2.3547  -17.9941  -46.4064 H         1 UNK         0.0600 
    171 H171        2.6264  -16.6632  -48.4703 H         1 UNK         0.0600 
    172 H172        1.4510  -15.4763  -47.9102 H         1 UNK         0.0600 
    173 H173        0.9418  -17.1192  -48.2738 H         1 UNK         0.0600 
    174 H174        2.8481  -15.1061  -45.7785 H         1 UNK         0.3000 
    175 H175        5.6612  -15.8552  -43.8784 H         1 UNK         0.0600 
    176 H176        6.8766  -16.1184  -46.0426 H         1 UNK         0.0600 
    177 H177        5.9604  -14.7875  -46.7390 H         1 UNK         0.0600 
    178 H178        7.0781  -14.4946  -45.4055 H         1 UNK         0.0600 
    179 H179        4.6823  -13.4388  -45.1506 H         1 UNK         0.3000 
    180 H180        2.0061  -12.8183  -43.0550 H         1 UNK         0.0600 
    181 H181        4.7036  -11.4288  -42.6121 H         1 UNK         0.0600 
    182 H182        3.7305  -12.1833  -41.3552 H         1 UNK         0.0600 
    183 H183        3.1173  -10.7733  -42.2019 H         1 UNK         0.0600 
    184 H184        3.3467  -10.9600  -44.6620 H         1 UNK         0.3000 
    185 H185        2.2854  -10.3628  -46.6292 H         1 UNK         0.0600 
    186 H186        4.4625  -11.4072  -47.2969 H         1 UNK         0.0600 
    187 H187        3.6084  -12.6420  -48.2162 H         1 UNK         0.0600 
    188 H188        3.5364  -10.9538  -48.7189 H         1 UNK         0.0600 
    189 H189        1.2213  -12.2655  -48.5820 H         1 UNK         0.3000 
    190 H190       -1.5879  -22.4317  -43.7523 H         1 UNK         0.3000 
    191 H191       -3.5393  -24.1566  -42.6564 H         1 UNK         0.0600 
    192 H192       -1.7549  -23.0571  -41.3379 H         1 UNK         0.0600 
    193 H193       -1.7040  -24.7980  -41.1051 H         1 UNK         0.0600 
    194 H194       -0.5236  -24.0195  -42.1504 H         1 UNK         0.0600 
    195 H195       -0.8517  -24.8919  -44.9053 H         1 UNK         0.3000 
    196 H196       -1.5339  -27.8115  -44.7536 H         1 UNK         0.0600 
    197 H197        0.8083  -28.1952  -45.4136 H         1 UNK         0.0600 
    198 H198        0.7404  -27.2679  -43.9232 H         1 UNK         0.0600 
    199 H199        1.1288  -26.4675  -45.4432 H         1 UNK         0.0600 
    200 H200       -0.4657  -25.1854  -46.9889 H         1 UNK         0.3000 
    201 H201       -0.9133  -26.8781  -49.3092 H         1 UNK         0.0600 
    202 H202       -0.0292  -24.9479  -50.5556 H         1 UNK         0.0600 
    203 H203        0.9900  -25.2988  -49.1653 H         1 UNK         0.0600 
    204 H204       -0.1409  -23.9508  -49.1153 H         1 UNK         0.0600 
    205 H205       -3.0534  -24.9779  -47.5171 H         1 UNK         0.3000 
    206 H206       -5.2005  -24.5965  -47.6647 H         1 UNK         0.0600 
    207 H207       -5.3329  -26.9127  -48.5678 H         1 UNK         0.0600 
    208 H208       -6.6334  -25.8958  -49.1632 H         1 UNK         0.0600 
    209 H209       -5.2785  -26.2794  -50.2122 H         1 UNK         0.0600 
    210 H210       -3.4459  -22.6192  -48.7969 H         1 UNK         0.3000 
    211 H211       -3.6885  -20.5194  -49.3357 H         1 UNK         0.0600 
    212 H212       -6.7300  -20.9174  -49.3200 H         1 UNK         0.0600 
    213 H213       -5.8502  -19.4396  -48.9531 H         1 UNK         0.0600 
    214 H214       -5.7621  -20.8036  -47.8578 H         1 UNK         0.0600 
    215 H215       -5.4329  -18.9811  -50.8201 H         1 UNK         0.3000 
    216 H216       -4.3375  -19.1236  -53.3904 H         1 UNK         0.0600 
    217 H217       -5.9264  -17.2621  -53.8729 H         1 UNK         0.0600 
    218 H218       -6.8255  -17.6229  -52.4039 H         1 UNK         0.0600 
    219 H219       -5.1666  -17.0362  -52.3066 H         1 UNK         0.0600 
    220 H220       -7.2780  -20.5941  -52.1529 H         1 UNK         0.3000 
    221 H221       -8.6193  -21.1743  -54.5981 H         1 UNK         0.0600 
    222 H222       -8.6580  -22.6196  -51.8915 H         1 UNK         0.0600 
    223 H223       -9.7183  -21.2938  -52.3731 H         1 UNK         0.0600 
    224 H224       -9.8311  -22.8481  -53.1834 H         1 UNK         0.0600 
    225 H225       -5.8741  -22.7005  -52.9921 H         1 UNK         0.3000 
    226 H226       -5.7797  -24.9228  -54.9852 H         1 UNK         0.0600 
    227 H227       -4.2229  -25.9448  -53.3242 H         1 UNK         0.0600 
    228 H228       -4.3909  -24.5292  -52.2908 H         1 UNK         0.0600 
    229 H229       -5.7732  -25.5822  -52.5792 H         1 UNK         0.0600 
    230 H230       -4.8490  -21.8391  -54.8754 H         1 UNK         0.3000 
    231 H231       -3.3110  -20.5174  -55.7054 H         1 UNK         0.0600 
    232 H232       -2.3018  -22.9060  -57.3324 H         1 UNK         0.0600 
    233 H233       -2.0514  -21.2052  -57.6968 H         1 UNK         0.0600 
    234 H234       -3.6684  -21.8827  -57.7743 H         1 UNK         0.0600 
    235 H235       -2.6881  -21.8090  -53.1737 H         1 UNK         0.3000 
    236 H236        0.0236  -22.5582  -52.9561 H         1 UNK         0.0600 
    237 H237       -1.7732  -21.2568  -50.8441 H         1 UNK         0.0600 
    238 H238       -1.7442  -22.9806  -51.2202 H         1 UNK         0.0600 
    239 H239       -0.3248  -22.1900  -50.5408 H         1 UNK         0.0600 
    240 H240       -1.3699  -19.3831  -53.2674 H         1 UNK         0.3000 
    241 H241        0.8119  -17.8679  -52.1788 H         1 UNK         0.0600 
    242 H242        0.7141  -19.6279  -55.1796 H         1 UNK         0.3800 
    243 H243        1.9879  -18.7199  -55.9540 H         1 UNK         0.3800 
    244 H244       -1.2788  -16.8444  -54.1459 H         1 UNK         0.0800 
    245 H245       -0.3219  -15.8964  -53.0407 H         1 UNK         0.0800 
    246 H246       -0.5543  -17.1089  -50.1402 H         1 UNK         0.0800 
    247 H247       -0.8305  -15.4545  -50.6382 H         1 UNK         0.0800 
@<TRIPOS>BOND
     1    1    2 1    
     2    1  127 1    
     3    1  128 1    
     4    1  129 1    
     5    2    3 2    
     6    2    4 am   BACKBONE|DICT|INTERRES
     7    4    5 1    
     8    4  130 1    
     9    5    6 1    
    10    5   65 1    
    11    5  131 1    
    12    6    7 1    
    13    6  132 1    
    14    6  133 1    
    15    7    8 1    
    16    8    9 1    
    17    8  134 1    
    18    8  135 1    
    19    9   10 ar   
    20    9   14 ar   
    21   10   11 ar   
    22   10  136 1    
    23   11   12 ar   
    24   11  126 1    
    25   12   13 ar   
    26   12  137 1    
    27   13   14 ar   
    28   13   15 1    
    29   14  138 1    
    30   15   16 1    
    31   15  139 1    
    32   15  140 1    
    33   16   17 1    
    34   17   18 1    
    35   17  141 1    
    36   17  142 1    
    37   18   19 1    
    38   18   67 1    
    39   18  143 1    
    40   19   20 am   BACKBONE|DICT|INTERRES
    41   19  144 1    
    42   20   21 2    
    43   20   22 1    
    44   22   23 1    
    45   22   24 1    
    46   22  145 1    
    47   23  146 1    
    48   23  147 1    
    49   23  148 1    
    50   24   25 am   BACKBONE|DICT|INTERRES
    51   24  149 1    
    52   25   26 2    
    53   25   27 1    
    54   27   28 1    
    55   27   29 1    
    56   27  150 1    
    57   28  151 1    
    58   28  152 1    
    59   28  153 1    
    60   29   30 am   BACKBONE|DICT|INTERRES
    61   29  154 1    
    62   30   31 2    
    63   30   32 1    
    64   32   33 1    
    65   32   34 1    
    66   32  155 1    
    67   33  156 1    
    68   33  157 1    
    69   33  158 1    
    70   34   35 am   BACKBONE|DICT|INTERRES
    71   34  159 1    
    72   35   36 2    
    73   35   37 1    
    74   37   38 1    
    75   37   39 1    
    76   37  160 1    
    77   38  161 1    
    78   38  162 1    
    79   38  163 1    
    80   39   40 am   BACKBONE|DICT|INTERRES
    81   39  164 1    
    82   40   41 2    
    83   40   42 1    
    84   42   43 1    
    85   42   44 1    
    86   42  165 1    
    87   43  166 1    
    88   43  167 1    
    89   43  168 1    
    90   44   45 am   BACKBONE|DICT|INTERRES
    91   44  169 1    
    92   45   46 2    
    93   45   47 1    
    94   47   48 1    
    95   47   49 1    
    96   47  170 1    
    97   48  171 1    
    98   48  172 1    
    99   48  173 1    
   100   49   50 am   BACKBONE|DICT|INTERRES
   101   49  174 1    
   102   50   51 2    
   103   50   52 1    
   104   52   53 1    
   105   52   54 1    
   106   52  175 1    
   107   53  176 1    
   108   53  177 1    
   109   53  178 1    
   110   54   55 am   BACKBONE|DICT|INTERRES
   111   54  179 1    
   112   55   56 2    
   113   55   57 1    
   114   57   58 1    
   115   57   59 1    
   116   57  180 1    
   117   58  181 1    
   118   58  182 1    
   119   58  183 1    
   120   59   60 am   BACKBONE|DICT|INTERRES
   121   59  184 1    
   122   60   61 2    
   123   60   62 1    
   124   62   63 1    
   125   62   64 1    
   126   62  185 1    
   127   63  186 1    
   128   63  187 1    
   129   63  188 1    
   130   64   65 am   BACKBONE|DICT|INTERRES
   131   64  189 1    
   132   65   66 2    
   133   67   68 2    
   134   67   69 am   BACKBONE|DICT|INTERRES
   135   69   70 1    
   136   69  190 1    
   137   70   71 1    
   138   70   72 1    
   139   70  191 1    
   140   71  192 1    
   141   71  193 1    
   142   71  194 1    
   143   72   73 2    
   144   72   74 am   BACKBONE|DICT|INTERRES
   145   74   75 1    
   146   74  195 1    
   147   75   76 1    
   148   75   77 1    
   149   75  196 1    
   150   76  197 1    
   151   76  198 1    
   152   76  199 1    
   153   77   78 2    
   154   77   79 am   BACKBONE|DICT|INTERRES
   155   79   80 1    
   156   79  200 1    
   157   80   81 1    
   158   80   82 1    
   159   80  201 1    
   160   81  202 1    
   161   81  203 1    
   162   81  204 1    
   163   82   83 2    
   164   82   84 am   BACKBONE|DICT|INTERRES
   165   84   85 1    
   166   84  205 1    
   167   85   86 1    
   168   85   87 1    
   169   85  206 1    
   170   86  207 1    
   171   86  208 1    
   172   86  209 1    
   173   87   88 2    
   174   87   89 am   BACKBONE|DICT|INTERRES
   175   89   90 1    
   176   89  210 1    
   177   90   91 1    
   178   90   92 1    
   179   90  211 1    
   180   91  212 1    
   181   91  213 1    
   182   91  214 1    
   183   92   93 2    
   184   92   94 am   BACKBONE|DICT|INTERRES
   185   94   95 1    
   186   94  215 1    
   187   95   96 1    
   188   95   97 1    
   189   95  216 1    
   190   96  217 1    
   191   96  218 1    
   192   96  219 1    
   193   97   98 2    
   194   97   99 am   BACKBONE|DICT|INTERRES
   195   99  100 1    
   196   99  220 1    
   197  100  101 1    
   198  100  102 1    
   199  100  221 1    
   200  101  222 1    
   201  101  223 1    
   202  101  224 1    
   203  102  103 2    
   204  102  104 am   BACKBONE|DICT|INTERRES
   205  104  105 1    
   206  104  225 1    
   207  105  106 1    
   208  105  107 1    
   209  105  226 1    
   210  106  227 1    
   211  106  228 1    
   212  106  229 1    
   213  107  108 2    
   214  107  109 am   BACKBONE|DICT|INTERRES
   215  109  110 1    
   216  109  230 1    
   217  110  111 1    
   218  110  112 1    
   219  110  231 1    
   220  111  232 1    
   221  111  233 1    
   222  111  234 1    
   223  112  113 2    
   224  112  114 am   BACKBONE|DICT|INTERRES
   225  114  115 1    
   226  114  235 1    
   227  115  116 1    
   228  115  117 1    
   229  115  236 1    
   230  116  237 1    
   231  116  238 1    
   232  116  239 1    
   233  117  118 2    
   234  117  119 am   BACKBONE|DICT|INTERRES
   235  119  120 1    
   236  119  240 1    
   237  120  121 1    
   238  120  124 1    
   239  120  241 1    
   240  121  122 am   BACKBONE|DICT|INTERRES
   241  121  123 2    
   242  122  242 1    
   243  122  243 1    
   244  124  125 1    
   245  124  244 1    
   246  124  245 1    
   247  125  126 1    
   248  126  246 1    
   249  126  247 1    
@<TRIPOS>SUBSTRUCTURE
     1 UNK         1 GROUP             0       ****    0 ROOT    
