@<TRIPOS>MOLECULE
3R540
247   249    1
SMALL
USER_CHARGES


@<TRIPOS>ATOM
      1 CA          3.2398  -14.3949  -43.8501 C.3       0 UNK        -0.1800 
      2 C           2.4343  -15.2228  -44.8403 C.2       0 UNK         0.5000 
      3 O           2.0058  -16.3245  -44.4958 O.2       0 UNK        -0.5000 
      4 N           2.2305  -14.6985  -46.0529 N.am      1 UNK        -0.5000 
      5 CA          1.4062  -15.2950  -47.1071 C.3       1 UNK         0.1400 
      6 C6          2.2284  -16.0732  -48.1729 C.3       23 UNK        -0.0398 
      7 S7          3.2282  -17.4504  -47.5179 S.3       23 UNK        -0.2404 
      8 C8          4.0086  -18.0856  -49.0336 C.3       23 UNK        -0.0205 
      9 C9          3.1387  -19.1167  -49.7389 C.ar      23 UNK        -0.0193 
     10 C10         2.1376  -18.7108  -50.6231 C.ar      23 UNK        -0.1150 
     11 C11         1.3510  -19.6538  -51.2874 C.ar      23 UNK        -0.0193 
     12 C12         1.5851  -21.0156  -51.0755 C.ar      23 UNK        -0.1150 
     13 C13         2.5908  -21.4460  -50.2027 C.ar      23 UNK        -0.0193 
     14 C14         3.3582  -20.4816  -49.5316 C.ar      23 UNK        -0.1150 
     15 C15         2.8098  -22.9556  -50.0463 C.3       23 UNK        -0.0205 
     16 S16         4.1850  -23.4698  -48.9564 S.3       23 UNK        -0.2404 
     17 C17         3.4731  -23.1124  -47.3160 C.3       23 UNK        -0.0398 
     18 CA          3.3530  -24.3574  -46.3989 C.3       11 UNK         0.1400 
     19 N           3.3715  -23.9371  -44.9953 N.am      11 UNK        -0.5000 
     20 C           3.7514  -24.6744  -43.9457 C.2       10 UNK         0.5000 
     21 O           4.2149  -25.8108  -44.0380 O.2       10 UNK        -0.5000 
     22 CA          3.5384  -24.0408  -42.5554 C.3       10 UNK         0.1400 
     23 CB          4.8076  -23.3141  -42.0856 C.3       10 UNK        -0.1800 
     24 N           2.4080  -23.1062  -42.5298 N.am      10 UNK        -0.5000 
     25 C           1.1205  -23.4733  -42.6092 C.2       9 UNK         0.5000 
     26 O           0.7498  -24.6459  -42.6653 O.2       9 UNK        -0.5000 
     27 CA          0.0760  -22.3444  -42.7011 C.3       9 UNK         0.1400 
     28 CB         -0.2831  -21.8263  -41.3007 C.3       9 UNK        -0.1800 
     29 N           0.5009  -21.2226  -43.5409 N.am      9 UNK        -0.5000 
     30 C           0.8151  -21.3148  -44.8404 C.2       8 UNK         0.5000 
     31 O           0.7971  -22.3682  -45.4709 O.2       8 UNK        -0.5000 
     32 CA          1.3079  -20.0398  -45.5425 C.3       8 UNK         0.1400 
     33 CB          0.1278  -19.1596  -45.9754 C.3       8 UNK        -0.1800 
     34 N           2.2391  -19.2693  -44.7195 N.am      8 UNK        -0.5000 
     35 C           3.4101  -19.7318  -44.2564 C.2       7 UNK         0.5000 
     36 O           3.8396  -20.8621  -44.4906 O.2       7 UNK        -0.5000 
     37 CA          4.2145  -18.7955  -43.3419 C.3       7 UNK         0.1400 
     38 CB          5.1427  -17.8864  -44.1609 C.3       7 UNK        -0.1800 
     39 N           3.3242  -17.9819  -42.5132 N.am      7 UNK        -0.5000 
     40 C           2.8670  -18.3625  -41.3137 C.2       6 UNK         0.5000 
     41 O           3.2046  -19.4056  -40.7525 O.2       6 UNK        -0.5000 
     42 CA          1.8517  -17.4307  -40.6238 C.3       6 UNK         0.1400 
     43 CB          2.5803  -16.3166  -39.8567 C.3       6 UNK        -0.1800 
     44 N           0.8723  -16.8224  -41.5272 N.am      6 UNK        -0.5000 
     45 C          -0.0142  -17.4900  -42.2796 C.2       5 UNK         0.5000 
     46 O          -0.0551  -18.7176  -42.3423 O.2       5 UNK        -0.5000 
     47 CA         -1.0303  -16.6484  -43.0777 C.3       5 UNK         0.1400 
     48 CB         -2.3894  -17.3589  -43.2209 C.3       5 UNK        -0.1800 
     49 N          -1.2426  -15.3421  -42.4484 N.am      5 UNK        -0.5000 
     50 C          -0.9607  -14.1653  -43.0137 C.2       4 UNK         0.5000 
     51 O          -0.4647  -14.0363  -44.1355 O.2       4 UNK        -0.5000 
     52 CA         -1.2461  -12.9141  -42.1695 C.3       4 UNK         0.1400 
     53 CB          0.0294  -12.4611  -41.4418 C.3       4 UNK        -0.1800 
     54 N          -1.6870  -11.8519  -43.0657 N.am      4 UNK        -0.5000 
     55 C          -2.9653  -11.5665  -43.3421 C.2       3 UNK         0.5000 
     56 O          -3.9237  -11.9893  -42.6942 O.2       3 UNK        -0.5000 
     57 CA         -3.2090  -10.6941  -44.5896 C.3       3 UNK         0.1400 
     58 CB         -3.1836   -9.2021  -44.2244 C.3       3 UNK        -0.1800 
     59 N          -2.2286  -10.9513  -45.6503 N.am      3 UNK        -0.5000 
     60 C          -2.1242  -12.1040  -46.3291 C.2       2 UNK         0.5000 
     61 O          -2.9103  -13.0428  -46.1962 O.2       2 UNK        -0.5000 
     62 CA         -0.9468  -12.2490  -47.3072 C.3       2 UNK         0.1400 
     63 CB         -0.0458  -10.9992  -47.4200 C.3       2 UNK        -0.1800 
     64 N          -0.1434  -13.4013  -46.9054 N.am      2 UNK        -0.5000 
     65 C           0.5657  -14.1675  -47.7418 C.2       1 UNK         0.5000 
     66 O           0.6039  -13.9775  -48.9591 O.2       1 UNK        -0.5000 
     67 C           2.1088  -25.2200  -46.7429 C.2       11 UNK         0.5000 
     68 O           2.0245  -25.7409  -47.8552 O.2       11 UNK        -0.5000 
     69 N           1.1663  -25.3529  -45.7947 N.am      12 UNK        -0.5000 
     70 CA         -0.1441  -26.0051  -45.9082 C.3       12 UNK         0.1400 
     71 CB         -0.0028  -27.5102  -46.2185 C.3       12 UNK        -0.1800 
     72 C          -1.1101  -25.2702  -46.8653 C.2       12 UNK         0.5000 
     73 O          -1.9910  -25.8958  -47.4581 O.2       12 UNK        -0.5000 
     74 N          -0.9388  -23.9496  -46.9753 N.am      13 UNK        -0.5000 
     75 CA         -1.8028  -23.0156  -47.6867 C.3       13 UNK         0.1400 
     76 CB         -0.9084  -22.0953  -48.5369 C.3       13 UNK        -0.1800 
     77 C          -2.6372  -22.2052  -46.6762 C.2       13 UNK         0.5000 
     78 O          -2.3880  -22.2592  -45.4696 O.2       13 UNK        -0.5000 
     79 N          -3.6150  -21.4566  -47.1922 N.am      14 UNK        -0.5000 
     80 CA         -4.4908  -20.5626  -46.4320 C.3       14 UNK         0.1400 
     81 CB         -5.9472  -20.9018  -46.7928 C.3       14 UNK        -0.1800 
     82 C          -4.1969  -19.0781  -46.7289 C.2       14 UNK         0.5000 
     83 O          -4.8555  -18.2143  -46.1494 O.2       14 UNK        -0.5000 
     84 N          -3.2476  -18.8120  -47.6413 N.am      15 UNK        -0.5000 
     85 CA         -2.9242  -17.5117  -48.2408 C.3       15 UNK         0.1400 
     86 CB         -2.4381  -16.5003  -47.1796 C.3       15 UNK        -0.1800 
     87 C          -4.0743  -16.9692  -49.1200 C.2       15 UNK         0.5000 
     88 O          -4.2653  -15.7549  -49.2108 O.2       15 UNK        -0.5000 
     89 N          -4.8263  -17.8844  -49.7478 N.am      16 UNK        -0.5000 
     90 CA         -5.9288  -17.5852  -50.6612 C.3       16 UNK         0.1400 
     91 CB         -6.9648  -18.7222  -50.5747 C.3       16 UNK        -0.1800 
     92 C          -5.4254  -17.3664  -52.1041 C.2       16 UNK         0.5000 
     93 O          -4.2206  -17.2519  -52.3402 O.2       16 UNK        -0.5000 
     94 N          -6.3658  -17.3038  -53.0543 N.am      17 UNK        -0.5000 
     95 CA         -6.0976  -17.1784  -54.4867 C.3       17 UNK         0.1400 
     96 CB         -7.4225  -16.8777  -55.2056 C.3       17 UNK        -0.1800 
     97 C          -5.4599  -18.4489  -55.0790 C.2       17 UNK         0.5000 
     98 O          -5.6832  -19.5517  -54.5716 O.2       17 UNK        -0.5000 
     99 N          -4.7422  -18.2856  -56.1983 N.am      18 UNK        -0.5000 
    100 CA        -4.1473  -19.3798  -56.9748 C.3       18 UNK         0.1400 
    101 CB        -3.2761  -18.7930  -58.0948 C.3       18 UNK        -0.1800 
    102 C         -5.1944  -20.3520  -57.5551 C.2       18 UNK         0.5000 
    103 O         -4.9174  -21.5454  -57.6723 O.2       18 UNK        -0.5000 
    104 N         -6.4006  -19.8391  -57.8394 N.am      19 UNK        -0.5000 
    105 CA        -7.5763  -20.6121  -58.2507 C.3       19 UNK         0.1400 
    106 CB        -8.6804  -19.6375  -58.6882 C.3       19 UNK        -0.1800 
    107 C         -8.1030  -21.5642  -57.1552 C.2       19 UNK         0.5000 
    108 O         -8.7514  -22.5589  -57.4804 O.2       19 UNK        -0.5000 
    109 N         -7.7948  -21.2585  -55.8875 N.am      20 UNK        -0.5000 
    110 CA        -8.0828  -22.0838  -54.7144 C.3       20 UNK         0.1400 
    111 CB        -8.5938  -21.1665  -53.5881 C.3       20 UNK        -0.1800 
    112 C         -6.8397  -22.8815  -54.2654 C.2       20 UNK         0.5000 
    113 O         -6.8210  -23.3869  -53.1420 O.2       20 UNK        -0.5000 
    114 N         -5.8032  -22.9471  -55.1189 N.am      21 UNK        -0.5000 
    115 CA        -4.4949  -23.5737  -54.8881 C.3       21 UNK         0.1400 
    116 CB        -4.6356  -25.1075  -54.8016 C.3       21 UNK        -0.1800 
    117 C         -3.7389  -22.9708  -53.6836 C.2       21 UNK         0.5000 
    118 O         -2.9815  -23.6738  -53.0132 O.2       21 UNK        -0.5000 
    119 N         -3.9790  -21.6788  -53.4228 N.am      22 UNK        -0.5000 
    120 CA        -3.5334  -20.9295  -52.2408 C.3       22 UNK         0.1400 
    121 C         -4.2809  -21.2935  -50.9229 C.2       22 UNK         0.5000 
    122 N         -5.3122  -22.1295  -50.9321 N.am      22 UNK        -0.7600 
    123 O         -3.9545  -20.7660  -49.8645 O.2       22 UNK        -0.5000 
    124 C124       -1.9866  -20.9018  -52.0750 C.3       23 UNK        -0.0398 
    125 S125       -1.3839  -19.2839  -51.4796 S.3       23 UNK        -0.2404 
    126 C126        0.2645  -19.1919  -52.2458 C.3       23 UNK        -0.0205 
    127 H127        4.1282  -14.9427  -43.5364 H         1 UNK         0.0600 
    128 H128        2.6377  -14.1833  -42.9666 H         1 UNK         0.0600 
    129 H129        3.5582  -13.4452  -44.2802 H         1 UNK         0.0600 
    130 H130        2.5960  -13.7810  -46.2654 H         1 UNK         0.3000 
    131 H131        0.6887  -15.9838  -46.6585 H         1 UNK         0.0600 
    132 H132        1.5482  -16.4850  -48.9181 H         1 UNK         0.0800 
    133 H133        2.8987  -15.3947  -48.7033 H         1 UNK         0.0800 
    134 H134        4.2419  -17.2617  -49.7096 H         1 UNK         0.0800 
    135 H135        4.9670  -18.5324  -48.7651 H         1 UNK         0.0800 
    136 H136        1.9738  -17.6582  -50.8020 H         1 UNK         0.1150 
    137 H137        0.9828  -21.7448  -51.5988 H         1 UNK         0.1150 
    138 H138        4.1446  -20.7758  -48.8537 H         1 UNK         0.1150 
    139 H139        1.8885  -23.4197  -49.6913 H         1 UNK         0.0800 
    140 H140        3.0000  -23.3755  -51.0349 H         1 UNK         0.0800 
    141 H141        4.1352  -22.3764  -46.8569 H         1 UNK         0.0800 
    142 H142        2.5117  -22.6086  -47.4240 H         1 UNK         0.0800 
    143 H143        4.2299  -24.9875  -46.5619 H         1 UNK         0.0600 
    144 H144        3.0197  -23.0049  -44.8139 H         1 UNK         0.3000 
    145 H145        3.3297  -24.8492  -41.8515 H         1 UNK         0.0600 
    146 H146        4.6785  -22.9008  -41.0851 H         1 UNK         0.0600 
    147 H147        5.0769  -22.4959  -42.7538 H         1 UNK         0.0600 
    148 H148        5.6562  -23.9983  -42.0479 H         1 UNK         0.0600 
    149 H149        2.6310  -22.1208  -42.5221 H         1 UNK         0.3000 
    150 H150       -0.8251  -22.7667  -43.1505 H         1 UNK         0.0600 
    151 H151       -0.5919  -22.6425  -40.6464 H         1 UNK         0.0600 
    152 H152       -1.1092  -21.1163  -41.3455 H         1 UNK         0.0600 
    153 H153        0.5630  -21.3247  -40.8289 H         1 UNK         0.0600 
    154 H154        0.4923  -20.3028  -43.1044 H         1 UNK         0.3000 
    155 H155        1.8446  -20.3450  -46.4433 H         1 UNK         0.0600 
    156 H156       -0.5919  -19.7259  -46.5660 H         1 UNK         0.0600 
    157 H157        0.4650  -18.3276  -46.5907 H         1 UNK         0.0600 
    158 H158       -0.4053  -18.7536  -45.1184 H         1 UNK         0.0600 
    159 H159        1.9918  -18.3039  -44.5280 H         1 UNK         0.3000 
    160 H160        4.8450  -19.4174  -42.7028 H         1 UNK         0.0600 
    161 H161        4.5872  -17.2487  -44.8467 H         1 UNK         0.0600 
    162 H162        5.8365  -18.4787  -44.7587 H         1 UNK         0.0600 
    163 H163        5.7373  -17.2434  -43.5121 H         1 UNK         0.0600 
    164 H164        2.9244  -17.1595  -42.9522 H         1 UNK         0.3000 
    165 H165        1.2971  -18.0337  -39.9018 H         1 UNK         0.0600 
    166 H166        1.8812  -15.7127  -39.2778 H         1 UNK         0.0600 
    167 H167        3.3048  -16.7337  -39.1559 H         1 UNK         0.0600 
    168 H168        3.1212  -15.6513  -40.5311 H         1 UNK         0.0600 
    169 H169        0.8494  -15.8150  -41.5570 H         1 UNK         0.3000 
    170 H170       -0.6138  -16.5288  -44.0792 H         1 UNK         0.0600 
    171 H171       -2.2878  -18.3222  -43.7217 H         1 UNK         0.0600 
    172 H172       -2.8514  -17.5411  -42.2502 H         1 UNK         0.0600 
    173 H173       -3.0818  -16.7628  -43.8161 H         1 UNK         0.0600 
    174 H174       -1.6271  -15.3606  -41.5138 H         1 UNK         0.3000 
    175 H175       -2.0171  -13.1374  -41.4291 H         1 UNK         0.0600 
    176 H176        0.8410  -12.2510  -42.1400 H         1 UNK         0.0600 
    177 H177       -0.1514  -11.5582  -40.8583 H         1 UNK         0.0600 
    178 H178        0.3802  -13.2291  -40.7514 H         1 UNK         0.0600 
    179 H179       -0.9838  -11.5007  -43.6986 H         1 UNK         0.3000 
    180 H180       -4.2011  -10.9359  -44.9768 H         1 UNK         0.0600 
    181 H181       -3.9193   -8.9779  -43.4509 H         1 UNK         0.0600 
    182 H182       -3.4219   -8.5805  -45.0877 H         1 UNK         0.0600 
    183 H183       -2.2072   -8.8950  -43.8476 H         1 UNK         0.0600 
    184 H184       -1.5545  -10.2216  -45.8306 H         1 UNK         0.3000 
    185 H185       -1.3917  -12.4422  -48.2855 H         1 UNK         0.0600 
    186 H186       -0.6178  -10.1222  -47.7254 H         1 UNK         0.0600 
    187 H187        0.4521  -10.7705  -46.4769 H         1 UNK         0.0600 
    188 H188        0.7301  -11.1450  -48.1719 H         1 UNK         0.0600 
    189 H189       -0.1853  -13.6465  -45.9156 H         1 UNK         0.3000 
    190 H190        1.3235  -24.8693  -44.9203 H         1 UNK         0.3000 
    191 H191       -0.5957  -25.9226  -44.9187 H         1 UNK         0.0600 
    192 H192       -0.9623  -28.0192  -46.1216 H         1 UNK         0.0600 
    193 H193        0.6897  -27.9919  -45.5283 H         1 UNK         0.0600 
    194 H194        0.3556  -27.6856  -47.2329 H         1 UNK         0.0600 
    195 H195       -0.2361  -23.5041  -46.3868 H         1 UNK         0.3000 
    196 H196       -2.4912  -23.5480  -48.3463 H         1 UNK         0.0600 
    197 H197       -0.1211  -21.6288  -47.9456 H         1 UNK         0.0600 
    198 H198       -0.4272  -22.6583  -49.3359 H         1 UNK         0.0600 
    199 H199       -1.4778  -21.2948  -49.0070 H         1 UNK         0.0600 
    200 H200       -3.7464  -21.4305  -48.2026 H         1 UNK         0.3000 
    201 H201       -4.3588  -20.7093  -45.3583 H         1 UNK         0.0600 
    202 H202       -6.6474  -20.2872  -46.2258 H         1 UNK         0.0600 
    203 H203       -6.1758  -21.9436  -46.5677 H         1 UNK         0.0600 
    204 H204       -6.1469  -20.7357  -47.8522 H         1 UNK         0.0600 
    205 H205       -2.8097  -19.6069  -48.0845 H         1 UNK         0.3000 
    206 H206       -2.0895  -17.6939  -48.9188 H         1 UNK         0.0600 
    207 H207       -1.6390  -16.9150  -46.5673 H         1 UNK         0.0600 
    208 H208       -2.0524  -15.5985  -47.6545 H         1 UNK         0.0600 
    209 H209       -3.2412  -16.1875  -46.5123 H         1 UNK         0.0600 
    210 H210       -4.5614  -18.8600  -49.6656 H         1 UNK         0.3000 
    211 H211       -6.4153  -16.6625  -50.3387 H         1 UNK         0.0600 
    212 H212       -6.6156  -19.6286  -51.0672 H         1 UNK         0.0600 
    213 H213       -7.9047  -18.4385  -51.0487 H         1 UNK         0.0600 
    214 H214       -7.1953  -18.9715  -49.5387 H         1 UNK         0.0600 
    215 H215       -7.3315  -17.4315  -52.7917 H         1 UNK         0.3000 
    216 H216       -5.4140  -16.3402  -54.6370 H         1 UNK         0.0600 
    217 H217       -7.8832  -15.9681  -54.8196 H         1 UNK         0.0600 
    218 H218       -8.1389  -17.6924  -55.0879 H         1 UNK         0.0600 
    219 H219       -7.2673  -16.7298  -56.2750 H         1 UNK         0.0600 
    220 H220       -4.6072  -17.3532  -56.5627 H         1 UNK         0.3000 
    221 H221       -3.5036  -19.9535  -56.3045 H         1 UNK         0.0600 
    222 H222       -2.8014  -19.5850  -58.6759 H         1 UNK         0.0600 
    223 H223       -3.8621  -18.1852  -58.7853 H         1 UNK         0.0600 
    224 H224       -2.4799  -18.1685  -57.6891 H         1 UNK         0.0600 
    225 H225       -6.5349  -18.8462  -57.7193 H         1 UNK         0.3000 
    226 H226       -7.2950  -21.2237  -59.1105 H         1 UNK         0.0600 
    227 H227       -8.3477  -19.0088  -59.5144 H         1 UNK         0.0600 
    228 H228       -9.5657  -20.1765  -59.0283 H         1 UNK         0.0600 
    229 H229       -8.9876  -18.9843  -57.8703 H         1 UNK         0.0600 
    230 H230       -7.2175  -20.4460  -55.7075 H         1 UNK         0.3000 
    231 H231       -8.8663  -22.8083  -54.9441 H         1 UNK         0.0600 
    232 H232       -8.9010  -21.7461  -52.7168 H         1 UNK         0.0600 
    233 H233       -9.4595  -20.5890  -53.9123 H         1 UNK         0.0600 
    234 H234       -7.8274  -20.4643  -53.2589 H         1 UNK         0.0600 
    235 H235       -5.8956  -22.4818  -56.0138 H         1 UNK         0.3000 
    236 H236       -3.8889  -23.3479  -55.7665 H         1 UNK         0.0600 
    237 H237       -5.1768  -25.4151  -53.9063 H         1 UNK         0.0600 
    238 H238       -5.1661  -25.5038  -55.6674 H         1 UNK         0.0600 
    239 H239       -3.6578  -25.5897  -54.7738 H         1 UNK         0.0600 
    240 H240       -4.6377  -21.1773  -54.0101 H         1 UNK         0.3000 
    241 H241       -3.8600  -19.9143  -52.4600 H         1 UNK         0.0600 
    242 H242       -5.7887  -22.3320  -50.0696 H         1 UNK         0.3800 
    243 H243       -5.6421  -22.5622  -51.7883 H         1 UNK         0.3800 
    244 H244       -1.5152  -21.0989  -53.0379 H         1 UNK         0.0800 
    245 H245       -1.6396  -21.6951  -51.4120 H         1 UNK         0.0800 
    246 H246        0.3055  -19.7738  -53.1671 H         1 UNK         0.0800 
    247 H247        0.4437  -18.1575  -52.5426 H         1 UNK         0.0800 
@<TRIPOS>BOND
     1    1    2 1    
     2    1  127 1    
     3    1  128 1    
     4    1  129 1    
     5    2    3 2    
     6    2    4 am   BACKBONE|DICT|INTERRES
     7    4    5 1    
     8    4  130 1    
     9    5    6 1    
    10    5   65 1    
    11    5  131 1    
    12    6    7 1    
    13    6  132 1    
    14    6  133 1    
    15    7    8 1    
    16    8    9 1    
    17    8  134 1    
    18    8  135 1    
    19    9   10 ar   
    20    9   14 ar   
    21   10   11 ar   
    22   10  136 1    
    23   11   12 ar   
    24   11  126 1    
    25   12   13 ar   
    26   12  137 1    
    27   13   14 ar   
    28   13   15 1    
    29   14  138 1    
    30   15   16 1    
    31   15  139 1    
    32   15  140 1    
    33   16   17 1    
    34   17   18 1    
    35   17  141 1    
    36   17  142 1    
    37   18   19 1    
    38   18   67 1    
    39   18  143 1    
    40   19   20 am   BACKBONE|DICT|INTERRES
    41   19  144 1    
    42   20   21 2    
    43   20   22 1    
    44   22   23 1    
    45   22   24 1    
    46   22  145 1    
    47   23  146 1    
    48   23  147 1    
    49   23  148 1    
    50   24   25 am   BACKBONE|DICT|INTERRES
    51   24  149 1    
    52   25   26 2    
    53   25   27 1    
    54   27   28 1    
    55   27   29 1    
    56   27  150 1    
    57   28  151 1    
    58   28  152 1    
    59   28  153 1    
    60   29   30 am   BACKBONE|DICT|INTERRES
    61   29  154 1    
    62   30   31 2    
    63   30   32 1    
    64   32   33 1    
    65   32   34 1    
    66   32  155 1    
    67   33  156 1    
    68   33  157 1    
    69   33  158 1    
    70   34   35 am   BACKBONE|DICT|INTERRES
    71   34  159 1    
    72   35   36 2    
    73   35   37 1    
    74   37   38 1    
    75   37   39 1    
    76   37  160 1    
    77   38  161 1    
    78   38  162 1    
    79   38  163 1    
    80   39   40 am   BACKBONE|DICT|INTERRES
    81   39  164 1    
    82   40   41 2    
    83   40   42 1    
    84   42   43 1    
    85   42   44 1    
    86   42  165 1    
    87   43  166 1    
    88   43  167 1    
    89   43  168 1    
    90   44   45 am   BACKBONE|DICT|INTERRES
    91   44  169 1    
    92   45   46 2    
    93   45   47 1    
    94   47   48 1    
    95   47   49 1    
    96   47  170 1    
    97   48  171 1    
    98   48  172 1    
    99   48  173 1    
   100   49   50 am   BACKBONE|DICT|INTERRES
   101   49  174 1    
   102   50   51 2    
   103   50   52 1    
   104   52   53 1    
   105   52   54 1    
   106   52  175 1    
   107   53  176 1    
   108   53  177 1    
   109   53  178 1    
   110   54   55 am   BACKBONE|DICT|INTERRES
   111   54  179 1    
   112   55   56 2    
   113   55   57 1    
   114   57   58 1    
   115   57   59 1    
   116   57  180 1    
   117   58  181 1    
   118   58  182 1    
   119   58  183 1    
   120   59   60 am   BACKBONE|DICT|INTERRES
   121   59  184 1    
   122   60   61 2    
   123   60   62 1    
   124   62   63 1    
   125   62   64 1    
   126   62  185 1    
   127   63  186 1    
   128   63  187 1    
   129   63  188 1    
   130   64   65 am   BACKBONE|DICT|INTERRES
   131   64  189 1    
   132   65   66 2    
   133   67   68 2    
   134   67   69 am   BACKBONE|DICT|INTERRES
   135   69   70 1    
   136   69  190 1    
   137   70   71 1    
   138   70   72 1    
   139   70  191 1    
   140   71  192 1    
   141   71  193 1    
   142   71  194 1    
   143   72   73 2    
   144   72   74 am   BACKBONE|DICT|INTERRES
   145   74   75 1    
   146   74  195 1    
   147   75   76 1    
   148   75   77 1    
   149   75  196 1    
   150   76  197 1    
   151   76  198 1    
   152   76  199 1    
   153   77   78 2    
   154   77   79 am   BACKBONE|DICT|INTERRES
   155   79   80 1    
   156   79  200 1    
   157   80   81 1    
   158   80   82 1    
   159   80  201 1    
   160   81  202 1    
   161   81  203 1    
   162   81  204 1    
   163   82   83 2    
   164   82   84 am   BACKBONE|DICT|INTERRES
   165   84   85 1    
   166   84  205 1    
   167   85   86 1    
   168   85   87 1    
   169   85  206 1    
   170   86  207 1    
   171   86  208 1    
   172   86  209 1    
   173   87   88 2    
   174   87   89 am   BACKBONE|DICT|INTERRES
   175   89   90 1    
   176   89  210 1    
   177   90   91 1    
   178   90   92 1    
   179   90  211 1    
   180   91  212 1    
   181   91  213 1    
   182   91  214 1    
   183   92   93 2    
   184   92   94 am   BACKBONE|DICT|INTERRES
   185   94   95 1    
   186   94  215 1    
   187   95   96 1    
   188   95   97 1    
   189   95  216 1    
   190   96  217 1    
   191   96  218 1    
   192   96  219 1    
   193   97   98 2    
   194   97   99 am   BACKBONE|DICT|INTERRES
   195   99  100 1    
   196   99  220 1    
   197  100  101 1    
   198  100  102 1    
   199  100  221 1    
   200  101  222 1    
   201  101  223 1    
   202  101  224 1    
   203  102  103 2    
   204  102  104 am   BACKBONE|DICT|INTERRES
   205  104  105 1    
   206  104  225 1    
   207  105  106 1    
   208  105  107 1    
   209  105  226 1    
   210  106  227 1    
   211  106  228 1    
   212  106  229 1    
   213  107  108 2    
   214  107  109 am   BACKBONE|DICT|INTERRES
   215  109  110 1    
   216  109  230 1    
   217  110  111 1    
   218  110  112 1    
   219  110  231 1    
   220  111  232 1    
   221  111  233 1    
   222  111  234 1    
   223  112  113 2    
   224  112  114 am   BACKBONE|DICT|INTERRES
   225  114  115 1    
   226  114  235 1    
   227  115  116 1    
   228  115  117 1    
   229  115  236 1    
   230  116  237 1    
   231  116  238 1    
   232  116  239 1    
   233  117  118 2    
   234  117  119 am   BACKBONE|DICT|INTERRES
   235  119  120 1    
   236  119  240 1    
   237  120  121 1    
   238  120  124 1    
   239  120  241 1    
   240  121  122 am   BACKBONE|DICT|INTERRES
   241  121  123 2    
   242  122  242 1    
   243  122  243 1    
   244  124  125 1    
   245  124  244 1    
   246  124  245 1    
   247  125  126 1    
   248  126  246 1    
   249  126  247 1    
@<TRIPOS>SUBSTRUCTURE
     1 UNK         1 GROUP             0       ****    0 ROOT    
