@<TRIPOS>MOLECULE
3R540
247   249    1
SMALL
USER_CHARGES


@<TRIPOS>ATOM
      1 CA         -2.1684  -16.2210  -48.4004 C.3       0 UNK        -0.1800 
      2 C          -1.3527  -14.9393  -48.3172 C.2       0 UNK         0.5000 
      3 O          -1.7003  -14.0323  -47.5603 O.2       0 UNK        -0.5000 
      4 N          -0.2716  -14.8572  -49.1012 N.am      1 UNK        -0.5000 
      5 CA          0.6773  -13.7397  -49.1078 C.3       1 UNK         0.1400 
      6 C6          1.7110  -13.8364  -50.2575 C.3       23 UNK        -0.0398 
      7 S7          0.9494  -13.9578  -51.9133 S.3       23 UNK        -0.2404 
      8 C8          1.5017  -15.6051  -52.4642 C.3       23 UNK        -0.0205 
      9 C9          0.7206  -16.7234  -51.7911 C.ar      23 UNK        -0.0193 
     10 C10        -0.4764  -17.1763  -52.3522 C.ar      23 UNK        -0.1150 
     11 C11        -1.1968  -18.2126  -51.7510 C.ar      23 UNK        -0.0193 
     12 C12        -0.7273  -18.7764  -50.5616 C.ar      23 UNK        -0.1150 
     13 C13         0.4634  -18.3246  -49.9869 C.ar      23 UNK        -0.0193 
     14 C14         1.1927  -17.3117  -50.6143 C.ar      23 UNK        -0.1150 
     15 C15         0.9492  -18.9146  -48.6767 C.3       23 UNK        -0.0205 
     16 S16         1.9334  -20.4203  -48.9476 S.3       23 UNK        -0.2404 
     17 C17         2.2397  -20.9013  -47.2120 C.3       23 UNK        -0.0398 
     18 CA          1.4124  -22.0887  -46.6467 C.3       11 UNK         0.1400 
     19 N           1.5183  -22.1329  -45.1863 N.am      11 UNK        -0.5000 
     20 C           1.0623  -23.1145  -44.3972 C.2       10 UNK         0.5000 
     21 O           0.5479  -24.1501  -44.8179 O.2       10 UNK        -0.5000 
     22 CA          1.1502  -22.8696  -42.8796 C.3       10 UNK         0.1400 
     23 CB          2.5673  -23.1546  -42.3607 C.3       10 UNK        -0.1800 
     24 N           0.7514  -21.5097  -42.5079 N.am      10 UNK        -0.5000 
     25 C          -0.4795  -21.0078  -42.6887 C.2       9 UNK         0.5000 
     26 O          -1.4213  -21.6583  -43.1391 O.2       9 UNK        -0.5000 
     27 CA         -0.6853  -19.5181  -42.3640 C.3       9 UNK         0.1400 
     28 CB         -0.8509  -19.2993  -40.8529 C.3       9 UNK        -0.1800 
     29 N           0.4039  -18.6821  -42.8629 N.am      9 UNK        -0.5000 
     30 C           0.7229  -18.5211  -44.1538 C.2       8 UNK         0.5000 
     31 O           0.1025  -19.0321  -45.0844 O.2       8 UNK        -0.5000 
     32 CA          1.9811  -17.6910  -44.4510 C.3       8 UNK         0.1400 
     33 CB          1.6763  -16.1912  -44.3726 C.3       8 UNK        -0.1800 
     34 N           3.0799  -18.0176  -43.5434 N.am      8 UNK        -0.5000 
     35 C           3.7282  -19.1902  -43.5245 C.2       7 UNK         0.5000 
     36 O           3.4871  -20.1193  -44.2952 O.2       7 UNK        -0.5000 
     37 CA          4.7996  -19.3641  -42.4333 C.3       7 UNK         0.1400 
     38 CB          6.1298  -18.7356  -42.8739 C.3       7 UNK        -0.1800 
     39 N           4.3905  -18.7892  -41.1505 N.am      7 UNK        -0.5000 
     40 C           3.3968  -19.2732  -40.3925 C.2       6 UNK         0.5000 
     41 O           2.7345  -20.2685  -40.6864 O.2       6 UNK        -0.5000 
     42 CA          3.0544  -18.4807  -39.1164 C.3       6 UNK         0.1400 
     43 CB          4.0099  -18.8552  -37.9736 C.3       6 UNK        -0.1800 
     44 N           3.0573  -17.0240  -39.2994 N.am      6 UNK        -0.5000 
     45 C           2.2787  -16.3689  -40.1703 C.2       5 UNK         0.5000 
     46 O           1.5455  -16.9347  -40.9830 O.2       5 UNK        -0.5000 
     47 CA          2.3480  -14.8290  -40.1575 C.3       5 UNK         0.1400 
     48 CB          3.4998  -14.3463  -41.0518 C.3       5 UNK        -0.1800 
     49 N           1.0937  -14.2335  -40.6303 N.am      5 UNK        -0.5000 
     50 C          -0.0804  -14.3548  -39.9912 C.2       4 UNK         0.5000 
     51 O          -0.1811  -14.8219  -38.8549 O.2       4 UNK        -0.5000 
     52 CA         -1.3435  -13.8863  -40.7427 C.3       4 UNK         0.1400 
     53 CB         -2.5810  -13.8200  -39.8287 C.3       4 UNK        -0.1800 
     54 N          -1.1495  -12.5662  -41.3460 N.am      4 UNK        -0.5000 
     55 C          -0.9390  -12.2538  -42.6317 C.2       3 UNK         0.5000 
     56 O          -0.8755  -11.0770  -42.9915 O.2       3 UNK        -0.5000 
     57 CA         -0.7867  -13.3726  -43.6918 C.3       3 UNK         0.1400 
     58 CB         -2.1561  -13.7917  -44.2482 C.3       3 UNK        -0.1800 
     59 N           0.0739  -12.9572  -44.8014 N.am      3 UNK        -0.5000 
     60 C           1.3787  -12.6730  -44.6765 C.2       2 UNK         0.5000 
     61 O           2.0011  -12.8423  -43.6260 O.2       2 UNK        -0.5000 
     62 CA          2.0974  -12.0794  -45.9089 C.3       2 UNK         0.1400 
     63 CB          3.6123  -12.3781  -45.9177 C.3       2 UNK        -0.1800 
     64 N           1.4759  -12.4291  -47.1938 N.am      2 UNK        -0.5000 
     65 C           1.4074  -13.6462  -47.7521 C.2       1 UNK         0.5000 
     66 O           1.8959  -14.6654  -47.2613 O.2       1 UNK        -0.5000 
     67 C          -0.0660  -22.1135  -47.1013 C.2       11 UNK         0.5000 
     68 O          -0.4253  -22.9298  -47.9499 O.2       11 UNK        -0.5000 
     69 N          -0.9050  -21.2595  -46.4981 N.am      12 UNK        -0.5000 
     70 CA         -2.3411  -21.1808  -46.7652 C.3       12 UNK         0.1400 
     71 CB         -2.9371  -19.9678  -46.0364 C.3       12 UNK        -0.1800 
     72 C          -3.0920  -22.4726  -46.3948 C.2       12 UNK         0.5000 
     73 O          -3.9614  -22.9012  -47.1521 O.2       12 UNK        -0.5000 
     74 N          -2.7208  -23.0942  -45.2670 N.am      13 UNK        -0.5000 
     75 CA         -3.2450  -24.3862  -44.8224 C.3       13 UNK         0.1400 
     76 CB         -2.7755  -24.6710  -43.3879 C.3       13 UNK        -0.1800 
     77 C          -2.8598  -25.5418  -45.7646 C.2       13 UNK         0.5000 
     78 O          -3.6996  -26.3993  -46.0387 O.2       13 UNK        -0.5000 
     79 N          -1.6148  -25.5307  -46.2627 N.am      14 UNK        -0.5000 
     80 CA         -1.1047  -26.4902  -47.2437 C.3       14 UNK         0.1400 
     81 CB          0.4224  -26.3594  -47.3507 C.3       14 UNK        -0.1800 
     82 C          -1.7695  -26.3365  -48.6246 C.2       14 UNK         0.5000 
     83 O          -2.0897  -27.3440  -49.2567 O.2       14 UNK        -0.5000 
     84 N          -1.9862  -25.0857  -49.0566 N.am      15 UNK        -0.5000 
     85 CA         -2.7129  -24.7413  -50.2812 C.3       15 UNK         0.1400 
     86 CB         -2.5149  -23.2481  -50.5873 C.3       15 UNK        -0.1800 
     87 C          -4.2149  -25.0763  -50.1993 C.2       15 UNK         0.5000 
     88 O          -4.8160  -25.4224  -51.2159 O.2       15 UNK        -0.5000 
     89 N          -4.7875  -24.9518  -48.9937 N.am      16 UNK        -0.5000 
     90 CA         -6.1784  -25.1768  -48.5813 C.3       16 UNK         0.1400 
     91 CB         -6.6618  -26.5958  -48.9355 C.3       16 UNK        -0.1800 
     92 C          -7.1653  -24.0999  -49.0728 C.2       16 UNK         0.5000 
     93 O          -8.0941  -23.7572  -48.3398 O.2       16 UNK        -0.5000 
     94 N          -6.9418  -23.5627  -50.2742 N.am      17 UNK        -0.5000 
     95 CA         -7.6611  -22.4446  -50.8676 C.3       17 UNK         0.1400 
     96 CB         -8.9300  -22.9522  -51.5742 C.3       17 UNK        -0.1800 
     97 C          -6.7219  -21.7471  -51.8584 C.2       17 UNK         0.5000 
     98 O          -5.8312  -22.3929  -52.4171 O.2       17 UNK        -0.5000 
     99 N          -6.9547  -20.4518  -52.0980 N.am      18 UNK        -0.5000 
    100 CA        -6.1941  -19.6229  -53.0366 C.3       18 UNK         0.1400 
    101 CB        -6.2753  -18.1531  -52.5868 C.3       18 UNK        -0.1800 
    102 C         -6.6516  -19.8308  -54.4960 C.2       18 UNK         0.5000 
    103 O         -6.9801  -18.8651  -55.1891 O.2       18 UNK        -0.5000 
    104 N         -6.6777  -21.0957  -54.9355 N.am      19 UNK        -0.5000 
    105 CA        -7.0351  -21.5271  -56.2861 C.3       19 UNK         0.1400 
    106 CB        -7.0372  -23.0624  -56.3399 C.3       19 UNK        -0.1800 
    107 C         -6.0634  -20.9340  -57.3199 C.2       19 UNK         0.5000 
    108 O         -4.8588  -21.1786  -57.2249 O.2       19 UNK        -0.5000 
    109 N         -6.5958  -20.1062  -58.2311 N.am      20 UNK        -0.5000 
    110 CA        -5.8630  -19.2973  -59.2167 C.3       20 UNK         0.1400 
    111 CB        -5.2462  -20.2010  -60.3047 C.3       20 UNK        -0.1800 
    112 C         -4.8255  -18.3506  -58.5682 C.2       20 UNK         0.5000 
    113 O         -3.7560  -18.1218  -59.1371 O.2       20 UNK        -0.5000 
    114 N         -5.1374  -17.8693  -57.3528 N.am      21 UNK        -0.5000 
    115 CA        -4.2796  -17.0778  -56.4616 C.3       21 UNK         0.1400 
    116 CB        -4.0390  -15.6711  -57.0473 C.3       21 UNK        -0.1800 
    117 C         -2.9664  -17.7968  -56.0745 C.2       21 UNK         0.5000 
    118 O         -1.9749  -17.1331  -55.7695 O.2       21 UNK        -0.5000 
    119 N         -2.9828  -19.1376  -56.1103 N.am      22 UNK        -0.5000 
    120 CA        -1.8251  -20.0350  -55.9617 C.3       22 UNK         0.1400 
    121 C         -0.8060  -19.9616  -57.1426 C.2       22 UNK         0.5000 
    122 N         -1.1465  -19.3812  -58.2889 N.am      22 UNK        -0.7600 
    123 O          0.3078  -20.4683  -57.0368 O.2       22 UNK        -0.5000 
    124 C124       -1.1387  -19.9483  -54.5689 C.3       23 UNK        -0.0398 
    125 S125       -2.2687  -20.3375  -53.1861 S.3       23 UNK        -0.2404 
    126 C126       -2.4860  -18.7178  -52.3801 C.3       23 UNK        -0.0205 
    127 H127       -3.1729  -16.0647  -48.0071 H         1 UNK         0.0600 
    128 H128       -1.6913  -17.0096  -47.8184 H         1 UNK         0.0600 
    129 H129       -2.2600  -16.5569  -49.4331 H         1 UNK         0.0600 
    130 H130       -0.0367  -15.6305  -49.7082 H         1 UNK         0.3000 
    131 H131        0.0968  -12.8263  -49.2549 H         1 UNK         0.0600 
    132 H132        2.3447  -12.9477  -50.2605 H         1 UNK         0.0800 
    133 H133        2.3881  -14.6765  -50.1000 H         1 UNK         0.0800 
    134 H134        2.5716  -15.7203  -52.2841 H         1 UNK         0.0800 
    135 H135        1.3716  -15.6715  -53.5456 H         1 UNK         0.0800 
    136 H136       -0.8413  -16.7278  -53.2661 H         1 UNK         0.1150 
    137 H137       -1.2863  -19.5709  -50.0867 H         1 UNK         0.1150 
    138 H138        2.1218  -16.9756  -50.1761 H         1 UNK         0.1150 
    139 H139        1.5471  -18.1801  -48.1341 H         1 UNK         0.0800 
    140 H140        0.0931  -19.1399  -48.0396 H         1 UNK         0.0800 
    141 H141        2.0849  -20.0197  -46.5922 H         1 UNK         0.0800 
    142 H142        3.3017  -21.1302  -47.1141 H         1 UNK         0.0800 
    143 H143        1.8649  -23.0068  -47.0269 H         1 UNK         0.0600 
    144 H144        1.9731  -21.3378  -44.7489 H         1 UNK         0.3000 
    145 H145        0.4639  -23.5643  -42.3911 H         1 UNK         0.0600 
    146 H146        2.6135  -23.0660  -41.2752 H         1 UNK         0.0600 
    147 H147        2.8817  -24.1668  -42.6183 H         1 UNK         0.0600 
    148 H148        3.2985  -22.4649  -42.7829 H         1 UNK         0.0600 
    149 H149        1.4636  -20.9256  -42.0805 H         1 UNK         0.3000 
    150 H150       -1.6041  -19.1939  -42.8566 H         1 UNK         0.0600 
    151 H151       -1.6776  -19.8926  -40.4604 H         1 UNK         0.0600 
    152 H152       -1.0631  -18.2538  -40.6275 H         1 UNK         0.0600 
    153 H153        0.0475  -19.5820  -40.3038 H         1 UNK         0.0600 
    154 H154        0.9435  -18.1753  -42.1636 H         1 UNK         0.3000 
    155 H155        2.3010  -17.9148  -45.4704 H         1 UNK         0.0600 
    156 H156        1.3948  -15.8835  -43.3669 H         1 UNK         0.0600 
    157 H157        0.8545  -15.9258  -45.0391 H         1 UNK         0.0600 
    158 H158        2.5409  -15.5991  -44.6725 H         1 UNK         0.0600 
    159 H159        3.3004  -17.3335  -42.8359 H         1 UNK         0.3000 
    160 H160        4.9590  -20.4353  -42.2918 H         1 UNK         0.0600 
    161 H161        6.0430  -17.6566  -43.0080 H         1 UNK         0.0600 
    162 H162        6.4654  -19.1584  -43.8219 H         1 UNK         0.0600 
    163 H163        6.9150  -18.9209  -42.1408 H         1 UNK         0.0600 
    164 H164        4.8797  -17.9636  -40.8377 H         1 UNK         0.3000 
    165 H165        2.0439  -18.7688  -38.8189 H         1 UNK         0.0600 
    166 H166        3.7090  -18.3845  -37.0375 H         1 UNK         0.0600 
    167 H167        4.0150  -19.9332  -37.8061 H         1 UNK         0.0600 
    168 H168        5.0352  -18.5514  -38.1884 H         1 UNK         0.0600 
    169 H169        3.6464  -16.4941  -38.6733 H         1 UNK         0.3000 
    170 H170        2.5266  -14.4913  -39.1346 H         1 UNK         0.0600 
    171 H171        4.4594  -14.7221  -40.6947 H         1 UNK         0.0600 
    172 H172        3.3786  -14.6833  -42.0822 H         1 UNK         0.0600 
    173 H173        3.5618  -13.2579  -41.0629 H         1 UNK         0.0600 
    174 H174        1.1240  -13.8148  -41.5491 H         1 UNK         0.3000 
    175 H175       -1.5584  -14.6446  -41.4947 H         1 UNK         0.0600 
    176 H176       -2.4395  -13.1161  -39.0075 H         1 UNK         0.0600 
    177 H177       -3.4652  -13.5101  -40.3861 H         1 UNK         0.0600 
    178 H178       -2.8023  -14.7954  -39.3932 H         1 UNK         0.0600 
    179 H179       -1.1948  -11.8009  -40.6890 H         1 UNK         0.3000 
    180 H180       -0.3117  -14.2420  -43.2393 H         1 UNK         0.0600 
    181 H181       -2.6238  -12.9839  -44.8125 H         1 UNK         0.0600 
    182 H182       -2.8437  -14.0726  -43.4500 H         1 UNK         0.0600 
    183 H183       -2.0624  -14.6528  -44.9102 H         1 UNK         0.0600 
    184 H184       -0.3766  -12.8058  -45.6930 H         1 UNK         0.3000 
    185 H185        1.9861  -10.9985  -45.8139 H         1 UNK         0.0600 
    186 H186        4.0952  -11.9492  -46.7956 H         1 UNK         0.0600 
    187 H187        4.0994  -11.9507  -45.0405 H         1 UNK         0.0600 
    188 H188        3.8162  -13.4491  -45.9101 H         1 UNK         0.0600 
    189 H189        1.0345  -11.6581  -47.6762 H         1 UNK         0.3000 
    190 H190       -0.5310  -20.5858  -45.8330 H         1 UNK         0.3000 
    191 H191       -2.4668  -21.0229  -47.8383 H         1 UNK         0.0600 
    192 H192       -4.0041  -19.8741  -46.2415 H         1 UNK         0.0600 
    193 H193       -2.4609  -19.0418  -46.3588 H         1 UNK         0.0600 
    194 H194       -2.8147  -20.0478  -44.9561 H         1 UNK         0.0600 
    195 H195       -2.0427  -22.6433  -44.6584 H         1 UNK         0.3000 
    196 H196       -4.3348  -24.3172  -44.8127 H         1 UNK         0.0600 
    197 H197       -1.6885  -24.7196  -43.3214 H         1 UNK         0.0600 
    198 H198       -3.1178  -23.8970  -42.7009 H         1 UNK         0.0600 
    199 H199       -3.1700  -25.6223  -43.0291 H         1 UNK         0.0600 
    200 H200       -0.9646  -24.8200  -45.9411 H         1 UNK         0.3000 
    201 H201       -1.3302  -27.4941  -46.8781 H         1 UNK         0.0600 
    202 H202        0.9012  -26.5443  -46.3889 H         1 UNK         0.0600 
    203 H203        0.7212  -25.3661  -47.6860 H         1 UNK         0.0600 
    204 H204        0.8274  -27.0816  -48.0604 H         1 UNK         0.0600 
    205 H205       -1.6149  -24.3110  -48.5121 H         1 UNK         0.3000 
    206 H206       -2.2866  -25.3186  -51.1040 H         1 UNK         0.0600 
    207 H207       -1.4599  -23.0058  -50.7170 H         1 UNK         0.0600 
    208 H208       -3.0293  -22.9665  -51.5073 H         1 UNK         0.0600 
    209 H209       -2.9063  -22.6176  -49.7886 H         1 UNK         0.0600 
    210 H210       -4.2113  -24.5448  -48.2638 H         1 UNK         0.3000 
    211 H211       -6.1627  -25.1037  -47.4926 H         1 UNK         0.0600 
    212 H212       -7.6407  -26.7909  -48.4962 H         1 UNK         0.0600 
    213 H213       -5.9760  -27.3516  -48.5521 H         1 UNK         0.0600 
    214 H214       -6.7563  -26.7400  -50.0118 H         1 UNK         0.0600 
    215 H215       -6.1597  -23.9046  -50.8259 H         1 UNK         0.3000 
    216 H216       -7.9331  -21.7321  -50.0859 H         1 UNK         0.0600 
    217 H217       -8.6907  -23.6717  -52.3585 H         1 UNK         0.0600 
    218 H218       -9.4769  -22.1301  -52.0373 H         1 UNK         0.0600 
    219 H219       -9.6076  -23.4369  -50.8712 H         1 UNK         0.0600 
    220 H220       -7.7319  -20.0008  -51.6367 H         1 UNK         0.3000 
    221 H221       -5.1460  -19.9192  -52.9937 H         1 UNK         0.0600 
    222 H222       -5.9045  -18.0318  -51.5688 H         1 UNK         0.0600 
    223 H223       -7.2988  -17.7777  -52.6189 H         1 UNK         0.0600 
    224 H224       -5.6685  -17.5126  -53.2276 H         1 UNK         0.0600 
    225 H225       -6.3560  -21.8153  -54.2969 H         1 UNK         0.3000 
    226 H226       -8.0467  -21.1745  -56.4967 H         1 UNK         0.0600 
    227 H227       -6.0563  -23.4753  -56.1000 H         1 UNK         0.0600 
    228 H228       -7.7572  -23.4806  -55.6361 H         1 UNK         0.0600 
    229 H229       -7.3095  -23.4175  -57.3346 H         1 UNK         0.0600 
    230 H230       -7.5938  -19.9476  -58.2029 H         1 UNK         0.3000 
    231 H231       -6.5998  -18.6536  -59.6990 H         1 UNK         0.0600 
    232 H232       -4.4512  -20.8314  -59.9049 H         1 UNK         0.0600 
    233 H233       -4.8166  -19.6058  -61.1113 H         1 UNK         0.0600 
    234 H234       -5.9986  -20.8521  -60.7496 H         1 UNK         0.0600 
    235 H235       -6.0178  -18.1591  -56.9398 H         1 UNK         0.3000 
    236 H236       -4.8387  -16.9555  -55.5334 H         1 UNK         0.0600 
    237 H237       -3.5319  -15.0281  -56.3270 H         1 UNK         0.0600 
    238 H238       -3.4210  -15.7062  -57.9449 H         1 UNK         0.0600 
    239 H239       -4.9800  -15.1856  -57.3060 H         1 UNK         0.0600 
    240 H240       -3.8295  -19.6046  -56.4144 H         1 UNK         0.3000 
    241 H241       -2.2428  -21.0391  -56.0411 H         1 UNK         0.0600 
    242 H242       -0.4783  -19.3547  -59.0425 H         1 UNK         0.3800 
    243 H243       -2.0613  -18.9633  -58.4208 H         1 UNK         0.3800 
    244 H244       -0.6790  -18.9714  -54.4286 H         1 UNK         0.0800 
    245 H245       -0.3204  -20.6669  -54.5063 H         1 UNK         0.0800 
    246 H246       -2.8735  -17.9989  -53.1024 H         1 UNK         0.0800 
    247 H247       -3.2477  -18.8112  -51.6048 H         1 UNK         0.0800 
@<TRIPOS>BOND
     1    1    2 1    
     2    1  127 1    
     3    1  128 1    
     4    1  129 1    
     5    2    3 2    
     6    2    4 am   BACKBONE|DICT|INTERRES
     7    4    5 1    
     8    4  130 1    
     9    5    6 1    
    10    5   65 1    
    11    5  131 1    
    12    6    7 1    
    13    6  132 1    
    14    6  133 1    
    15    7    8 1    
    16    8    9 1    
    17    8  134 1    
    18    8  135 1    
    19    9   10 ar   
    20    9   14 ar   
    21   10   11 ar   
    22   10  136 1    
    23   11   12 ar   
    24   11  126 1    
    25   12   13 ar   
    26   12  137 1    
    27   13   14 ar   
    28   13   15 1    
    29   14  138 1    
    30   15   16 1    
    31   15  139 1    
    32   15  140 1    
    33   16   17 1    
    34   17   18 1    
    35   17  141 1    
    36   17  142 1    
    37   18   19 1    
    38   18   67 1    
    39   18  143 1    
    40   19   20 am   BACKBONE|DICT|INTERRES
    41   19  144 1    
    42   20   21 2    
    43   20   22 1    
    44   22   23 1    
    45   22   24 1    
    46   22  145 1    
    47   23  146 1    
    48   23  147 1    
    49   23  148 1    
    50   24   25 am   BACKBONE|DICT|INTERRES
    51   24  149 1    
    52   25   26 2    
    53   25   27 1    
    54   27   28 1    
    55   27   29 1    
    56   27  150 1    
    57   28  151 1    
    58   28  152 1    
    59   28  153 1    
    60   29   30 am   BACKBONE|DICT|INTERRES
    61   29  154 1    
    62   30   31 2    
    63   30   32 1    
    64   32   33 1    
    65   32   34 1    
    66   32  155 1    
    67   33  156 1    
    68   33  157 1    
    69   33  158 1    
    70   34   35 am   BACKBONE|DICT|INTERRES
    71   34  159 1    
    72   35   36 2    
    73   35   37 1    
    74   37   38 1    
    75   37   39 1    
    76   37  160 1    
    77   38  161 1    
    78   38  162 1    
    79   38  163 1    
    80   39   40 am   BACKBONE|DICT|INTERRES
    81   39  164 1    
    82   40   41 2    
    83   40   42 1    
    84   42   43 1    
    85   42   44 1    
    86   42  165 1    
    87   43  166 1    
    88   43  167 1    
    89   43  168 1    
    90   44   45 am   BACKBONE|DICT|INTERRES
    91   44  169 1    
    92   45   46 2    
    93   45   47 1    
    94   47   48 1    
    95   47   49 1    
    96   47  170 1    
    97   48  171 1    
    98   48  172 1    
    99   48  173 1    
   100   49   50 am   BACKBONE|DICT|INTERRES
   101   49  174 1    
   102   50   51 2    
   103   50   52 1    
   104   52   53 1    
   105   52   54 1    
   106   52  175 1    
   107   53  176 1    
   108   53  177 1    
   109   53  178 1    
   110   54   55 am   BACKBONE|DICT|INTERRES
   111   54  179 1    
   112   55   56 2    
   113   55   57 1    
   114   57   58 1    
   115   57   59 1    
   116   57  180 1    
   117   58  181 1    
   118   58  182 1    
   119   58  183 1    
   120   59   60 am   BACKBONE|DICT|INTERRES
   121   59  184 1    
   122   60   61 2    
   123   60   62 1    
   124   62   63 1    
   125   62   64 1    
   126   62  185 1    
   127   63  186 1    
   128   63  187 1    
   129   63  188 1    
   130   64   65 am   BACKBONE|DICT|INTERRES
   131   64  189 1    
   132   65   66 2    
   133   67   68 2    
   134   67   69 am   BACKBONE|DICT|INTERRES
   135   69   70 1    
   136   69  190 1    
   137   70   71 1    
   138   70   72 1    
   139   70  191 1    
   140   71  192 1    
   141   71  193 1    
   142   71  194 1    
   143   72   73 2    
   144   72   74 am   BACKBONE|DICT|INTERRES
   145   74   75 1    
   146   74  195 1    
   147   75   76 1    
   148   75   77 1    
   149   75  196 1    
   150   76  197 1    
   151   76  198 1    
   152   76  199 1    
   153   77   78 2    
   154   77   79 am   BACKBONE|DICT|INTERRES
   155   79   80 1    
   156   79  200 1    
   157   80   81 1    
   158   80   82 1    
   159   80  201 1    
   160   81  202 1    
   161   81  203 1    
   162   81  204 1    
   163   82   83 2    
   164   82   84 am   BACKBONE|DICT|INTERRES
   165   84   85 1    
   166   84  205 1    
   167   85   86 1    
   168   85   87 1    
   169   85  206 1    
   170   86  207 1    
   171   86  208 1    
   172   86  209 1    
   173   87   88 2    
   174   87   89 am   BACKBONE|DICT|INTERRES
   175   89   90 1    
   176   89  210 1    
   177   90   91 1    
   178   90   92 1    
   179   90  211 1    
   180   91  212 1    
   181   91  213 1    
   182   91  214 1    
   183   92   93 2    
   184   92   94 am   BACKBONE|DICT|INTERRES
   185   94   95 1    
   186   94  215 1    
   187   95   96 1    
   188   95   97 1    
   189   95  216 1    
   190   96  217 1    
   191   96  218 1    
   192   96  219 1    
   193   97   98 2    
   194   97   99 am   BACKBONE|DICT|INTERRES
   195   99  100 1    
   196   99  220 1    
   197  100  101 1    
   198  100  102 1    
   199  100  221 1    
   200  101  222 1    
   201  101  223 1    
   202  101  224 1    
   203  102  103 2    
   204  102  104 am   BACKBONE|DICT|INTERRES
   205  104  105 1    
   206  104  225 1    
   207  105  106 1    
   208  105  107 1    
   209  105  226 1    
   210  106  227 1    
   211  106  228 1    
   212  106  229 1    
   213  107  108 2    
   214  107  109 am   BACKBONE|DICT|INTERRES
   215  109  110 1    
   216  109  230 1    
   217  110  111 1    
   218  110  112 1    
   219  110  231 1    
   220  111  232 1    
   221  111  233 1    
   222  111  234 1    
   223  112  113 2    
   224  112  114 am   BACKBONE|DICT|INTERRES
   225  114  115 1    
   226  114  235 1    
   227  115  116 1    
   228  115  117 1    
   229  115  236 1    
   230  116  237 1    
   231  116  238 1    
   232  116  239 1    
   233  117  118 2    
   234  117  119 am   BACKBONE|DICT|INTERRES
   235  119  120 1    
   236  119  240 1    
   237  120  121 1    
   238  120  124 1    
   239  120  241 1    
   240  121  122 am   BACKBONE|DICT|INTERRES
   241  121  123 2    
   242  122  242 1    
   243  122  243 1    
   244  124  125 1    
   245  124  244 1    
   246  124  245 1    
   247  125  126 1    
   248  126  246 1    
   249  126  247 1    
@<TRIPOS>SUBSTRUCTURE
     1 UNK         1 GROUP             0       ****    0 ROOT    
