@<TRIPOS>MOLECULE
3R540
247   249    1
SMALL
USER_CHARGES


@<TRIPOS>ATOM
      1 CA         -4.1028  -17.3090  -43.3356 C.3       0 UNK        -0.1800 
      2 C          -4.2646  -15.8823  -43.8403 C.2       0 UNK         0.5000 
      3 O          -5.1149  -15.1447  -43.3421 O.2       0 UNK        -0.5000 
      4 N          -3.4410  -15.4893  -44.8193 N.am      1 UNK        -0.5000 
      5 CA         -3.3896  -14.1419  -45.4055 C.3       1 UNK         0.1400 
      6 C6         -2.7040  -14.1362  -46.7965 C.3       23 UNK        -0.0398 
      7 S7         -3.5465  -15.2103  -48.0100 S.3       23 UNK        -0.2404 
      8 C8         -2.8342  -14.6079  -49.5788 C.3       23 UNK        -0.0205 
      9 C9         -1.8157  -15.5756  -50.1686 C.ar      23 UNK        -0.0193 
     10 C10        -2.0360  -16.1449  -51.4275 C.ar      23 UNK        -0.1150 
     11 C11        -1.1098  -17.0338  -51.9829 C.ar      23 UNK        -0.0193 
     12 C12         0.0571  -17.3326  -51.2742 C.ar      23 UNK        -0.1150 
     13 C13         0.2757  -16.7986  -50.0010 C.ar      23 UNK        -0.0193 
     14 C14        -0.6543  -15.9048  -49.4633 C.ar      23 UNK        -0.1150 
     15 C15         1.4924  -17.2210  -49.1864 C.3       23 UNK        -0.0205 
     16 S16         1.6063  -19.0312  -48.9570 S.3       23 UNK        -0.2404 
     17 C17        -0.1116  -19.4858  -48.5339 C.3       23 UNK        -0.0398 
     18 CA         -0.2469  -20.9675  -48.1223 C.3       11 UNK         0.1400 
     19 N           0.5350  -21.3106  -46.9347 N.am      11 UNK        -0.5000 
     20 C           0.9109  -22.5556  -46.6124 C.2       10 UNK         0.5000 
     21 O           0.7014  -23.5390  -47.3221 O.2       10 UNK        -0.5000 
     22 CA          1.6131  -22.7370  -45.2529 C.3       10 UNK         0.1400 
     23 CB          3.1328  -22.5733  -45.4041 C.3       10 UNK        -0.1800 
     24 N           1.1286  -21.8007  -44.2372 N.am      10 UNK        -0.5000 
     25 C          -0.1104  -21.8069  -43.7252 C.2       9 UNK         0.5000 
     26 O          -0.9646  -22.6452  -44.0135 O.2       9 UNK        -0.5000 
     27 CA         -0.4680  -20.6437  -42.7807 C.3       9 UNK         0.1400 
     28 CB         -0.0994  -20.9893  -41.3313 C.3       9 UNK        -0.1800 
     29 N           0.1712  -19.3799  -43.1605 N.am      9 UNK        -0.5000 
     30 C          -0.0651  -18.7253  -44.3091 C.2       8 UNK         0.5000 
     31 O          -0.8429  -19.1420  -45.1679 O.2       8 UNK        -0.5000 
     32 CA          0.7140  -17.4148  -44.5538 C.3       8 UNK         0.1400 
     33 CB          0.0145  -16.4654  -45.5456 C.3       8 UNK        -0.1800 
     34 N           1.0673  -16.7255  -43.3113 N.am      8 UNK        -0.5000 
     35 C           0.2265  -16.2330  -42.3879 C.2       7 UNK         0.5000 
     36 O          -0.9869  -16.1194  -42.5664 O.2       7 UNK        -0.5000 
     37 CA          0.8332  -15.7950  -41.0368 C.3       7 UNK         0.1400 
     38 CB         -0.0478  -16.2268  -39.8463 C.3       7 UNK        -0.1800 
     39 N           2.2290  -16.2146  -40.8415 N.am      7 UNK        -0.5000 
     40 C           2.6920  -17.4704  -40.7478 C.2       6 UNK         0.5000 
     41 O           1.9722  -18.4684  -40.8186 O.2       6 UNK        -0.5000 
     42 CA          4.2240  -17.6211  -40.6350 C.3       6 UNK         0.1400 
     43 CB          4.6807  -19.0938  -40.6952 C.3       6 UNK        -0.1800 
     44 N           4.9591  -16.8269  -41.6294 N.am      6 UNK        -0.5000 
     45 C           4.8175  -16.8585  -42.9625 C.2       5 UNK         0.5000 
     46 O           3.9471  -17.5104  -43.5418 O.2       5 UNK        -0.5000 
     47 CA          5.7986  -15.9869  -43.7749 C.3       5 UNK         0.1400 
     48 CB          5.7403  -16.2903  -45.2834 C.3       5 UNK        -0.1800 
     49 N           5.5368  -14.5626  -43.5807 N.am      5 UNK        -0.5000 
     50 C           5.8502  -13.8407  -42.4963 C.2       4 UNK         0.5000 
     51 O           6.4732  -14.2932  -41.5344 O.2       4 UNK        -0.5000 
     52 CA          5.3590  -12.3771  -42.4703 C.3       4 UNK         0.1400 
     53 CB          6.4831  -11.4257  -42.9072 C.3       4 UNK        -0.1800 
     54 N           4.1761  -12.1390  -43.3075 N.am      4 UNK        -0.5000 
     55 C           2.9753  -12.6932  -43.0949 C.2       3 UNK         0.5000 
     56 O           2.7368  -13.4457  -42.1480 O.2       3 UNK        -0.5000 
     57 CA          1.8953  -12.4143  -44.1585 C.3       3 UNK         0.1400 
     58 CB          2.2055  -13.2077  -45.4385 C.3       3 UNK        -0.1800 
     59 N           0.5597  -12.7865  -43.6890 N.am      3 UNK        -0.5000 
     60 C          -0.1535  -12.0946  -42.7900 C.2       2 UNK         0.5000 
     61 O           0.2022  -11.0067  -42.3326 O.2       2 UNK        -0.5000 
     62 CA         -1.4708  -12.7433  -42.3144 C.3       2 UNK         0.1400 
     63 CB         -2.4461  -11.7422  -41.6593 C.3       2 UNK        -0.1800 
     64 N          -2.1338  -13.5420  -43.3527 N.am      2 UNK        -0.5000 
     65 C          -2.7272  -13.0972  -44.4726 C.2       1 UNK         0.5000 
     66 O          -2.7662  -11.9088  -44.7934 O.2       1 UNK        -0.5000 
     67 C          -1.7247  -21.3419  -47.9180 C.2       11 UNK         0.5000 
     68 O          -2.3287  -21.9042  -48.8256 O.2       11 UNK        -0.5000 
     69 N          -2.2786  -21.0709  -46.7269 N.am      12 UNK        -0.5000 
     70 CA         -3.6524  -21.4231  -46.3536 C.3       12 UNK         0.1400 
     71 CB         -3.9767  -20.8385  -44.9735 C.3       12 UNK        -0.1800 
     72 C          -3.9219  -22.9402  -46.3869 C.2       12 UNK         0.5000 
     73 O          -5.0134  -23.3567  -46.7741 O.2       12 UNK        -0.5000 
     74 N          -2.9061  -23.7417  -46.0408 N.am      13 UNK        -0.5000 
     75 CA         -2.9137  -25.1992  -46.1760 C.3       13 UNK         0.1400 
     76 CB         -1.6750  -25.7714  -45.4705 C.3       13 UNK        -0.1800 
     77 C          -2.9769  -25.6851  -47.6410 C.2       13 UNK         0.5000 
     78 O          -3.4485  -26.7961  -47.8867 O.2       13 UNK        -0.5000 
     79 N          -2.5234  -24.8531  -48.5877 N.am      14 UNK        -0.5000 
     80 CA         -2.5608  -25.1052  -50.0230 C.3       14 UNK         0.1400 
     81 CB         -1.2872  -24.5292  -50.6674 C.3       14 UNK        -0.1800 
     82 C          -3.8511  -24.5075  -50.6112 C.2       14 UNK         0.5000 
     83 O          -3.8346  -23.4085  -51.1674 O.2       14 UNK        -0.5000 
     84 N          -4.9579  -25.2465  -50.4483 N.am      15 UNK        -0.5000 
     85 CA         -6.2837  -24.9897  -51.0274 C.3       15 UNK         0.1400 
     86 CB         -6.2521  -25.2476  -52.5492 C.3       15 UNK        -0.1800 
     87 C          -6.8677  -23.6038  -50.6750 C.2       15 UNK         0.5000 
     88 O          -7.4423  -22.9416  -51.5403 O.2       15 UNK        -0.5000 
     89 N          -6.6983  -23.1890  -49.4098 N.am      16 UNK        -0.5000 
     90 CA         -7.1283  -21.9025  -48.8461 C.3       16 UNK         0.1400 
     91 CB         -8.6666  -21.7688  -48.8722 C.3       16 UNK        -0.1800 
     92 C          -6.4045  -20.6888  -49.4685 C.2       16 UNK         0.5000 
     93 O          -6.9791  -19.6000  -49.5167 O.2       16 UNK        -0.5000 
     94 N          -5.1556  -20.8977  -49.9166 N.am      17 UNK        -0.5000 
     95 CA         -4.2824  -19.9306  -50.5891 C.3       17 UNK         0.1400 
     96 CB         -3.9000  -18.7825  -49.6314 C.3       17 UNK        -0.1800 
     97 C          -4.8919  -19.4475  -51.9211 C.2       17 UNK         0.5000 
     98 O          -4.9501  -18.2456  -52.1898 O.2       17 UNK        -0.5000 
     99 N          -5.3701  -20.4089  -52.7179 N.am      18 UNK        -0.5000 
    100 CA        -6.0815  -20.1982  -53.9724 C.3       18 UNK         0.1400 
    101 CB        -7.5708  -19.9305  -53.6738 C.3       18 UNK        -0.1800 
    102 C         -5.8736  -21.4127  -54.8933 C.2       18 UNK         0.5000 
    103 O         -5.0286  -22.2655  -54.6111 O.2       18 UNK        -0.5000 
    104 N         -6.6249  -21.4526  -56.0049 N.am      19 UNK        -0.5000 
    105 CA        -6.6781  -22.5324  -57.0044 C.3       19 UNK         0.1400 
    106 CB        -7.2872  -23.8053  -56.3782 C.3       19 UNK        -0.1800 
    107 C         -5.3318  -22.8164  -57.7097 C.2       19 UNK         0.5000 
    108 O         -5.1282  -23.9193  -58.2195 O.2       19 UNK        -0.5000 
    109 N         -4.4327  -21.8194  -57.7043 N.am      20 UNK        -0.5000 
    110 CA        -3.0403  -21.8611  -58.1691 C.3       20 UNK         0.1400 
    111 CB        -2.9721  -22.0908  -59.6934 C.3       20 UNK        -0.1800 
    112 C         -2.1435  -22.8446  -57.3807 C.2       20 UNK         0.5000 
    113 O         -1.0593  -23.1907  -57.8533 O.2       20 UNK        -0.5000 
    114 N         -2.5820  -23.2601  -56.1824 N.am      21 UNK        -0.5000 
    115 CA        -1.8713  -24.2056  -55.3179 C.3       21 UNK         0.1400 
    116 CB        -2.8716  -24.8187  -54.3282 C.3       21 UNK        -0.1800 
    117 C         -0.6753  -23.5753  -54.5758 C.2       21 UNK         0.5000 
    118 O          0.1440  -24.3105  -54.0241 O.2       21 UNK        -0.5000 
    119 N         -0.5875  -22.2383  -54.5850 N.am      22 UNK        -0.5000 
    120 CA         0.4951  -21.4373  -53.9894 C.3       22 UNK         0.1400 
    121 C          1.9070  -21.6715  -54.6079 C.2       22 UNK         0.5000 
    122 N          2.0269  -22.2379  -55.8033 N.am      22 UNK        -0.7600 
    123 O          2.9115  -21.3275  -53.9914 O.2       22 UNK        -0.5000 
    124 C124        0.1663  -19.9219  -54.0171 C.3       23 UNK        -0.0398 
    125 S125       -1.4371  -19.4954  -53.2559 S.3       23 UNK        -0.2404 
    126 C126       -1.3806  -17.6726  -53.3399 C.3       23 UNK        -0.0205 
    127 H127       -3.2036  -17.7771  -43.7377 H         1 UNK         0.0600 
    128 H128       -4.9653  -17.9112  -43.6204 H         1 UNK         0.0600 
    129 H129       -4.0221  -17.3150  -42.2486 H         1 UNK         0.0600 
    130 H130       -2.7868  -16.1560  -45.2016 H         1 UNK         0.3000 
    131 H131       -4.4194  -13.8076  -45.5488 H         1 UNK         0.0600 
    132 H132       -1.6597  -14.4371  -46.7194 H         1 UNK         0.0800 
    133 H133       -2.6980  -13.1218  -47.1995 H         1 UNK         0.0800 
    134 H134       -2.3634  -13.6336  -49.4440 H         1 UNK         0.0800 
    135 H135       -3.6549  -14.4494  -50.2799 H         1 UNK         0.0800 
    136 H136       -2.9412  -15.9097  -51.9700 H         1 UNK         0.1150 
    137 H137        0.7773  -18.0223  -51.6875 H         1 UNK         0.1150 
    138 H138       -0.4862  -15.4793  -48.4853 H         1 UNK         0.1150 
    139 H139        1.4851  -16.7460  -48.2048 H         1 UNK         0.0800 
    140 H140        2.3951  -16.8709  -49.6884 H         1 UNK         0.0800 
    141 H141       -0.7359  -19.2948  -49.4086 H         1 UNK         0.0800 
    142 H142       -0.4771  -18.8256  -47.7491 H         1 UNK         0.0800 
    143 H143        0.1216  -21.5701  -48.9560 H         1 UNK         0.0600 
    144 H144        0.7107  -20.5616  -46.2822 H         1 UNK         0.3000 
    145 H145        1.4083  -23.7520  -44.9056 H         1 UNK         0.0600 
    146 H146        3.3997  -21.5676  -45.7314 H         1 UNK         0.0600 
    147 H147        3.5289  -23.2741  -46.1403 H         1 UNK         0.0600 
    148 H148        3.6464  -22.7681  -44.4624 H         1 UNK         0.0600 
    149 H149        1.7663  -21.0767  -43.9402 H         1 UNK         0.3000 
    150 H150       -1.5483  -20.4958  -42.8291 H         1 UNK         0.0600 
    151 H151        0.9760  -21.1266  -41.2113 H         1 UNK         0.0600 
    152 H152       -0.5877  -21.9110  -41.0121 H         1 UNK         0.0600 
    153 H153       -0.4131  -20.2005  -40.6470 H         1 UNK         0.0600 
    154 H154        0.8164  -18.9809  -42.4863 H         1 UNK         0.3000 
    155 H155        1.6550  -17.7206  -45.0125 H         1 UNK         0.0600 
    156 H156       -0.9021  -16.0597  -45.1311 H         1 UNK         0.0600 
    157 H157       -0.2478  -16.9726  -46.4721 H         1 UNK         0.0600 
    158 H158        0.6570  -15.6311  -45.8157 H         1 UNK         0.0600 
    159 H159        2.0507  -16.7843  -43.0705 H         1 UNK         0.3000 
    160 H160        0.8392  -14.7063  -41.0459 H         1 UNK         0.0600 
    161 H161       -0.1906  -17.3073  -39.8152 H         1 UNK         0.0600 
    162 H162       -1.0373  -15.7722  -39.9070 H         1 UNK         0.0600 
    163 H163        0.3910  -15.9177  -38.8977 H         1 UNK         0.0600 
    164 H164        2.9005  -15.4571  -40.8556 H         1 UNK         0.3000 
    165 H165        4.4992  -17.2283  -39.6552 H         1 UNK         0.0600 
    166 H166        4.2156  -19.6810  -39.9024 H         1 UNK         0.0600 
    167 H167        4.4179  -19.5604  -41.6453 H         1 UNK         0.0600 
    168 H168        5.7600  -19.1772  -40.5685 H         1 UNK         0.0600 
    169 H169        5.6533  -16.1860  -41.2587 H         1 UNK         0.3000 
    170 H170        6.8086  -16.2130  -43.4266 H         1 UNK         0.0600 
    171 H171        6.4859  -15.7131  -45.8305 H         1 UNK         0.0600 
    172 H172        5.9411  -17.3447  -45.4778 H         1 UNK         0.0600 
    173 H173        4.7614  -16.0589  -45.7057 H         1 UNK         0.0600 
    174 H174        5.0096  -14.1056  -44.3088 H         1 UNK         0.3000 
    175 H175        5.0929  -12.1414  -41.4377 H         1 UNK         0.0600 
    176 H176        7.3704  -11.5579  -42.2865 H         1 UNK         0.0600 
    177 H177        6.7782  -11.5996  -43.9428 H         1 UNK         0.0600 
    178 H178        6.1767  -10.3835  -42.8147 H         1 UNK         0.0600 
    179 H179        4.3057  -11.5351  -44.1067 H         1 UNK         0.3000 
    180 H180        1.8982  -11.3477  -44.3926 H         1 UNK         0.0600 
    181 H181        2.3702  -14.2643  -45.2247 H         1 UNK         0.0600 
    182 H182        3.1080  -12.8324  -45.9222 H         1 UNK         0.0600 
    183 H183        1.3962  -13.1282  -46.1649 H         1 UNK         0.0600 
    184 H184        0.2034  -13.6776  -43.9978 H         1 UNK         0.3000 
    185 H185       -1.1859  -13.4526  -41.5374 H         1 UNK         0.0600 
    186 H186       -2.0002  -11.2865  -40.7745 H         1 UNK         0.0600 
    187 H187       -2.7186  -10.9333  -42.3374 H         1 UNK         0.0600 
    188 H188       -3.3633  -12.2371  -41.3400 H         1 UNK         0.0600 
    189 H189       -2.1176  -14.5448  -43.1917 H         1 UNK         0.3000 
    190 H190       -1.7370  -20.5485  -46.0431 H         1 UNK         0.3000 
    191 H191       -4.3182  -20.9562  -47.0811 H         1 UNK         0.0600 
    192 H192       -3.8109  -19.7623  -44.9587 H         1 UNK         0.0600 
    193 H193       -5.0209  -21.0128  -44.7114 H         1 UNK         0.0600 
    194 H194       -3.3632  -21.2859  -44.1921 H         1 UNK         0.0600 
    195 H195       -2.0655  -23.3208  -45.6603 H         1 UNK         0.3000 
    196 H196       -3.8021  -25.5783  -45.6668 H         1 UNK         0.0600 
    197 H197       -0.7519  -25.4171  -45.9300 H         1 UNK         0.0600 
    198 H198       -1.6675  -26.8612  -45.5151 H         1 UNK         0.0600 
    199 H199       -1.6545  -25.4886  -44.4178 H         1 UNK         0.0600 
    200 H200       -2.2337  -23.9189  -48.3229 H         1 UNK         0.3000 
    201 H201       -2.5634  -26.1802  -50.2154 H         1 UNK         0.0600 
    202 H202       -1.2263  -23.4453  -50.5749 H         1 UNK         0.0600 
    203 H203       -0.3904  -24.9517  -50.2143 H         1 UNK         0.0600 
    204 H204       -1.2553  -24.7650  -51.7299 H         1 UNK         0.0600 
    205 H205       -4.8740  -26.1026  -49.9160 H         1 UNK         0.3000 
    206 H206       -6.9588  -25.7228  -50.5841 H         1 UNK         0.0600 
    207 H207       -5.8466  -26.2331  -52.7773 H         1 UNK         0.0600 
    208 H208       -7.2543  -25.2027  -52.9767 H         1 UNK         0.0600 
    209 H209       -5.6443  -24.5065  -53.0689 H         1 UNK         0.0600 
    210 H210       -6.1785  -23.7805  -48.7733 H         1 UNK         0.3000 
    211 H211       -6.8358  -21.9108  -47.7970 H         1 UNK         0.0600 
    212 H212       -9.1466  -22.6437  -48.4341 H         1 UNK         0.0600 
    213 H213       -8.9922  -20.9010  -48.2976 H         1 UNK         0.0600 
    214 H214       -9.0486  -21.6471  -49.8861 H         1 UNK         0.0600 
    215 H215       -4.7803  -21.8385  -49.8774 H         1 UNK         0.3000 
    216 H216       -3.3685  -20.4687  -50.8447 H         1 UNK         0.0600 
    217 H217       -4.7277  -18.0925  -49.4648 H         1 UNK         0.0600 
    218 H218       -3.0717  -18.2084  -50.0397 H         1 UNK         0.0600 
    219 H219       -3.5797  -19.1561  -48.6605 H         1 UNK         0.0600 
    220 H220       -5.2365  -21.3809  -52.4637 H         1 UNK         0.3000 
    221 H221       -5.6553  -19.3330  -54.4839 H         1 UNK         0.0600 
    222 H222       -8.0514  -20.8041  -53.2315 H         1 UNK         0.0600 
    223 H223       -7.6919  -19.1000  -52.9779 H         1 UNK         0.0600 
    224 H224       -8.1229  -19.6693  -54.5768 H         1 UNK         0.0600 
    225 H225       -7.2675  -20.6898  -56.1677 H         1 UNK         0.3000 
    226 H226       -7.3586  -22.1914  -57.7857 H         1 UNK         0.0600 
    227 H227       -8.2368  -23.5891  -55.8888 H         1 UNK         0.0600 
    228 H228       -7.4812  -24.5640  -57.1372 H         1 UNK         0.0600 
    229 H229       -6.6220  -24.2484  -55.6361 H         1 UNK         0.0600 
    230 H230       -4.7125  -20.9581  -57.2571 H         1 UNK         0.3000 
    231 H231       -2.6317  -20.8690  -57.9720 H         1 UNK         0.0600 
    232 H232       -3.2844  -23.0988  -59.9672 H         1 UNK         0.0600 
    233 H233       -1.9559  -21.9540  -60.0649 H         1 UNK         0.0600 
    234 H234       -3.6079  -21.3850  -60.2278 H         1 UNK         0.0600 
    235 H235       -3.4724  -22.9199  -55.8332 H         1 UNK         0.3000 
    236 H236       -1.4788  -25.0124  -55.9403 H         1 UNK         0.0600 
    237 H237       -3.2632  -24.0633  -53.6481 H         1 UNK         0.0600 
    238 H238       -3.7168  -25.2721  -54.8465 H         1 UNK         0.0600 
    239 H239       -2.4037  -25.5970  -53.7250 H         1 UNK         0.0600 
    240 H240       -1.3246  -21.7195  -55.0373 H         1 UNK         0.3000 
    241 H241        0.5673  -21.7414  -52.9434 H         1 UNK         0.0600 
    242 H242        2.9448  -22.3860  -56.1924 H         1 UNK         0.3800 
    243 H243        1.2107  -22.5297  -56.3192 H         1 UNK         0.3800 
    244 H244        0.1559  -19.5600  -55.0469 H         1 UNK         0.0800 
    245 H245        0.9492  -19.3604  -53.5061 H         1 UNK         0.0800 
    246 H246       -2.3374  -17.3276  -53.7352 H         1 UNK         0.0800 
    247 H247       -0.6226  -17.3432  -54.0515 H         1 UNK         0.0800 
@<TRIPOS>BOND
     1    1    2 1    
     2    1  127 1    
     3    1  128 1    
     4    1  129 1    
     5    2    3 2    
     6    2    4 am   BACKBONE|DICT|INTERRES
     7    4    5 1    
     8    4  130 1    
     9    5    6 1    
    10    5   65 1    
    11    5  131 1    
    12    6    7 1    
    13    6  132 1    
    14    6  133 1    
    15    7    8 1    
    16    8    9 1    
    17    8  134 1    
    18    8  135 1    
    19    9   10 ar   
    20    9   14 ar   
    21   10   11 ar   
    22   10  136 1    
    23   11   12 ar   
    24   11  126 1    
    25   12   13 ar   
    26   12  137 1    
    27   13   14 ar   
    28   13   15 1    
    29   14  138 1    
    30   15   16 1    
    31   15  139 1    
    32   15  140 1    
    33   16   17 1    
    34   17   18 1    
    35   17  141 1    
    36   17  142 1    
    37   18   19 1    
    38   18   67 1    
    39   18  143 1    
    40   19   20 am   BACKBONE|DICT|INTERRES
    41   19  144 1    
    42   20   21 2    
    43   20   22 1    
    44   22   23 1    
    45   22   24 1    
    46   22  145 1    
    47   23  146 1    
    48   23  147 1    
    49   23  148 1    
    50   24   25 am   BACKBONE|DICT|INTERRES
    51   24  149 1    
    52   25   26 2    
    53   25   27 1    
    54   27   28 1    
    55   27   29 1    
    56   27  150 1    
    57   28  151 1    
    58   28  152 1    
    59   28  153 1    
    60   29   30 am   BACKBONE|DICT|INTERRES
    61   29  154 1    
    62   30   31 2    
    63   30   32 1    
    64   32   33 1    
    65   32   34 1    
    66   32  155 1    
    67   33  156 1    
    68   33  157 1    
    69   33  158 1    
    70   34   35 am   BACKBONE|DICT|INTERRES
    71   34  159 1    
    72   35   36 2    
    73   35   37 1    
    74   37   38 1    
    75   37   39 1    
    76   37  160 1    
    77   38  161 1    
    78   38  162 1    
    79   38  163 1    
    80   39   40 am   BACKBONE|DICT|INTERRES
    81   39  164 1    
    82   40   41 2    
    83   40   42 1    
    84   42   43 1    
    85   42   44 1    
    86   42  165 1    
    87   43  166 1    
    88   43  167 1    
    89   43  168 1    
    90   44   45 am   BACKBONE|DICT|INTERRES
    91   44  169 1    
    92   45   46 2    
    93   45   47 1    
    94   47   48 1    
    95   47   49 1    
    96   47  170 1    
    97   48  171 1    
    98   48  172 1    
    99   48  173 1    
   100   49   50 am   BACKBONE|DICT|INTERRES
   101   49  174 1    
   102   50   51 2    
   103   50   52 1    
   104   52   53 1    
   105   52   54 1    
   106   52  175 1    
   107   53  176 1    
   108   53  177 1    
   109   53  178 1    
   110   54   55 am   BACKBONE|DICT|INTERRES
   111   54  179 1    
   112   55   56 2    
   113   55   57 1    
   114   57   58 1    
   115   57   59 1    
   116   57  180 1    
   117   58  181 1    
   118   58  182 1    
   119   58  183 1    
   120   59   60 am   BACKBONE|DICT|INTERRES
   121   59  184 1    
   122   60   61 2    
   123   60   62 1    
   124   62   63 1    
   125   62   64 1    
   126   62  185 1    
   127   63  186 1    
   128   63  187 1    
   129   63  188 1    
   130   64   65 am   BACKBONE|DICT|INTERRES
   131   64  189 1    
   132   65   66 2    
   133   67   68 2    
   134   67   69 am   BACKBONE|DICT|INTERRES
   135   69   70 1    
   136   69  190 1    
   137   70   71 1    
   138   70   72 1    
   139   70  191 1    
   140   71  192 1    
   141   71  193 1    
   142   71  194 1    
   143   72   73 2    
   144   72   74 am   BACKBONE|DICT|INTERRES
   145   74   75 1    
   146   74  195 1    
   147   75   76 1    
   148   75   77 1    
   149   75  196 1    
   150   76  197 1    
   151   76  198 1    
   152   76  199 1    
   153   77   78 2    
   154   77   79 am   BACKBONE|DICT|INTERRES
   155   79   80 1    
   156   79  200 1    
   157   80   81 1    
   158   80   82 1    
   159   80  201 1    
   160   81  202 1    
   161   81  203 1    
   162   81  204 1    
   163   82   83 2    
   164   82   84 am   BACKBONE|DICT|INTERRES
   165   84   85 1    
   166   84  205 1    
   167   85   86 1    
   168   85   87 1    
   169   85  206 1    
   170   86  207 1    
   171   86  208 1    
   172   86  209 1    
   173   87   88 2    
   174   87   89 am   BACKBONE|DICT|INTERRES
   175   89   90 1    
   176   89  210 1    
   177   90   91 1    
   178   90   92 1    
   179   90  211 1    
   180   91  212 1    
   181   91  213 1    
   182   91  214 1    
   183   92   93 2    
   184   92   94 am   BACKBONE|DICT|INTERRES
   185   94   95 1    
   186   94  215 1    
   187   95   96 1    
   188   95   97 1    
   189   95  216 1    
   190   96  217 1    
   191   96  218 1    
   192   96  219 1    
   193   97   98 2    
   194   97   99 am   BACKBONE|DICT|INTERRES
   195   99  100 1    
   196   99  220 1    
   197  100  101 1    
   198  100  102 1    
   199  100  221 1    
   200  101  222 1    
   201  101  223 1    
   202  101  224 1    
   203  102  103 2    
   204  102  104 am   BACKBONE|DICT|INTERRES
   205  104  105 1    
   206  104  225 1    
   207  105  106 1    
   208  105  107 1    
   209  105  226 1    
   210  106  227 1    
   211  106  228 1    
   212  106  229 1    
   213  107  108 2    
   214  107  109 am   BACKBONE|DICT|INTERRES
   215  109  110 1    
   216  109  230 1    
   217  110  111 1    
   218  110  112 1    
   219  110  231 1    
   220  111  232 1    
   221  111  233 1    
   222  111  234 1    
   223  112  113 2    
   224  112  114 am   BACKBONE|DICT|INTERRES
   225  114  115 1    
   226  114  235 1    
   227  115  116 1    
   228  115  117 1    
   229  115  236 1    
   230  116  237 1    
   231  116  238 1    
   232  116  239 1    
   233  117  118 2    
   234  117  119 am   BACKBONE|DICT|INTERRES
   235  119  120 1    
   236  119  240 1    
   237  120  121 1    
   238  120  124 1    
   239  120  241 1    
   240  121  122 am   BACKBONE|DICT|INTERRES
   241  121  123 2    
   242  122  242 1    
   243  122  243 1    
   244  124  125 1    
   245  124  244 1    
   246  124  245 1    
   247  125  126 1    
   248  126  246 1    
   249  126  247 1    
@<TRIPOS>SUBSTRUCTURE
     1 UNK         1 GROUP             0       ****    0 ROOT    
