@<TRIPOS>MOLECULE
3R540
247   249    1
SMALL
USER_CHARGES


@<TRIPOS>ATOM
      1 CA         -6.9588  -15.5419  -49.5480 C.3       0 UNK        -0.1800 
      2 C          -5.5611  -15.9290  -49.0892 C.2       0 UNK         0.5000 
      3 O          -4.5903  -15.2606  -49.4450 O.2       0 UNK        -0.5000 
      4 N          -5.4503  -17.0100  -48.3076 N.am      1 UNK        -0.5000 
      5 CA         -4.2042  -17.5132  -47.7239 C.3       1 UNK         0.1400 
      6 C6         -4.2811  -19.0287  -47.3978 C.3       23 UNK        -0.0398 
      7 S7         -5.6678  -19.5562  -46.3238 S.3       23 UNK        -0.2404 
      8 C8         -6.7376  -20.4908  -47.4649 C.3       23 UNK        -0.0205 
      9 C9         -6.0523  -21.7226  -48.0419 C.ar      23 UNK        -0.0193 
     10 C10        -5.6990  -21.7540  -49.3939 C.ar      23 UNK        -0.1150 
     11 C11        -5.0752  -22.8774  -49.9412 C.ar      23 UNK        -0.0193 
     12 C12        -4.8311  -23.9879  -49.1315 C.ar      23 UNK        -0.1150 
     13 C13        -5.1881  -23.9762  -47.7798 C.ar      23 UNK        -0.0193 
     14 C14        -5.7919  -22.8371  -47.2369 C.ar      23 UNK        -0.1150 
     15 C15        -4.9519  -25.2158  -46.9314 C.3       23 UNK        -0.0205 
     16 S16        -3.1769  -25.5398  -46.6784 S.3       23 UNK        -0.2404 
     17 C17        -2.8859  -24.9913  -44.9597 C.3       23 UNK        -0.0398 
     18 CA         -1.7813  -23.9054  -44.8135 C.3       11 UNK         0.1400 
     19 N          -1.9513  -23.0873  -43.6068 N.am      11 UNK        -0.5000 
     20 C          -2.0074  -23.5327  -42.3416 C.2       10 UNK         0.5000 
     21 O          -1.9449  -24.7252  -42.0410 O.2       10 UNK        -0.5000 
     22 CA         -2.1279  -22.4898  -41.2107 C.3       10 UNK         0.1400 
     23 CB         -0.8574  -22.5026  -40.3448 C.3       10 UNK        -0.1800 
     24 N          -2.3608  -21.1247  -41.6844 N.am      10 UNK        -0.5000 
     25 C          -3.5137  -20.6610  -42.1858 C.2       9 UNK         0.5000 
     26 O          -4.5533  -21.3194  -42.2268 O.2       9 UNK        -0.5000 
     27 CA         -3.4864  -19.2382  -42.7812 C.3       9 UNK         0.1400 
     28 CB         -3.8229  -18.1931  -41.7085 C.3       9 UNK        -0.1800 
     29 N          -2.2095  -18.8899  -43.4125 N.am      9 UNK        -0.5000 
     30 C          -1.6798  -19.5340  -44.4625 C.2       8 UNK         0.5000 
     31 O          -2.1794  -20.5309  -44.9793 O.2       8 UNK        -0.5000 
     32 CA         -0.3187  -19.0364  -44.9707 C.3       8 UNK         0.1400 
     33 CB         -0.4493  -17.7725  -45.8320 C.3       8 UNK        -0.1800 
     34 N           0.5958  -18.8075  -43.8555 N.am      8 UNK        -0.5000 
     35 C           1.1542  -19.8036  -43.1547 C.2       7 UNK         0.5000 
     36 O           1.0258  -20.9935  -43.4490 O.2       7 UNK        -0.5000 
     37 CA          1.9683  -19.4073  -41.9123 C.3       7 UNK         0.1400 
     38 CB          3.4242  -19.1063  -42.2939 C.3       7 UNK        -0.1800 
     39 N           1.3904  -18.2592  -41.2095 N.am      7 UNK        -0.5000 
     40 C           0.2370  -18.3149  -40.5268 C.2       6 UNK         0.5000 
     41 O          -0.4419  -19.3346  -40.4277 O.2       6 UNK        -0.5000 
     42 CA         -0.2695  -17.0194  -39.8683 C.3       6 UNK         0.1400 
     43 CB          0.2816  -16.8941  -38.4403 C.3       6 UNK        -0.1800 
     44 N           0.0499  -15.8034  -40.6139 N.am      6 UNK        -0.5000 
     45 C          -0.3209  -15.5355  -41.8728 C.2       5 UNK         0.5000 
     46 O          -0.9604  -16.3172  -42.5811 O.2       5 UNK        -0.5000 
     47 CA          0.1203  -14.1779  -42.4575 C.3       5 UNK         0.1400 
     48 CB          0.8585  -13.2592  -41.4576 C.3       5 UNK        -0.1800 
     49 N           0.9227  -14.3458  -43.6698 N.am      5 UNK        -0.5000 
     50 C           2.0441  -15.0709  -43.8129 C.2       4 UNK         0.5000 
     51 O           2.5586  -15.7175  -42.8987 O.2       4 UNK        -0.5000 
     52 CA          2.6797  -15.0977  -45.2180 C.3       4 UNK         0.1400 
     53 CB          3.3300  -16.4567  -45.5289 C.3       4 UNK        -0.1800 
     54 N           1.6826  -14.7981  -46.2483 N.am      4 UNK        -0.5000 
     55 C           1.6168  -13.6665  -46.9597 C.2       3 UNK         0.5000 
     56 O           2.4452  -12.7583  -46.8923 O.2       3 UNK        -0.5000 
     57 CA          0.3915  -13.5132  -47.8821 C.3       3 UNK         0.1400 
     58 CB          0.7099  -14.0771  -49.2708 C.3       3 UNK        -0.1800 
     59 N          -0.8296  -14.1499  -47.3659 N.am      3 UNK        -0.5000 
     60 C          -1.4603  -13.7642  -46.2444 C.2       2 UNK         0.5000 
     61 O          -1.0154  -12.8941  -45.4952 O.2       2 UNK        -0.5000 
     62 CA         -2.7852  -14.4513  -45.8686 C.3       2 UNK         0.1400 
     63 CB         -3.9135  -13.4244  -45.6684 C.3       2 UNK        -0.1800 
     64 N          -3.2180  -15.4461  -46.8514 N.am      2 UNK        -0.5000 
     65 C          -3.7528  -16.6316  -46.5378 C.2       1 UNK         0.5000 
     66 O          -3.9123  -17.0133  -45.3799 O.2       1 UNK        -0.5000 
     67 C          -0.3366  -24.4542  -44.9518 C.2       11 UNK         0.5000 
     68 O          -0.1026  -25.3866  -45.7210 O.2       11 UNK        -0.5000 
     69 N           0.6248  -23.8657  -44.2242 N.am      12 UNK        -0.5000 
     70 CA          2.0373  -24.2445  -44.2750 C.3       12 UNK         0.1400 
     71 CB          2.7070  -23.9209  -42.9295 C.3       12 UNK        -0.1800 
     72 C           2.7629  -23.5424  -45.4345 C.2       12 UNK         0.5000 
     73 O           3.5804  -24.1696  -46.1084 O.2       12 UNK        -0.5000 
     74 N           2.4372  -22.2611  -45.6489 N.am      13 UNK        -0.5000 
     75 CA          3.0400  -21.3949  -46.6646 C.3       13 UNK         0.1400 
     76 CB          3.6296  -20.1569  -45.9702 C.3       13 UNK        -0.1800 
     77 C           2.0444  -20.9967  -47.7708 C.2       13 UNK         0.5000 
     78 O           2.3534  -20.1078  -48.5643 O.2       13 UNK        -0.5000 
     79 N           0.8764  -21.6531  -47.8353 N.am      14 UNK        -0.5000 
     80 CA         -0.1588  -21.4508  -48.8571 C.3       14 UNK         0.1400 
     81 CB         -1.5050  -21.9691  -48.3188 C.3       14 UNK        -0.1800 
     82 C           0.2268  -22.0995  -50.2064 C.2       14 UNK         0.5000 
     83 O          -0.4743  -22.9852  -50.6994 O.2       14 UNK        -0.5000 
     84 N           1.3600  -21.6626  -50.7679 N.am      15 UNK        -0.5000 
     85 CA          2.0056  -22.1706  -51.9804 C.3       15 UNK         0.1400 
     86 CB          3.4760  -21.7142  -51.9646 C.3       15 UNK        -0.1800 
     87 C           1.2765  -21.7694  -53.2821 C.2       15 UNK         0.5000 
     88 O           1.8795  -21.1589  -54.1674 O.2       15 UNK        -0.5000 
     89 N          -0.0129  -22.1219  -53.3705 N.am      16 UNK        -0.5000 
     90 CA         -0.9389  -21.8410  -54.4716 C.3       16 UNK         0.1400 
     91 CB         -0.5777  -22.6936  -55.7080 C.3       16 UNK        -0.1800 
     92 C          -1.0539  -20.3289  -54.7614 C.2       16 UNK         0.5000 
     93 O          -0.9841  -19.5320  -53.8254 O.2       16 UNK        -0.5000 
     94 N          -1.2089  -19.9519  -56.0368 N.am      17 UNK        -0.5000 
     95 CA         -1.4525  -18.5875  -56.5183 C.3       17 UNK         0.1400 
     96 CB         -1.6079  -18.6316  -58.0464 C.3       17 UNK        -0.1800 
     97 C          -0.3942  -17.5379  -56.1160 C.2       17 UNK         0.5000 
     98 O          -0.6791  -16.3410  -56.1747 O.2       17 UNK        -0.5000 
     99 N           0.8012  -17.9918  -55.7172 N.am      18 UNK        -0.5000 
    100 CA         1.8888  -17.1508  -55.2259 C.3       18 UNK         0.1400 
    101 CB         3.1999  -17.9498  -55.2866 C.3       18 UNK        -0.1800 
    102 C          1.6587  -16.6088  -53.8005 C.2       18 UNK         0.5000 
    103 O          2.2797  -15.6034  -53.4519 O.2       18 UNK        -0.5000 
    104 N          0.8111  -17.2701  -52.9959 N.am      19 UNK        -0.5000 
    105 CA         0.6241  -16.9413  -51.5775 C.3       19 UNK         0.1400 
    106 CB         1.6267  -17.7571  -50.7431 C.3       19 UNK        -0.1800 
    107 C         -0.8121  -17.1358  -51.0562 C.2       19 UNK         0.5000 
    108 O         -1.0718  -16.8358  -49.8883 O.2       19 UNK        -0.5000 
    109 N         -1.7172  -17.6464  -51.8940 N.am      20 UNK        -0.5000 
    110 CA        -3.0737  -18.0276  -51.5309 C.3       20 UNK         0.1400 
    111 CB        -3.0365  -19.4349  -50.9111 C.3       20 UNK        -0.1800 
    112 C         -4.0039  -17.9552  -52.7525 C.2       20 UNK         0.5000 
    113 O         -3.5601  -17.6360  -53.8566 O.2       20 UNK        -0.5000 
    114 N         -5.2936  -18.2318  -52.5232 N.am      21 UNK        -0.5000 
    115 CA        -6.3562  -18.1357  -53.5267 C.3       21 UNK         0.1400 
    116 CB        -7.6996  -17.9840  -52.7946 C.3       21 UNK        -0.1800 
    117 C         -6.4195  -19.3243  -54.5081 C.2       21 UNK         0.5000 
    118 O         -7.0527  -19.1919  -55.5564 O.2       21 UNK        -0.5000 
    119 N         -5.8164  -20.4650  -54.1455 N.am      22 UNK        -0.5000 
    120 CA        -5.8591  -21.7203  -54.9160 C.3       22 UNK         0.1400 
    121 C         -5.1632  -21.6056  -56.3003 C.2       22 UNK         0.5000 
    122 N         -5.8369  -21.9741  -57.3812 N.am      22 UNK        -0.7600 
    123 O         -3.9967  -21.2358  -56.3926 O.2       22 UNK        -0.5000 
    124 C124       -5.2671  -22.9165  -54.1275 C.3       23 UNK        -0.0398 
    125 S125       -6.0635  -23.1808  -52.5069 S.3       23 UNK        -0.2404 
    126 C126       -4.6529  -22.8845  -51.4005 C.3       23 UNK        -0.0205 
    127 H127       -6.9585  -15.3356  -50.6181 H         1 UNK         0.0600 
    128 H128       -7.6823  -16.3342  -49.3545 H         1 UNK         0.0600 
    129 H129       -7.2868  -14.6421  -49.0278 H         1 UNK         0.0600 
    130 H130       -6.2857  -17.4890  -48.0030 H         1 UNK         0.3000 
    131 H131       -3.4187  -17.4146  -48.4752 H         1 UNK         0.0600 
    132 H132       -3.3506  -19.3576  -46.9387 H         1 UNK         0.0800 
    133 H133       -4.3356  -19.5830  -48.3309 H         1 UNK         0.0800 
    134 H134       -7.0788  -19.8274  -48.2608 H         1 UNK         0.0800 
    135 H135       -7.6334  -20.8036  -46.9268 H         1 UNK         0.0800 
    136 H136       -5.9143  -20.9042  -50.0246 H         1 UNK         0.1150 
    137 H137       -4.3597  -24.8658  -49.5509 H         1 UNK         0.1150 
    138 H138       -6.0707  -22.8182  -46.1926 H         1 UNK         0.1150 
    139 H139       -5.4786  -25.1484  -45.9789 H         1 UNK         0.0800 
    140 H140       -5.3852  -26.0740  -47.4471 H         1 UNK         0.0800 
    141 H141       -2.6496  -25.8685  -44.3556 H         1 UNK         0.0800 
    142 H142       -3.8228  -24.6038  -44.5588 H         1 UNK         0.0800 
    143 H143       -1.9072  -23.2030  -45.6373 H         1 UNK         0.0600 
    144 H144       -2.0293  -22.0898  -43.7796 H         1 UNK         0.3000 
    145 H145       -2.9716  -22.7864  -40.5845 H         1 UNK         0.0600 
    146 H146       -0.9606  -21.8410  -39.4848 H         1 UNK         0.0600 
    147 H147       -0.6511  -23.5013  -39.9578 H         1 UNK         0.0600 
    148 H148        0.0178  -22.1827  -40.9121 H         1 UNK         0.0600 
    149 H149       -1.5779  -20.4838  -41.6023 H         1 UNK         0.3000 
    150 H150       -4.2548  -19.1906  -43.5553 H         1 UNK         0.0600 
    151 H151       -4.8072  -18.3802  -41.2778 H         1 UNK         0.0600 
    152 H152       -3.8358  -17.1871  -42.1290 H         1 UNK         0.0600 
    153 H153       -3.0995  -18.2100  -40.8941 H         1 UNK         0.0600 
    154 H154       -1.7418  -18.0590  -43.0627 H         1 UNK         0.3000 
    155 H155        0.0990  -19.8194  -45.6069 H         1 UNK         0.0600 
    156 H156        0.5061  -17.5012  -46.2768 H         1 UNK         0.0600 
    157 H157       -1.1393  -17.9406  -46.6587 H         1 UNK         0.0600 
    158 H158       -0.8160  -16.9228  -45.2558 H         1 UNK         0.0600 
    159 H159        0.6860  -17.8615  -43.5120 H         1 UNK         0.3000 
    160 H160        1.9675  -20.2611  -41.2312 H         1 UNK         0.0600 
    161 H161        3.4955  -18.2762  -42.9968 H         1 UNK         0.0600 
    162 H162        3.8898  -19.9742  -42.7623 H         1 UNK         0.0600 
    163 H163        4.0185  -18.8541  -41.4157 H         1 UNK         0.0600 
    164 H164        1.8732  -17.3737  -41.2952 H         1 UNK         0.3000 
    165 H165       -1.3566  -17.0858  -39.8053 H         1 UNK         0.0600 
    166 H166       -0.1456  -16.0332  -37.9257 H         1 UNK         0.0600 
    167 H167        0.0380  -17.7777  -37.8487 H         1 UNK         0.0600 
    168 H168        1.3669  -16.7849  -38.4359 H         1 UNK         0.0600 
    169 H169        0.5989  -15.1114  -40.1253 H         1 UNK         0.3000 
    170 H170       -0.7960  -13.6690  -42.7597 H         1 UNK         0.0600 
    171 H171        0.2429  -13.0493  -40.5819 H         1 UNK         0.0600 
    172 H172        1.7983  -13.6932  -41.1141 H         1 UNK         0.0600 
    173 H173        1.0918  -12.2986  -41.9171 H         1 UNK         0.0600 
    174 H174        0.5643  -13.8573  -44.4817 H         1 UNK         0.3000 
    175 H175        3.4679  -14.3425  -45.2197 H         1 UNK         0.0600 
    176 H176        2.6228  -17.2748  -45.4092 H         1 UNK         0.0600 
    177 H177        3.7142  -16.4899  -46.5486 H         1 UNK         0.0600 
    178 H178        4.1699  -16.6511  -44.8610 H         1 UNK         0.0600 
    179 H179        0.9447  -15.4750  -46.3712 H         1 UNK         0.3000 
    180 H180        0.1885  -12.4453  -47.9872 H         1 UNK         0.0600 
    181 H181        0.9731  -15.1327  -49.2099 H         1 UNK         0.0600 
    182 H182        1.5546  -13.5549  -49.7222 H         1 UNK         0.0600 
    183 H183       -0.1380  -13.9737  -49.9481 H         1 UNK         0.0600 
    184 H184       -1.2191  -14.8959  -47.9248 H         1 UNK         0.3000 
    185 H185       -2.5935  -14.9367  -44.9089 H         1 UNK         0.0600 
    186 H186       -3.6425  -12.6773  -44.9213 H         1 UNK         0.0600 
    187 H187       -4.1433  -12.8975  -46.5952 H         1 UNK         0.0600 
    188 H188       -4.8275  -13.9077  -45.3228 H         1 UNK         0.0600 
    189 H189       -3.2285  -15.1619  -47.8254 H         1 UNK         0.3000 
    190 H190        0.3907  -23.0635  -43.6520 H         1 UNK         0.3000 
    191 H191        2.1165  -25.3227  -44.4310 H         1 UNK         0.0600 
    192 H192        2.7075  -22.8522  -42.7160 H         1 UNK         0.0600 
    193 H193        3.7457  -24.2534  -42.9245 H         1 UNK         0.0600 
    194 H194        2.2003  -24.4256  -42.1067 H         1 UNK         0.0600 
    195 H195        1.7853  -21.8217  -45.0048 H         1 UNK         0.3000 
    196 H196        3.8598  -21.9122  -47.1665 H         1 UNK         0.0600 
    197 H197        4.1484  -19.5118  -46.6804 H         1 UNK         0.0600 
    198 H198        4.3522  -20.4404  -45.2052 H         1 UNK         0.0600 
    199 H199        2.8524  -19.5622  -45.4955 H         1 UNK         0.0600 
    200 H200        0.7248  -22.4065  -47.1817 H         1 UNK         0.3000 
    201 H201       -0.2672  -20.3787  -49.0361 H         1 UNK         0.0600 
    202 H202       -1.7978  -21.4404  -47.4134 H         1 UNK         0.0600 
    203 H203       -1.4662  -23.0350  -48.0909 H         1 UNK         0.0600 
    204 H204       -2.3043  -21.8217  -49.0460 H         1 UNK         0.0600 
    205 H205        1.8661  -20.9406  -50.2639 H         1 UNK         0.3000 
    206 H206        1.9972  -23.2615  -51.9372 H         1 UNK         0.0600 
    207 H207        3.9879  -22.0625  -51.0673 H         1 UNK         0.0600 
    208 H208        4.0210  -22.1117  -52.8218 H         1 UNK         0.0600 
    209 H209        3.5583  -20.6267  -51.9961 H         1 UNK         0.0600 
    210 H210       -0.4148  -22.5710  -52.5518 H         1 UNK         0.3000 
    211 H211       -1.9231  -22.1553  -54.1255 H         1 UNK         0.0600 
    212 H212        0.3605  -22.3739  -56.1631 H         1 UNK         0.0600 
    213 H213       -1.3565  -22.6392  -56.4696 H         1 UNK         0.0600 
    214 H214       -0.4731  -23.7448  -55.4392 H         1 UNK         0.0600 
    215 H215       -1.2767  -20.6788  -56.7338 H         1 UNK         0.3000 
    216 H216       -2.4035  -18.2625  -56.0951 H         1 UNK         0.0600 
    217 H217       -1.8282  -17.6415  -58.4479 H         1 UNK         0.0600 
    218 H218       -2.4277  -19.2880  -58.3397 H         1 UNK         0.0600 
    219 H219       -0.6988  -18.9889  -58.5318 H         1 UNK         0.0600 
    220 H220        0.9443  -18.9914  -55.6724 H         1 UNK         0.3000 
    221 H221        1.9861  -16.2913  -55.8926 H         1 UNK         0.0600 
    222 H222        3.1731  -18.8169  -54.6259 H         1 UNK         0.0600 
    223 H223        3.4023  -18.3031  -56.2978 H         1 UNK         0.0600 
    224 H224        4.0471  -17.3337  -54.9826 H         1 UNK         0.0600 
    225 H225        0.3317  -18.0937  -53.3471 H         1 UNK         0.3000 
    226 H226        0.8357  -15.8820  -51.4294 H         1 UNK         0.0600 
    227 H227        2.6553  -17.5112  -51.0070 H         1 UNK         0.0600 
    228 H228        1.5139  -17.5643  -49.6754 H         1 UNK         0.0600 
    229 H229        1.4889  -18.8264  -50.8996 H         1 UNK         0.0600 
    230 H230       -1.4620  -17.8971  -52.8436 H         1 UNK         0.3000 
    231 H231       -3.4618  -17.3160  -50.8027 H         1 UNK         0.0600 
    232 H232       -2.4400  -19.4466  -49.9994 H         1 UNK         0.0600 
    233 H233       -2.6025  -20.1613  -51.5992 H         1 UNK         0.0600 
    234 H234       -4.0334  -19.7773  -50.6467 H         1 UNK         0.0600 
    235 H235       -5.5876  -18.4738  -51.5893 H         1 UNK         0.3000 
    236 H236       -6.1922  -17.2341  -54.1210 H         1 UNK         0.0600 
    237 H237       -8.5231  -17.8828  -53.5028 H         1 UNK         0.0600 
    238 H238       -7.9146  -18.8475  -52.1638 H         1 UNK         0.0600 
    239 H239       -7.7086  -17.0955  -52.1640 H         1 UNK         0.0600 
    240 H240       -5.3137  -20.4883  -53.2734 H         1 UNK         0.3000 
    241 H241       -6.9148  -21.9397  -55.0886 H         1 UNK         0.0600 
    242 H242       -6.7955  -22.2827  -57.3288 H         1 UNK         0.3800 
    243 H243       -5.3842  -21.9187  -58.2801 H         1 UNK         0.3800 
    244 H244       -4.1926  -22.7896  -53.9925 H         1 UNK         0.0800 
    245 H245       -5.3871  -23.8374  -54.7011 H         1 UNK         0.0800 
    246 H246       -4.1902  -21.9318  -51.6507 H         1 UNK         0.0800 
    247 H247       -3.8918  -23.6475  -51.5727 H         1 UNK         0.0800 
@<TRIPOS>BOND
     1    1    2 1    
     2    1  127 1    
     3    1  128 1    
     4    1  129 1    
     5    2    3 2    
     6    2    4 am   BACKBONE|DICT|INTERRES
     7    4    5 1    
     8    4  130 1    
     9    5    6 1    
    10    5   65 1    
    11    5  131 1    
    12    6    7 1    
    13    6  132 1    
    14    6  133 1    
    15    7    8 1    
    16    8    9 1    
    17    8  134 1    
    18    8  135 1    
    19    9   10 ar   
    20    9   14 ar   
    21   10   11 ar   
    22   10  136 1    
    23   11   12 ar   
    24   11  126 1    
    25   12   13 ar   
    26   12  137 1    
    27   13   14 ar   
    28   13   15 1    
    29   14  138 1    
    30   15   16 1    
    31   15  139 1    
    32   15  140 1    
    33   16   17 1    
    34   17   18 1    
    35   17  141 1    
    36   17  142 1    
    37   18   19 1    
    38   18   67 1    
    39   18  143 1    
    40   19   20 am   BACKBONE|DICT|INTERRES
    41   19  144 1    
    42   20   21 2    
    43   20   22 1    
    44   22   23 1    
    45   22   24 1    
    46   22  145 1    
    47   23  146 1    
    48   23  147 1    
    49   23  148 1    
    50   24   25 am   BACKBONE|DICT|INTERRES
    51   24  149 1    
    52   25   26 2    
    53   25   27 1    
    54   27   28 1    
    55   27   29 1    
    56   27  150 1    
    57   28  151 1    
    58   28  152 1    
    59   28  153 1    
    60   29   30 am   BACKBONE|DICT|INTERRES
    61   29  154 1    
    62   30   31 2    
    63   30   32 1    
    64   32   33 1    
    65   32   34 1    
    66   32  155 1    
    67   33  156 1    
    68   33  157 1    
    69   33  158 1    
    70   34   35 am   BACKBONE|DICT|INTERRES
    71   34  159 1    
    72   35   36 2    
    73   35   37 1    
    74   37   38 1    
    75   37   39 1    
    76   37  160 1    
    77   38  161 1    
    78   38  162 1    
    79   38  163 1    
    80   39   40 am   BACKBONE|DICT|INTERRES
    81   39  164 1    
    82   40   41 2    
    83   40   42 1    
    84   42   43 1    
    85   42   44 1    
    86   42  165 1    
    87   43  166 1    
    88   43  167 1    
    89   43  168 1    
    90   44   45 am   BACKBONE|DICT|INTERRES
    91   44  169 1    
    92   45   46 2    
    93   45   47 1    
    94   47   48 1    
    95   47   49 1    
    96   47  170 1    
    97   48  171 1    
    98   48  172 1    
    99   48  173 1    
   100   49   50 am   BACKBONE|DICT|INTERRES
   101   49  174 1    
   102   50   51 2    
   103   50   52 1    
   104   52   53 1    
   105   52   54 1    
   106   52  175 1    
   107   53  176 1    
   108   53  177 1    
   109   53  178 1    
   110   54   55 am   BACKBONE|DICT|INTERRES
   111   54  179 1    
   112   55   56 2    
   113   55   57 1    
   114   57   58 1    
   115   57   59 1    
   116   57  180 1    
   117   58  181 1    
   118   58  182 1    
   119   58  183 1    
   120   59   60 am   BACKBONE|DICT|INTERRES
   121   59  184 1    
   122   60   61 2    
   123   60   62 1    
   124   62   63 1    
   125   62   64 1    
   126   62  185 1    
   127   63  186 1    
   128   63  187 1    
   129   63  188 1    
   130   64   65 am   BACKBONE|DICT|INTERRES
   131   64  189 1    
   132   65   66 2    
   133   67   68 2    
   134   67   69 am   BACKBONE|DICT|INTERRES
   135   69   70 1    
   136   69  190 1    
   137   70   71 1    
   138   70   72 1    
   139   70  191 1    
   140   71  192 1    
   141   71  193 1    
   142   71  194 1    
   143   72   73 2    
   144   72   74 am   BACKBONE|DICT|INTERRES
   145   74   75 1    
   146   74  195 1    
   147   75   76 1    
   148   75   77 1    
   149   75  196 1    
   150   76  197 1    
   151   76  198 1    
   152   76  199 1    
   153   77   78 2    
   154   77   79 am   BACKBONE|DICT|INTERRES
   155   79   80 1    
   156   79  200 1    
   157   80   81 1    
   158   80   82 1    
   159   80  201 1    
   160   81  202 1    
   161   81  203 1    
   162   81  204 1    
   163   82   83 2    
   164   82   84 am   BACKBONE|DICT|INTERRES
   165   84   85 1    
   166   84  205 1    
   167   85   86 1    
   168   85   87 1    
   169   85  206 1    
   170   86  207 1    
   171   86  208 1    
   172   86  209 1    
   173   87   88 2    
   174   87   89 am   BACKBONE|DICT|INTERRES
   175   89   90 1    
   176   89  210 1    
   177   90   91 1    
   178   90   92 1    
   179   90  211 1    
   180   91  212 1    
   181   91  213 1    
   182   91  214 1    
   183   92   93 2    
   184   92   94 am   BACKBONE|DICT|INTERRES
   185   94   95 1    
   186   94  215 1    
   187   95   96 1    
   188   95   97 1    
   189   95  216 1    
   190   96  217 1    
   191   96  218 1    
   192   96  219 1    
   193   97   98 2    
   194   97   99 am   BACKBONE|DICT|INTERRES
   195   99  100 1    
   196   99  220 1    
   197  100  101 1    
   198  100  102 1    
   199  100  221 1    
   200  101  222 1    
   201  101  223 1    
   202  101  224 1    
   203  102  103 2    
   204  102  104 am   BACKBONE|DICT|INTERRES
   205  104  105 1    
   206  104  225 1    
   207  105  106 1    
   208  105  107 1    
   209  105  226 1    
   210  106  227 1    
   211  106  228 1    
   212  106  229 1    
   213  107  108 2    
   214  107  109 am   BACKBONE|DICT|INTERRES
   215  109  110 1    
   216  109  230 1    
   217  110  111 1    
   218  110  112 1    
   219  110  231 1    
   220  111  232 1    
   221  111  233 1    
   222  111  234 1    
   223  112  113 2    
   224  112  114 am   BACKBONE|DICT|INTERRES
   225  114  115 1    
   226  114  235 1    
   227  115  116 1    
   228  115  117 1    
   229  115  236 1    
   230  116  237 1    
   231  116  238 1    
   232  116  239 1    
   233  117  118 2    
   234  117  119 am   BACKBONE|DICT|INTERRES
   235  119  120 1    
   236  119  240 1    
   237  120  121 1    
   238  120  124 1    
   239  120  241 1    
   240  121  122 am   BACKBONE|DICT|INTERRES
   241  121  123 2    
   242  122  242 1    
   243  122  243 1    
   244  124  125 1    
   245  124  244 1    
   246  124  245 1    
   247  125  126 1    
   248  126  246 1    
   249  126  247 1    
@<TRIPOS>SUBSTRUCTURE
     1 UNK         1 GROUP             0       ****    0 ROOT    
