@<TRIPOS>MOLECULE
3R540
247   249    1
SMALL
USER_CHARGES


@<TRIPOS>ATOM
      1 CA          0.0688  -12.7218  -46.0517 C.3       0 UNK        -0.1800 
      2 C           0.8153  -12.1921  -47.2676 C.2       0 UNK         0.5000 
      3 O           0.5664  -11.0658  -47.6978 O.2       0 UNK        -0.5000 
      4 N           1.7293  -12.9963  -47.8173 N.am      1 UNK        -0.5000 
      5 CA          2.5129  -12.6975  -49.0169 C.3       1 UNK         0.1400 
      6 C6          2.5405  -13.8866  -50.0119 C.3       23 UNK        -0.0398 
      7 S7          0.8692  -14.3815  -50.5510 S.3       23 UNK        -0.2404 
      8 C8          0.6420  -15.8876  -49.5566 C.3       23 UNK        -0.0205 
      9 C9         -0.8297  -16.2209  -49.3902 C.ar      23 UNK        -0.0193 
     10 C10        -1.4909  -17.0059  -50.3390 C.ar      23 UNK        -0.1150 
     11 C11        -2.8370  -17.3415  -50.1676 C.ar      23 UNK        -0.0193 
     12 C12        -3.5232  -16.8697  -49.0445 C.ar      23 UNK        -0.1150 
     13 C13        -2.8689  -16.0928  -48.0837 C.ar      23 UNK        -0.0193 
     14 C14        -1.5237  -15.7654  -48.2663 C.ar      23 UNK        -0.1150 
     15 C15        -3.6037  -15.6311  -46.8339 C.3       23 UNK        -0.0205 
     16 S16        -3.1945  -16.6610  -45.3860 S.3       23 UNK        -0.2404 
     17 C17        -3.8470  -18.2889  -45.8837 C.3       23 UNK        -0.0398 
     18 CA         -2.7209  -19.2417  -46.3496 C.3       11 UNK         0.1400 
     19 N          -1.8054  -19.6010  -45.2624 N.am      11 UNK        -0.5000 
     20 C          -0.6436  -20.2466  -45.4329 C.2       10 UNK         0.5000 
     21 O          -0.2060  -20.5879  -46.5299 O.2       10 UNK        -0.5000 
     22 CA          0.1376  -20.6276  -44.1631 C.3       10 UNK         0.1400 
     23 CB          1.0801  -19.4846  -43.7632 C.3       10 UNK        -0.1800 
     24 N          -0.7160  -20.9963  -43.0267 N.am      10 UNK        -0.5000 
     25 C          -1.6146  -21.9957  -43.0405 C.2       9 UNK         0.5000 
     26 O          -1.8312  -22.6863  -44.0385 O.2       9 UNK        -0.5000 
     27 CA         -2.4086  -22.2676  -41.7472 C.3       9 UNK         0.1400 
     28 CB         -2.7418  -23.7607  -41.5746 C.3       9 UNK        -0.1800 
     29 N          -1.6791  -21.8054  -40.5679 N.am      9 UNK        -0.5000 
     30 C          -2.1376  -20.9480  -39.6482 C.2       8 UNK         0.5000 
     31 O          -3.2674  -20.4568  -39.6664 O.2       8 UNK        -0.5000 
     32 CA         -1.1620  -20.5475  -38.5188 C.3       8 UNK         0.1400 
     33 CB          0.0372  -21.5095  -38.3569 C.3       8 UNK        -0.1800 
     34 N          -0.6798  -19.1683  -38.6597 N.am      8 UNK        -0.5000 
     35 C          -0.1017  -18.6271  -39.7412 C.2       7 UNK         0.5000 
     36 O           0.0824  -19.2326  -40.7995 O.2       7 UNK        -0.5000 
     37 CA          0.3979  -17.1801  -39.5992 C.3       7 UNK         0.1400 
     38 CB          1.8701  -17.1643  -39.1605 C.3       7 UNK        -0.1800 
     39 N           0.2847  -16.4727  -40.8708 N.am      7 UNK        -0.5000 
     40 C          -0.8228  -15.8803  -41.3265 C.2       6 UNK         0.5000 
     41 O          -1.8593  -15.7987  -40.6645 O.2       6 UNK        -0.5000 
     42 CA         -0.7569  -15.2685  -42.7468 C.3       6 UNK         0.1400 
     43 CB         -1.9413  -14.3261  -43.0326 C.3       6 UNK        -0.1800 
     44 N           0.4824  -14.5352  -43.0260 N.am      6 UNK        -0.5000 
     45 C           1.6816  -15.0694  -43.2852 C.2       5 UNK         0.5000 
     46 O           1.9200  -16.2772  -43.2230 O.2       5 UNK        -0.5000 
     47 CA          2.8067  -14.0723  -43.6188 C.3       5 UNK         0.1400 
     48 CB          3.3937  -13.4745  -42.3309 C.3       5 UNK        -0.1800 
     49 N           3.8926  -14.6803  -44.3841 N.am      5 UNK        -0.5000 
     50 C           3.8017  -15.1704  -45.6262 C.2       4 UNK         0.5000 
     51 O           2.7749  -15.1381  -46.3081 O.2       4 UNK        -0.5000 
     52 CA          5.1137  -15.7220  -46.2127 C.3       4 UNK         0.1400 
     53 CB          4.9215  -16.4469  -47.5554 C.3       4 UNK        -0.1800 
     54 N           6.0598  -14.6215  -46.3902 N.am      4 UNK        -0.5000 
     55 C           6.9054  -14.1828  -45.4473 C.2       3 UNK         0.5000 
     56 O           7.0449  -14.7313  -44.3531 O.2       3 UNK        -0.5000 
     57 CA          7.6964  -12.8959  -45.7528 C.3       3 UNK         0.1400 
     58 CB          9.0544  -13.2352  -46.3853 C.3       3 UNK        -0.1800 
     59 N           6.9786  -11.9675  -46.6282 N.am      3 UNK        -0.5000 
     60 C           5.8457  -11.3251  -46.3106 C.2       2 UNK         0.5000 
     61 O           5.2925  -11.4137  -45.2136 O.2       2 UNK        -0.5000 
     62 CA          5.2031  -10.4476  -47.4045 C.3       2 UNK         0.1400 
     63 CB          6.1752  -10.0335  -48.5327 C.3       2 UNK        -0.1800 
     64 N           4.0033  -11.0778  -47.9634 N.am      2 UNK        -0.5000 
     65 C           3.9213  -12.2739  -48.5649 C.2       1 UNK         0.5000 
     66 O           4.8812  -13.0318  -48.7252 O.2       1 UNK        -0.5000 
     67 C          -3.3185  -20.4847  -47.0368 C.2       11 UNK         0.5000 
     68 O          -3.4192  -20.5011  -48.2614 O.2       11 UNK        -0.5000 
     69 N          -3.6741  -21.5134  -46.2523 N.am      12 UNK        -0.5000 
     70 CA         -4.1975  -22.7831  -46.7608 C.3       12 UNK         0.1400 
     71 CB         -4.8381  -23.5835  -45.6178 C.3       12 UNK        -0.1800 
     72 C          -3.1122  -23.6108  -47.4686 C.2       12 UNK         0.5000 
     73 O          -3.3968  -24.2314  -48.4946 O.2       12 UNK        -0.5000 
     74 N          -1.8851  -23.5726  -46.9307 N.am      13 UNK        -0.5000 
     75 CA         -0.6984  -24.1868  -47.5235 C.3       13 UNK         0.1400 
     76 CB          0.4641  -24.1428  -46.5206 C.3       13 UNK        -0.1800 
     77 C          -0.3118  -23.5245  -48.8584 C.2       13 UNK         0.5000 
     78 O          -0.1327  -24.2278  -49.8528 O.2       13 UNK        -0.5000 
     79 N          -0.2510  -22.1847  -48.8755 N.am      14 UNK        -0.5000 
     80 CA          0.0211  -21.3700  -50.0640 C.3       14 UNK         0.1400 
     81 CB          0.2216  -19.9082  -49.6435 C.3       14 UNK        -0.1800 
     82 C          -1.0742  -21.4792  -51.1420 C.2       14 UNK         0.5000 
     83 O          -0.7740  -21.3603  -52.3295 O.2       14 UNK        -0.5000 
     84 N          -2.3145  -21.7517  -50.7151 N.am      15 UNK        -0.5000 
     85 CA         -3.4527  -22.0766  -51.5723 C.3       15 UNK         0.1400 
     86 CB         -4.7551  -21.8829  -50.7798 C.3       15 UNK        -0.1800 
     87 C          -3.4039  -23.4992  -52.1629 C.2       15 UNK         0.5000 
     88 O          -4.3270  -23.8436  -52.8988 O.2       15 UNK        -0.5000 
     89 N          -2.3691  -24.2896  -51.8397 N.am      16 UNK        -0.5000 
     90 CA         -2.1409  -25.6770  -52.2526 C.3       16 UNK         0.1400 
     91 CB         -2.0077  -25.7974  -53.7851 C.3       16 UNK        -0.1800 
     92 C          -3.1939  -26.6242  -51.6504 C.2       16 UNK         0.5000 
     93 O          -3.8790  -27.3422  -52.3796 O.2       16 UNK        -0.5000 
     94 N          -3.3041  -26.5777  -50.3151 N.am      17 UNK        -0.5000 
     95 CA         -4.2658  -27.2983  -49.4754 C.3       17 UNK         0.1400 
     96 CB         -4.1006  -28.8281  -49.5998 C.3       17 UNK        -0.1800 
     97 C          -5.7045  -26.8063  -49.7215 C.2       17 UNK         0.5000 
     98 O          -6.6136  -27.6089  -49.9399 O.2       17 UNK        -0.5000 
     99 N          -5.8633  -25.4747  -49.6800 N.am      18 UNK        -0.5000 
    100 CA        -7.1162  -24.7273  -49.8422 C.3       18 UNK         0.1400 
    101 CB        -8.0812  -25.0216  -48.6747 C.3       18 UNK        -0.1800 
    102 C         -7.7765  -24.8937  -51.2307 C.2       18 UNK         0.5000 
    103 O         -9.0005  -24.8110  -51.3424 O.2       18 UNK        -0.5000 
    104 N         -6.9572  -25.0864  -52.2741 N.am      19 UNK        -0.5000 
    105 CA        -7.3847  -25.1722  -53.6752 C.3       19 UNK         0.1400 
    106 CB        -6.4091  -26.0860  -54.4349 C.3       19 UNK        -0.1800 
    107 C         -7.4896  -23.7897  -54.3571 C.2       19 UNK         0.5000 
    108 O         -7.8814  -23.7212  -55.5227 O.2       19 UNK        -0.5000 
    109 N         -7.1357  -22.7236  -53.6230 N.am      20 UNK        -0.5000 
    110 CA        -7.1090  -21.3121  -54.0215 C.3       20 UNK         0.1400 
    111 CB        -8.5198  -20.8074  -54.3899 C.3       20 UNK        -0.1800 
    112 C         -6.0521  -21.0078  -55.1032 C.2       20 UNK         0.5000 
    113 O         -6.2670  -20.1367  -55.9487 O.2       20 UNK        -0.5000 
    114 N         -4.9093  -21.7096  -55.0417 N.am      21 UNK        -0.5000 
    115 CA        -3.7990  -21.6070  -55.9977 C.3       21 UNK         0.1400 
    116 CB        -2.7361  -22.6597  -55.6535 C.3       21 UNK        -0.1800 
    117 C         -3.1517  -20.2098  -56.1150 C.2       21 UNK         0.5000 
    118 O         -2.5316  -19.9262  -57.1410 O.2       21 UNK        -0.5000 
    119 N         -3.3161  -19.3590  -55.0925 N.am      22 UNK        -0.5000 
    120 CA        -2.9313  -17.9380  -55.1267 C.3       22 UNK         0.1400 
    121 C         -3.8685  -17.0279  -55.9796 C.2       22 UNK         0.5000 
    122 N         -5.0211  -17.4956  -56.4477 N.am      22 UNK        -0.7600 
    123 O         -3.5328  -15.8749  -56.2370 O.2       22 UNK        -0.5000 
    124 C124       -2.6891  -17.3626  -53.7060 C.3       23 UNK        -0.0398 
    125 S125       -4.1633  -17.3961  -52.6229 S.3       23 UNK        -0.2404 
    126 C126       -3.5401  -18.2645  -51.1522 C.3       23 UNK        -0.0205 
    127 H127       -1.0065  -12.6745  -46.2232 H         1 UNK         0.0600 
    128 H128        0.3023  -12.1199  -45.1739 H         1 UNK         0.0600 
    129 H129        0.3290  -13.7592  -45.8409 H         1 UNK         0.0600 
    130 H130        1.9665  -13.8722  -47.3543 H         1 UNK         0.3000 
    131 H131        2.0791  -11.8482  -49.5492 H         1 UNK         0.0600 
    132 H132        3.0461  -14.7498  -49.5811 H         1 UNK         0.0800 
    133 H133        3.1114  -13.6168  -50.9018 H         1 UNK         0.0800 
    134 H134        1.1681  -16.7178  -50.0300 H         1 UNK         0.0800 
    135 H135        1.0972  -15.7584  -48.5732 H         1 UNK         0.0800 
    136 H136       -0.9483  -17.3710  -51.1982 H         1 UNK         0.1150 
    137 H137       -4.5617  -17.1338  -48.9039 H         1 UNK         0.1150 
    138 H138       -1.0123  -15.1706  -47.5229 H         1 UNK         0.1150 
    139 H139       -3.3348  -14.5962  -46.6168 H         1 UNK         0.0800 
    140 H140       -4.6829  -15.6382  -46.9942 H         1 UNK         0.0800 
    141 H141       -4.5925  -18.1456  -46.6674 H         1 UNK         0.0800 
    142 H142       -4.3856  -18.7171  -45.0368 H         1 UNK         0.0800 
    143 H143       -2.1312  -18.7236  -47.1092 H         1 UNK         0.0600 
    144 H144       -2.0848  -19.3461  -44.3271 H         1 UNK         0.3000 
    145 H145        0.7488  -21.4988  -44.4057 H         1 UNK         0.0600 
    146 H146        1.7283  -19.7758  -42.9368 H         1 UNK         0.0600 
    147 H147        1.7249  -19.1943  -44.5938 H         1 UNK         0.0600 
    148 H148        0.5233  -18.5985  -43.4568 H         1 UNK         0.0600 
    149 H149       -0.5806  -20.4575  -42.1747 H         1 UNK         0.3000 
    150 H150       -3.3480  -21.7214  -41.8508 H         1 UNK         0.0600 
    151 H151       -3.3454  -24.1303  -42.4044 H         1 UNK         0.0600 
    152 H152       -3.3116  -23.9331  -40.6614 H         1 UNK         0.0600 
    153 H153       -1.8385  -24.3699  -41.5264 H         1 UNK         0.0600 
    154 H154       -0.7231  -22.1228  -40.4874 H         1 UNK         0.3000 
    155 H155       -1.7384  -20.5843  -37.5931 H         1 UNK         0.0600 
    156 H156        0.7110  -21.4814  -39.2141 H         1 UNK         0.0600 
    157 H157        0.6228  -21.2514  -37.4744 H         1 UNK         0.0600 
    158 H158       -0.2977  -22.5395  -38.2265 H         1 UNK         0.0600 
    159 H159       -0.8097  -18.5836  -37.8460 H         1 UNK         0.3000 
    160 H160       -0.1978  -16.6656  -38.8422 H         1 UNK         0.0600 
    161 H161        2.5111  -17.6665  -39.8867 H         1 UNK         0.0600 
    162 H162        1.9990  -17.6701  -38.2027 H         1 UNK         0.0600 
    163 H163        2.2349  -16.1439  -39.0414 H         1 UNK         0.0600 
    164 H164        1.0630  -16.5647  -41.5167 H         1 UNK         0.3000 
    165 H165       -0.8201  -16.1042  -43.4468 H         1 UNK         0.0600 
    166 H166       -1.9193  -13.9656  -44.0610 H         1 UNK         0.0600 
    167 H167       -2.8953  -14.8366  -42.8955 H         1 UNK         0.0600 
    168 H168       -1.9345  -13.4592  -42.3710 H         1 UNK         0.0600 
    169 H169        0.3953  -13.5297  -43.0284 H         1 UNK         0.3000 
    170 H170        2.3895  -13.2639  -44.2218 H         1 UNK         0.0600 
    171 H171        3.8400  -14.2431  -41.6984 H         1 UNK         0.0600 
    172 H172        4.1636  -12.7357  -42.5560 H         1 UNK         0.0600 
    173 H173        2.6253  -12.9710  -41.7429 H         1 UNK         0.0600 
    174 H174        4.7901  -14.7374  -43.9214 H         1 UNK         0.3000 
    175 H175        5.5105  -16.4505  -45.5024 H         1 UNK         0.0600 
    176 H176        5.8483  -16.9209  -47.8785 H         1 UNK         0.0600 
    177 H177        4.6105  -15.7624  -48.3417 H         1 UNK         0.0600 
    178 H178        4.1656  -17.2293  -47.4763 H         1 UNK         0.0600 
    179 H179        5.9431  -14.0687  -47.2331 H         1 UNK         0.3000 
    180 H180        7.8786  -12.3886  -44.8031 H         1 UNK         0.0600 
    181 H181        8.9366  -13.7249  -47.3528 H         1 UNK         0.0600 
    182 H182        9.6266  -13.9075  -45.7444 H         1 UNK         0.0600 
    183 H183        9.6565  -12.3384  -46.5329 H         1 UNK         0.0600 
    184 H184        7.3421  -11.8562  -47.5635 H         1 UNK         0.3000 
    185 H185        4.8722   -9.5347  -46.9070 H         1 UNK         0.0600 
    186 H186        6.5109  -10.8822  -49.1292 H         1 UNK         0.0600 
    187 H187        5.6993   -9.3260  -49.2118 H         1 UNK         0.0600 
    188 H188        7.0598   -9.5407  -48.1271 H         1 UNK         0.0600 
    189 H189        3.1418  -10.5657  -47.8271 H         1 UNK         0.3000 
    190 H190       -3.4899  -21.4635  -45.2609 H         1 UNK         0.3000 
    191 H191       -4.9786  -22.5622  -47.4910 H         1 UNK         0.0600 
    192 H192       -5.6361  -23.0168  -45.1381 H         1 UNK         0.0600 
    193 H193       -5.2771  -24.5095  -45.9918 H         1 UNK         0.0600 
    194 H194       -4.1103  -23.8529  -44.8523 H         1 UNK         0.0600 
    195 H195       -1.7576  -23.0750  -46.0558 H         1 UNK         0.3000 
    196 H196       -0.9303  -25.2347  -47.7250 H         1 UNK         0.0600 
    197 H197        1.3435  -24.6475  -46.9223 H         1 UNK         0.0600 
    198 H198        0.1988  -24.6414  -45.5881 H         1 UNK         0.0600 
    199 H199        0.7549  -23.1205  -46.2806 H         1 UNK         0.0600 
    200 H200       -0.3782  -21.6735  -48.0040 H         1 UNK         0.3000 
    201 H201        0.9528  -21.7278  -50.5068 H         1 UNK         0.0600 
    202 H202        0.4498  -19.2816  -50.5061 H         1 UNK         0.0600 
    203 H203       -0.6716  -19.5058  -49.1639 H         1 UNK         0.0600 
    204 H204        1.0501  -19.8082  -48.9423 H         1 UNK         0.0600 
    205 H205       -2.4933  -21.7443  -49.7175 H         1 UNK         0.3000 
    206 H206       -3.4598  -21.3816  -52.4138 H         1 UNK         0.0600 
    207 H207       -4.8679  -20.8598  -50.4324 H         1 UNK         0.0600 
    208 H208       -5.6324  -22.1068  -51.3828 H         1 UNK         0.0600 
    209 H209       -4.7863  -22.5281  -49.9051 H         1 UNK         0.0600 
    210 H210       -1.6736  -23.9229  -51.2001 H         1 UNK         0.3000 
    211 H211       -1.1817  -25.9685  -51.8224 H         1 UNK         0.0600 
    212 H212       -2.9530  -25.6121  -54.2937 H         1 UNK         0.0600 
    213 H213       -1.6825  -26.7995  -54.0662 H         1 UNK         0.0600 
    214 H214       -1.2713  -25.0945  -54.1744 H         1 UNK         0.0600 
    215 H215       -2.7540  -25.8841  -49.8232 H         1 UNK         0.3000 
    216 H216       -4.0269  -27.0321  -48.4446 H         1 UNK         0.0600 
    217 H217       -4.7235  -29.3447  -48.8689 H         1 UNK         0.0600 
    218 H218       -3.0690  -29.1291  -49.4174 H         1 UNK         0.0600 
    219 H219       -4.3883  -29.1943  -50.5855 H         1 UNK         0.0600 
    220 H220       -5.0373  -24.9228  -49.4709 H         1 UNK         0.3000 
    221 H221       -6.8507  -23.6733  -49.7694 H         1 UNK         0.0600 
    222 H222       -8.4570  -26.0445  -48.7066 H         1 UNK         0.0600 
    223 H223       -7.5915  -24.8733  -47.7121 H         1 UNK         0.0600 
    224 H224       -8.9448  -24.3561  -48.7021 H         1 UNK         0.0600 
    225 H225       -5.9566  -25.1176  -52.1213 H         1 UNK         0.3000 
    226 H226       -8.3745  -25.6308  -53.7208 H         1 UNK         0.0600 
    227 H227       -6.3401  -27.0668  -53.9640 H         1 UNK         0.0600 
    228 H228       -6.7369  -26.2419  -55.4632 H         1 UNK         0.0600 
    229 H229       -5.4052  -25.6636  -54.4728 H         1 UNK         0.0600 
    230 H230       -6.7963  -22.9237  -52.6948 H         1 UNK         0.3000 
    231 H231       -6.7921  -20.7558  -53.1384 H         1 UNK         0.0600 
    232 H232       -8.8827  -21.2529  -55.3164 H         1 UNK         0.0600 
    233 H233       -8.5237  -19.7254  -54.5268 H         1 UNK         0.0600 
    234 H234       -9.2384  -21.0359  -53.6029 H         1 UNK         0.0600 
    235 H235       -4.8306  -22.4394  -54.3420 H         1 UNK         0.3000 
    236 H236       -4.2047  -21.8505  -56.9817 H         1 UNK         0.0600 
    237 H237       -3.1676  -23.6598  -55.6329 H         1 UNK         0.0600 
    238 H238       -1.9380  -22.6678  -56.3969 H         1 UNK         0.0600 
    239 H239       -2.2753  -22.4660  -54.6846 H         1 UNK         0.0600 
    240 H240       -3.8570  -19.6538  -54.2948 H         1 UNK         0.3000 
    241 H241       -1.9659  -17.8885  -55.6341 H         1 UNK         0.0600 
    242 H242       -5.6071  -16.8921  -57.0020 H         1 UNK         0.3800 
    243 H243       -5.3310  -18.4417  -56.2476 H         1 UNK         0.3800 
    244 H244       -1.8799  -17.9241  -53.2396 H         1 UNK         0.0800 
    245 H245       -2.3310  -16.3333  -53.7645 H         1 UNK         0.0800 
    246 H246       -4.3917  -18.7271  -50.6559 H         1 UNK         0.0800 
    247 H247       -2.8780  -19.0786  -51.4442 H         1 UNK         0.0800 
@<TRIPOS>BOND
     1    1    2 1    
     2    1  127 1    
     3    1  128 1    
     4    1  129 1    
     5    2    3 2    
     6    2    4 am   BACKBONE|DICT|INTERRES
     7    4    5 1    
     8    4  130 1    
     9    5    6 1    
    10    5   65 1    
    11    5  131 1    
    12    6    7 1    
    13    6  132 1    
    14    6  133 1    
    15    7    8 1    
    16    8    9 1    
    17    8  134 1    
    18    8  135 1    
    19    9   10 ar   
    20    9   14 ar   
    21   10   11 ar   
    22   10  136 1    
    23   11   12 ar   
    24   11  126 1    
    25   12   13 ar   
    26   12  137 1    
    27   13   14 ar   
    28   13   15 1    
    29   14  138 1    
    30   15   16 1    
    31   15  139 1    
    32   15  140 1    
    33   16   17 1    
    34   17   18 1    
    35   17  141 1    
    36   17  142 1    
    37   18   19 1    
    38   18   67 1    
    39   18  143 1    
    40   19   20 am   BACKBONE|DICT|INTERRES
    41   19  144 1    
    42   20   21 2    
    43   20   22 1    
    44   22   23 1    
    45   22   24 1    
    46   22  145 1    
    47   23  146 1    
    48   23  147 1    
    49   23  148 1    
    50   24   25 am   BACKBONE|DICT|INTERRES
    51   24  149 1    
    52   25   26 2    
    53   25   27 1    
    54   27   28 1    
    55   27   29 1    
    56   27  150 1    
    57   28  151 1    
    58   28  152 1    
    59   28  153 1    
    60   29   30 am   BACKBONE|DICT|INTERRES
    61   29  154 1    
    62   30   31 2    
    63   30   32 1    
    64   32   33 1    
    65   32   34 1    
    66   32  155 1    
    67   33  156 1    
    68   33  157 1    
    69   33  158 1    
    70   34   35 am   BACKBONE|DICT|INTERRES
    71   34  159 1    
    72   35   36 2    
    73   35   37 1    
    74   37   38 1    
    75   37   39 1    
    76   37  160 1    
    77   38  161 1    
    78   38  162 1    
    79   38  163 1    
    80   39   40 am   BACKBONE|DICT|INTERRES
    81   39  164 1    
    82   40   41 2    
    83   40   42 1    
    84   42   43 1    
    85   42   44 1    
    86   42  165 1    
    87   43  166 1    
    88   43  167 1    
    89   43  168 1    
    90   44   45 am   BACKBONE|DICT|INTERRES
    91   44  169 1    
    92   45   46 2    
    93   45   47 1    
    94   47   48 1    
    95   47   49 1    
    96   47  170 1    
    97   48  171 1    
    98   48  172 1    
    99   48  173 1    
   100   49   50 am   BACKBONE|DICT|INTERRES
   101   49  174 1    
   102   50   51 2    
   103   50   52 1    
   104   52   53 1    
   105   52   54 1    
   106   52  175 1    
   107   53  176 1    
   108   53  177 1    
   109   53  178 1    
   110   54   55 am   BACKBONE|DICT|INTERRES
   111   54  179 1    
   112   55   56 2    
   113   55   57 1    
   114   57   58 1    
   115   57   59 1    
   116   57  180 1    
   117   58  181 1    
   118   58  182 1    
   119   58  183 1    
   120   59   60 am   BACKBONE|DICT|INTERRES
   121   59  184 1    
   122   60   61 2    
   123   60   62 1    
   124   62   63 1    
   125   62   64 1    
   126   62  185 1    
   127   63  186 1    
   128   63  187 1    
   129   63  188 1    
   130   64   65 am   BACKBONE|DICT|INTERRES
   131   64  189 1    
   132   65   66 2    
   133   67   68 2    
   134   67   69 am   BACKBONE|DICT|INTERRES
   135   69   70 1    
   136   69  190 1    
   137   70   71 1    
   138   70   72 1    
   139   70  191 1    
   140   71  192 1    
   141   71  193 1    
   142   71  194 1    
   143   72   73 2    
   144   72   74 am   BACKBONE|DICT|INTERRES
   145   74   75 1    
   146   74  195 1    
   147   75   76 1    
   148   75   77 1    
   149   75  196 1    
   150   76  197 1    
   151   76  198 1    
   152   76  199 1    
   153   77   78 2    
   154   77   79 am   BACKBONE|DICT|INTERRES
   155   79   80 1    
   156   79  200 1    
   157   80   81 1    
   158   80   82 1    
   159   80  201 1    
   160   81  202 1    
   161   81  203 1    
   162   81  204 1    
   163   82   83 2    
   164   82   84 am   BACKBONE|DICT|INTERRES
   165   84   85 1    
   166   84  205 1    
   167   85   86 1    
   168   85   87 1    
   169   85  206 1    
   170   86  207 1    
   171   86  208 1    
   172   86  209 1    
   173   87   88 2    
   174   87   89 am   BACKBONE|DICT|INTERRES
   175   89   90 1    
   176   89  210 1    
   177   90   91 1    
   178   90   92 1    
   179   90  211 1    
   180   91  212 1    
   181   91  213 1    
   182   91  214 1    
   183   92   93 2    
   184   92   94 am   BACKBONE|DICT|INTERRES
   185   94   95 1    
   186   94  215 1    
   187   95   96 1    
   188   95   97 1    
   189   95  216 1    
   190   96  217 1    
   191   96  218 1    
   192   96  219 1    
   193   97   98 2    
   194   97   99 am   BACKBONE|DICT|INTERRES
   195   99  100 1    
   196   99  220 1    
   197  100  101 1    
   198  100  102 1    
   199  100  221 1    
   200  101  222 1    
   201  101  223 1    
   202  101  224 1    
   203  102  103 2    
   204  102  104 am   BACKBONE|DICT|INTERRES
   205  104  105 1    
   206  104  225 1    
   207  105  106 1    
   208  105  107 1    
   209  105  226 1    
   210  106  227 1    
   211  106  228 1    
   212  106  229 1    
   213  107  108 2    
   214  107  109 am   BACKBONE|DICT|INTERRES
   215  109  110 1    
   216  109  230 1    
   217  110  111 1    
   218  110  112 1    
   219  110  231 1    
   220  111  232 1    
   221  111  233 1    
   222  111  234 1    
   223  112  113 2    
   224  112  114 am   BACKBONE|DICT|INTERRES
   225  114  115 1    
   226  114  235 1    
   227  115  116 1    
   228  115  117 1    
   229  115  236 1    
   230  116  237 1    
   231  116  238 1    
   232  116  239 1    
   233  117  118 2    
   234  117  119 am   BACKBONE|DICT|INTERRES
   235  119  120 1    
   236  119  240 1    
   237  120  121 1    
   238  120  124 1    
   239  120  241 1    
   240  121  122 am   BACKBONE|DICT|INTERRES
   241  121  123 2    
   242  122  242 1    
   243  122  243 1    
   244  124  125 1    
   245  124  244 1    
   246  124  245 1    
   247  125  126 1    
   248  126  246 1    
   249  126  247 1    
@<TRIPOS>SUBSTRUCTURE
     1 UNK         1 GROUP             0       ****    0 ROOT    
