@<TRIPOS>MOLECULE
3R540
247   249    1
SMALL
USER_CHARGES


@<TRIPOS>ATOM
      1 CA         -4.2938  -18.9598  -46.6605 C.3       0 UNK        -0.1800 
      2 C          -3.3312  -17.8733  -46.2126 C.2       0 UNK         0.5000 
      3 O          -3.6770  -17.0625  -45.3527 O.2       0 UNK        -0.5000 
      4 N          -2.1098  -17.8683  -46.7633 N.am      1 UNK        -0.5000 
      5 CA         -1.0483  -16.9059  -46.4360 C.3       1 UNK         0.1400 
      6 C6          0.1668  -17.0250  -47.3816 C.3       23 UNK        -0.0398 
      7 S7         -0.2461  -16.6000  -49.1039 S.3       23 UNK        -0.2404 
      8 C8          1.3977  -16.6510  -49.8868 C.3       23 UNK        -0.0205 
      9 C9          1.7989  -18.0681  -50.2704 C.ar      23 UNK        -0.0193 
     10 C10         1.5546  -18.5417  -51.5617 C.ar      23 UNK        -0.1150 
     11 C11         1.9287  -19.8379  -51.9243 C.ar      23 UNK        -0.0193 
     12 C12         2.5249  -20.6716  -50.9743 C.ar      23 UNK        -0.1150 
     13 C13         2.7734  -20.2186  -49.6745 C.ar      23 UNK        -0.0193 
     14 C14         2.4285  -18.9016  -49.3425 C.ar      23 UNK        -0.1150 
     15 C15         3.4303  -21.1862  -48.6857 C.3       23 UNK        -0.0205 
     16 S16         3.4587  -20.6758  -46.9296 S.3       23 UNK        -0.2404 
     17 C17         1.6838  -20.6841  -46.4969 C.3       23 UNK        -0.0398 
     18 CA          1.1743  -22.0747  -46.0552 C.3       11 UNK         0.1400 
     19 N           1.9598  -22.6348  -44.9523 N.am      11 UNK        -0.5000 
     20 C           2.1378  -23.9431  -44.7221 C.2       10 UNK         0.5000 
     21 O           1.6158  -24.8262  -45.4034 O.2       10 UNK        -0.5000 
     22 CA          3.0186  -24.3371  -43.5181 C.3       10 UNK         0.1400 
     23 CB          4.4426  -24.6704  -43.9878 C.3       10 UNK        -0.1800 
     24 N           3.0942  -23.3075  -42.4792 N.am      10 UNK        -0.5000 
     25 C           2.0576  -22.8586  -41.7582 C.2       9 UNK         0.5000 
     26 O           0.9174  -23.3129  -41.8514 O.2       9 UNK        -0.5000 
     27 CA          2.3288  -21.6777  -40.8042 C.3       9 UNK         0.1400 
     28 CB          2.5825  -22.1933  -39.3797 C.3       9 UNK        -0.1800 
     29 N           3.4380  -20.7992  -41.1974 N.am      9 UNK        -0.5000 
     30 C           3.5629  -20.1506  -42.3645 C.2       8 UNK         0.5000 
     31 O           2.7844  -20.2825  -43.3113 O.2       8 UNK        -0.5000 
     32 CA          4.8110  -19.2577  -42.5015 C.3       8 UNK         0.1400 
     33 CB          6.0509  -20.1243  -42.7767 C.3       8 UNK        -0.1800 
     34 N           4.6980  -18.2664  -43.5714 N.am      8 UNK        -0.5000 
     35 C           3.8405  -17.2390  -43.6011 C.2       7 UNK         0.5000 
     36 O           3.0466  -16.9722  -42.6942 O.2       7 UNK        -0.5000 
     37 CA          3.9054  -16.3547  -44.8573 C.3       7 UNK         0.1400 
     38 CB          3.6570  -17.1646  -46.1410 C.3       7 UNK        -0.1800 
     39 N           2.9189  -15.2856  -44.7595 N.am      7 UNK        -0.5000 
     40 C           3.0102  -14.0849  -45.3435 C.2       6 UNK         0.5000 
     41 O           3.9551  -13.7445  -46.0564 O.2       6 UNK        -0.5000 
     42 CA          1.8567  -13.0940  -45.1030 C.3       6 UNK         0.1400 
     43 CB          0.9498  -13.0156  -46.3420 C.3       6 UNK        -0.1800 
     44 N           1.0364  -13.4786  -43.9581 N.am      6 UNK        -0.5000 
     45 C           1.2009  -13.0593  -42.6985 C.2       5 UNK         0.5000 
     46 O           2.0736  -12.2610  -42.3522 O.2       5 UNK        -0.5000 
     47 CA          0.2159  -13.6435  -41.6620 C.3       5 UNK         0.1400 
     48 CB          0.0874  -12.7810  -40.3895 C.3       5 UNK        -0.1800 
     49 N          -1.1016  -13.9379  -42.2390 N.am      5 UNK        -0.5000 
     50 C          -1.9771  -13.0727  -42.7765 C.2       4 UNK         0.5000 
     51 O          -1.8226  -11.8510  -42.7810 O.2       4 UNK        -0.5000 
     52 CA         -3.2273  -13.6699  -43.4578 C.3       4 UNK         0.1400 
     53 CB         -3.1035  -13.5489  -44.9848 C.3       4 UNK        -0.1800 
     54 N          -3.4618  -15.0747  -43.1188 N.am      4 UNK        -0.5000 
     55 C          -3.8988  -15.5138  -41.9306 C.2       3 UNK         0.5000 
     56 O          -4.2353  -14.7734  -41.0063 O.2       3 UNK        -0.5000 
     57 CA         -3.9171  -17.0390  -41.7313 C.3       3 UNK         0.1400 
     58 CB         -5.2468  -17.6397  -42.2124 C.3       3 UNK        -0.1800 
     59 N          -2.8072  -17.7004  -42.4207 N.am      3 UNK        -0.5000 
     60 C          -1.5236  -17.6381  -42.0372 C.2       2 UNK         0.5000 
     61 O          -1.1304  -17.0068  -41.0570 O.2       2 UNK        -0.5000 
     62 CA         -0.5111  -18.3947  -42.9155 C.3       2 UNK         0.1400 
     63 CB         -0.5925  -19.8960  -42.6150 C.3       2 UNK        -0.1800 
     64 N          -0.7390  -18.1753  -44.3443 N.am      2 UNK        -0.5000 
     65 C          -0.5945  -16.9944  -44.9629 C.2       1 UNK         0.5000 
     66 O          -0.1595  -15.9851  -44.4096 O.2       1 UNK        -0.5000 
     67 C          -0.3433  -22.0491  -45.7631 C.2       11 UNK         0.5000 
     68 O          -1.1006  -21.5173  -46.5742 O.2       11 UNK        -0.5000 
     69 N          -0.7876  -22.6421  -44.6440 N.am      12 UNK        -0.5000 
     70 CA         -2.2012  -22.8319  -44.2969 C.3       12 UNK         0.1400 
     71 CB         -2.2961  -23.3543  -42.8554 C.3       12 UNK        -0.1800 
     72 C          -2.9554  -23.7706  -45.2626 C.2       12 UNK         0.5000 
     73 O          -4.1852  -23.7410  -45.2990 O.2       12 UNK        -0.5000 
     74 N          -2.2085  -24.5742  -46.0326 N.am      13 UNK        -0.5000 
     75 CA         -2.7172  -25.4249  -47.1069 C.3       13 UNK         0.1400 
     76 CB         -1.6420  -26.4666  -47.4539 C.3       13 UNK        -0.1800 
     77 C          -3.1356  -24.6411  -48.3697 C.2       13 UNK         0.5000 
     78 O          -3.8636  -25.1934  -49.1962 O.2       13 UNK        -0.5000 
     79 N          -2.6699  -23.3912  -48.5184 N.am      14 UNK        -0.5000 
     80 CA         -3.0374  -22.5075  -49.6245 C.3       14 UNK         0.1400 
     81 CB         -1.9859  -21.3915  -49.7568 C.3       14 UNK        -0.1800 
     82 C          -4.4449  -21.9095  -49.4328 C.2       14 UNK         0.5000 
     83 O          -4.9749  -21.8921  -48.3193 O.2       14 UNK        -0.5000 
     84 N          -5.0123  -21.4011  -50.5311 N.am      15 UNK        -0.5000 
     85 CA         -6.2506  -20.6233  -50.5447 C.3       15 UNK         0.1400 
     86 CB         -6.8020  -20.6288  -51.9810 C.3       15 UNK        -0.1800 
     87 C          -6.0134  -19.1807  -50.0530 C.2       15 UNK         0.5000 
     88 O          -4.8660  -18.7378  -49.9693 O.2       15 UNK        -0.5000 
     89 N          -7.1046  -18.4522  -49.7758 N.am      16 UNK        -0.5000 
     90 CA         -7.0729  -17.0233  -49.4348 C.3       16 UNK         0.1400 
     91 CB         -8.4694  -16.5731  -48.9807 C.3       16 UNK        -0.1800 
     92 C          -6.5669  -16.1528  -50.6036 C.2       16 UNK         0.5000 
     93 O          -5.8059  -15.2101  -50.3846 O.2       16 UNK        -0.5000 
     94 N          -6.9546  -16.5340  -51.8268 N.am      17 UNK        -0.5000 
     95 CA         -6.3462  -16.0992  -53.0788 C.3       17 UNK         0.1400 
     96 CB         -7.4557  -15.8152  -54.1070 C.3       17 UNK        -0.1800 
     97 C          -5.4168  -17.2411  -53.5151 C.2       17 UNK         0.5000 
     98 O          -5.8236  -18.0941  -54.3052 O.2       17 UNK        -0.5000 
     99 N          -4.2223  -17.2860  -52.9067 N.am      18 UNK        -0.5000 
    100 CA        -3.2952  -18.4252  -52.8812 C.3       18 UNK         0.1400 
    101 CB        -2.0072  -18.0205  -52.1536 C.3       18 UNK        -0.1800 
    102 C         -2.9707  -19.0665  -54.2387 C.2       18 UNK         0.5000 
    103 O         -2.8236  -20.2863  -54.2998 O.2       18 UNK        -0.5000 
    104 N         -2.9400  -18.2589  -55.3073 N.am      19 UNK        -0.5000 
    105 CA        -2.7573  -18.6892  -56.6963 C.3       19 UNK         0.1400 
    106 CB        -2.8095  -17.4567  -57.6108 C.3       19 UNK        -0.1800 
    107 C         -3.7660  -19.7556  -57.1742 C.2       19 UNK         0.5000 
    108 O         -3.4138  -20.5720  -58.0259 O.2       19 UNK        -0.5000 
    109 N         -4.9759  -19.7685  -56.5939 N.am      20 UNK        -0.5000 
    110 CA        -6.0086  -20.7746  -56.8511 C.3       20 UNK         0.1400 
    111 CB        -7.3300  -20.3145  -56.2164 C.3       20 UNK        -0.1800 
    112 C         -5.6337  -22.1833  -56.3459 C.2       20 UNK         0.5000 
    113 O         -6.1299  -23.1675  -56.8960 O.2       20 UNK        -0.5000 
    114 N         -4.7709  -22.2572  -55.3235 N.am      21 UNK        -0.5000 
    115 CA        -4.2335  -23.5016  -54.7767 C.3       21 UNK         0.1400 
    116 CB        -4.2004  -23.4077  -53.2437 C.3       21 UNK        -0.1800 
    117 C         -2.8261  -23.7809  -55.3272 C.2       21 UNK         0.5000 
    118 O         -2.5346  -24.9194  -55.6959 O.2       21 UNK        -0.5000 
    119 N         -1.9800  -22.7436  -55.3630 N.am      22 UNK        -0.5000 
    120 CA        -0.5795  -22.8161  -55.8042 C.3       22 UNK         0.1400 
    121 C         -0.3923  -23.0284  -57.3343 C.2       22 UNK         0.5000 
    122 N         -1.3377  -22.6486  -58.1853 N.am      22 UNK        -0.7600 
    123 O          0.6335  -23.5542  -57.7574 O.2       22 UNK        -0.5000 
    124 C124        0.2367  -21.5881  -55.3288 C.3       23 UNK        -0.0398 
    125 S125        0.2606  -21.3849  -53.5139 S.3       23 UNK        -0.2404 
    126 C126        1.7266  -20.3234  -53.3510 C.3       23 UNK        -0.0205 
    127 H127       -4.5333  -19.6201  -45.8272 H         1 UNK         0.0600 
    128 H128       -3.8668  -19.5636  -47.4606 H         1 UNK         0.0600 
    129 H129       -5.2200  -18.5168  -47.0250 H         1 UNK         0.0600 
    130 H130       -1.8858  -18.5460  -47.4781 H         1 UNK         0.3000 
    131 H131       -1.4721  -15.9090  -46.5683 H         1 UNK         0.0600 
    132 H132        0.9663  -16.3542  -47.0625 H         1 UNK         0.0800 
    133 H133        0.5707  -18.0355  -47.3513 H         1 UNK         0.0800 
    134 H134        1.3761  -16.0207  -50.7770 H         1 UNK         0.0800 
    135 H135        2.1444  -16.2095  -49.2250 H         1 UNK         0.0800 
    136 H136        1.0842  -17.8952  -52.2892 H         1 UNK         0.1150 
    137 H137        2.8050  -21.6777  -51.2542 H         1 UNK         0.1150 
    138 H138        2.6369  -18.5161  -48.3582 H         1 UNK         0.1150 
    139 H139        2.9370  -22.1570  -48.7518 H         1 UNK         0.0800 
    140 H140        4.4613  -21.3456  -49.0038 H         1 UNK         0.0800 
    141 H141        1.1121  -20.3297  -47.3549 H         1 UNK         0.0800 
    142 H142        1.5286  -19.9535  -45.7013 H         1 UNK         0.0800 
    143 H143        1.2899  -22.7368  -46.9157 H         1 UNK         0.0600 
    144 H144        2.3987  -21.9549  -44.3380 H         1 UNK         0.3000 
    145 H145        2.5827  -25.2332  -43.0718 H         1 UNK         0.0600 
    146 H146        5.0586  -25.0261  -43.1616 H         1 UNK         0.0600 
    147 H147        4.4310  -25.4562  -44.7444 H         1 UNK         0.0600 
    148 H148        4.9348  -23.8006  -44.4253 H         1 UNK         0.0600 
    149 H149        3.9924  -22.8690  -42.3415 H         1 UNK         0.3000 
    150 H150        1.4271  -21.0666  -40.7829 H         1 UNK         0.0600 
    151 H151        3.4991  -22.7817  -39.3225 H         1 UNK         0.0600 
    152 H152        1.7627  -22.8289  -39.0416 H         1 UNK         0.0600 
    153 H153        2.6655  -21.3701  -38.6698 H         1 UNK         0.0600 
    154 H154        4.1438  -20.6484  -40.4910 H         1 UNK         0.3000 
    155 H155        4.9541  -18.7222  -41.5608 H         1 UNK         0.0600 
    156 H156        5.9529  -20.6788  -43.7113 H         1 UNK         0.0600 
    157 H157        6.2126  -20.8512  -41.9798 H         1 UNK         0.0600 
    158 H158        6.9523  -19.5146  -42.8416 H         1 UNK         0.0600 
    159 H159        5.2846  -18.4248  -44.3769 H         1 UNK         0.3000 
    160 H160        4.9045  -15.9156  -44.8950 H         1 UNK         0.0600 
    161 H161        2.7315  -17.7351  -46.0708 H         1 UNK         0.0600 
    162 H162        4.4665  -17.8710  -46.3250 H         1 UNK         0.0600 
    163 H163        3.5940  -16.5203  -47.0179 H         1 UNK         0.0600 
    164 H164        2.1366  -15.4835  -44.1467 H         1 UNK         0.3000 
    165 H165        2.2926  -12.1075  -44.9324 H         1 UNK         0.0600 
    166 H166        1.5169  -12.7207  -47.2258 H         1 UNK         0.0600 
    167 H167        0.4777  -13.9742  -46.5588 H         1 UNK         0.0600 
    168 H168        0.1583  -12.2789  -46.2028 H         1 UNK         0.0600 
    169 H169        0.3456  -14.2049  -44.1284 H         1 UNK         0.3000 
    170 H170        0.6328  -14.6068  -41.3642 H         1 UNK         0.0600 
    171 H171        1.0467  -12.6956  -39.8778 H         1 UNK         0.0600 
    172 H172       -0.2520  -11.7699  -40.6154 H         1 UNK         0.0600 
    173 H173       -0.6170  -13.2227  -39.6846 H         1 UNK         0.0600 
    174 H174       -1.3269  -14.9213  -42.3029 H         1 UNK         0.3000 
    175 H175       -4.0927  -13.0879  -43.1346 H         1 UNK         0.0600 
    176 H176       -3.9707  -13.9752  -45.4898 H         1 UNK         0.0600 
    177 H177       -3.0299  -12.5041  -45.2890 H         1 UNK         0.0600 
    178 H178       -2.2140  -14.0585  -45.3542 H         1 UNK         0.0600 
    179 H179       -3.2839  -15.7586  -43.8478 H         1 UNK         0.3000 
    180 H180       -3.8222  -17.2366  -40.6614 H         1 UNK         0.0600 
    181 H181       -5.4013  -17.4797  -43.2800 H         1 UNK         0.0600 
    182 H182       -6.0899  -17.1877  -41.6885 H         1 UNK         0.0600 
    183 H183       -5.2856  -18.7128  -42.0248 H         1 UNK         0.0600 
    184 H184       -3.0377  -18.1858  -43.2751 H         1 UNK         0.3000 
    185 H185        0.4919  -18.0428  -42.6648 H         1 UNK         0.0600 
    186 H186       -0.4798  -20.0870  -41.5481 H         1 UNK         0.0600 
    187 H187       -1.5542  -20.3100  -42.9145 H         1 UNK         0.0600 
    188 H188        0.1898  -20.4479  -43.1328 H         1 UNK         0.0600 
    189 H189       -1.1154  -18.9481  -44.8730 H         1 UNK         0.3000 
    190 H190       -0.1109  -23.0369  -44.0035 H         1 UNK         0.3000 
    191 H191       -2.6959  -21.8600  -44.3461 H         1 UNK         0.0600 
    192 H192       -1.8380  -22.6609  -42.1503 H         1 UNK         0.0600 
    193 H193       -3.3357  -23.4841  -42.5520 H         1 UNK         0.0600 
    194 H194       -1.7976  -24.3182  -42.7453 H         1 UNK         0.0600 
    195 H195       -1.2060  -24.5532  -45.9108 H         1 UNK         0.3000 
    196 H196       -3.6003  -25.9529  -46.7411 H         1 UNK         0.0600 
    197 H197       -1.9902  -27.1446  -48.2342 H         1 UNK         0.0600 
    198 H198       -1.3878  -27.0757  -46.5861 H         1 UNK         0.0600 
    199 H199       -0.7261  -25.9949  -47.8126 H         1 UNK         0.0600 
    200 H200       -2.1355  -22.9682  -47.7697 H         1 UNK         0.3000 
    201 H201       -3.0301  -23.0922  -50.5460 H         1 UNK         0.0600 
    202 H202       -2.1574  -20.7975  -50.6550 H         1 UNK         0.0600 
    203 H203       -2.0132  -20.7076  -48.9084 H         1 UNK         0.0600 
    204 H204       -0.9769  -21.7984  -49.8289 H         1 UNK         0.0600 
    205 H205       -4.4938  -21.4188  -51.3948 H         1 UNK         0.3000 
    206 H206       -6.9801  -21.0962  -49.8839 H         1 UNK         0.0600 
    207 H207       -7.0523  -21.6403  -52.3011 H         1 UNK         0.0600 
    208 H208       -7.7116  -20.0333  -52.0649 H         1 UNK         0.0600 
    209 H209       -6.0801  -20.2273  -52.6920 H         1 UNK         0.0600 
    210 H210       -8.0167  -18.8796  -49.8493 H         1 UNK         0.3000 
    211 H211       -6.3825  -16.8890  -48.5993 H         1 UNK         0.0600 
    212 H212       -9.2131  -16.7057  -49.7674 H         1 UNK         0.0600 
    213 H213       -8.4678  -15.5176  -48.7051 H         1 UNK         0.0600 
    214 H214       -8.7999  -17.1351  -48.1070 H         1 UNK         0.0600 
    215 H215       -7.5613  -17.3379  -51.8962 H         1 UNK         0.3000 
    216 H216       -5.7555  -15.1907  -52.9440 H         1 UNK         0.0600 
    217 H217       -7.0297  -15.5317  -55.0701 H         1 UNK         0.0600 
    218 H218       -8.0928  -14.9943  -53.7776 H         1 UNK         0.0600 
    219 H219       -8.0930  -16.6850  -54.2722 H         1 UNK         0.0600 
    220 H220       -4.0083  -16.5470  -52.2522 H         1 UNK         0.3000 
    221 H221       -3.7750  -19.2053  -52.2903 H         1 UNK         0.0600 
    222 H222       -1.5032  -17.1913  -52.6510 H         1 UNK         0.0600 
    223 H223       -2.2180  -17.7226  -51.1265 H         1 UNK         0.0600 
    224 H224       -1.3062  -18.8549  -52.1072 H         1 UNK         0.0600 
    225 H225       -3.1066  -17.2747  -55.1585 H         1 UNK         0.3000 
    226 H226       -1.7616  -19.1291  -56.7729 H         1 UNK         0.0600 
    227 H227       -2.6520  -17.7361  -58.6535 H         1 UNK         0.0600 
    228 H228       -3.7742  -16.9513  -57.5480 H         1 UNK         0.0600 
    229 H229       -2.0341  -16.7367  -57.3486 H         1 UNK         0.0600 
    230 H230       -5.1863  -19.0830  -55.8731 H         1 UNK         0.3000 
    231 H231       -6.1531  -20.8386  -57.9315 H         1 UNK         0.0600 
    232 H232       -7.2560  -20.2602  -55.1296 H         1 UNK         0.0600 
    233 H233       -8.1393  -21.0056  -56.4550 H         1 UNK         0.0600 
    234 H234       -7.6233  -19.3301  -56.5814 H         1 UNK         0.0600 
    235 H235       -4.3646  -21.3988  -54.9697 H         1 UNK         0.3000 
    236 H236       -4.8743  -24.3439  -55.0459 H         1 UNK         0.0600 
    237 H237       -5.2024  -23.2699  -52.8382 H         1 UNK         0.0600 
    238 H238       -3.7963  -24.3211  -52.8050 H         1 UNK         0.0600 
    239 H239       -3.5785  -22.5781  -52.9068 H         1 UNK         0.0600 
    240 H240       -2.2819  -21.8436  -54.9963 H         1 UNK         0.3000 
    241 H241       -0.1428  -23.6949  -55.3256 H         1 UNK         0.0600 
    242 H242       -2.1625  -22.1458  -57.8778 H         1 UNK         0.3800 
    243 H243       -1.1979  -22.8020  -59.1711 H         1 UNK         0.3800 
    244 H244       -0.1607  -20.6731  -55.7700 H         1 UNK         0.0800 
    245 H245        1.2693  -21.6715  -55.6734 H         1 UNK         0.0800 
    246 H246        1.6293  -19.4717  -54.0263 H         1 UNK         0.0800 
    247 H247        2.6101  -20.8746  -53.6766 H         1 UNK         0.0800 
@<TRIPOS>BOND
     1    1    2 1    
     2    1  127 1    
     3    1  128 1    
     4    1  129 1    
     5    2    3 2    
     6    2    4 am   BACKBONE|DICT|INTERRES
     7    4    5 1    
     8    4  130 1    
     9    5    6 1    
    10    5   65 1    
    11    5  131 1    
    12    6    7 1    
    13    6  132 1    
    14    6  133 1    
    15    7    8 1    
    16    8    9 1    
    17    8  134 1    
    18    8  135 1    
    19    9   10 ar   
    20    9   14 ar   
    21   10   11 ar   
    22   10  136 1    
    23   11   12 ar   
    24   11  126 1    
    25   12   13 ar   
    26   12  137 1    
    27   13   14 ar   
    28   13   15 1    
    29   14  138 1    
    30   15   16 1    
    31   15  139 1    
    32   15  140 1    
    33   16   17 1    
    34   17   18 1    
    35   17  141 1    
    36   17  142 1    
    37   18   19 1    
    38   18   67 1    
    39   18  143 1    
    40   19   20 am   BACKBONE|DICT|INTERRES
    41   19  144 1    
    42   20   21 2    
    43   20   22 1    
    44   22   23 1    
    45   22   24 1    
    46   22  145 1    
    47   23  146 1    
    48   23  147 1    
    49   23  148 1    
    50   24   25 am   BACKBONE|DICT|INTERRES
    51   24  149 1    
    52   25   26 2    
    53   25   27 1    
    54   27   28 1    
    55   27   29 1    
    56   27  150 1    
    57   28  151 1    
    58   28  152 1    
    59   28  153 1    
    60   29   30 am   BACKBONE|DICT|INTERRES
    61   29  154 1    
    62   30   31 2    
    63   30   32 1    
    64   32   33 1    
    65   32   34 1    
    66   32  155 1    
    67   33  156 1    
    68   33  157 1    
    69   33  158 1    
    70   34   35 am   BACKBONE|DICT|INTERRES
    71   34  159 1    
    72   35   36 2    
    73   35   37 1    
    74   37   38 1    
    75   37   39 1    
    76   37  160 1    
    77   38  161 1    
    78   38  162 1    
    79   38  163 1    
    80   39   40 am   BACKBONE|DICT|INTERRES
    81   39  164 1    
    82   40   41 2    
    83   40   42 1    
    84   42   43 1    
    85   42   44 1    
    86   42  165 1    
    87   43  166 1    
    88   43  167 1    
    89   43  168 1    
    90   44   45 am   BACKBONE|DICT|INTERRES
    91   44  169 1    
    92   45   46 2    
    93   45   47 1    
    94   47   48 1    
    95   47   49 1    
    96   47  170 1    
    97   48  171 1    
    98   48  172 1    
    99   48  173 1    
   100   49   50 am   BACKBONE|DICT|INTERRES
   101   49  174 1    
   102   50   51 2    
   103   50   52 1    
   104   52   53 1    
   105   52   54 1    
   106   52  175 1    
   107   53  176 1    
   108   53  177 1    
   109   53  178 1    
   110   54   55 am   BACKBONE|DICT|INTERRES
   111   54  179 1    
   112   55   56 2    
   113   55   57 1    
   114   57   58 1    
   115   57   59 1    
   116   57  180 1    
   117   58  181 1    
   118   58  182 1    
   119   58  183 1    
   120   59   60 am   BACKBONE|DICT|INTERRES
   121   59  184 1    
   122   60   61 2    
   123   60   62 1    
   124   62   63 1    
   125   62   64 1    
   126   62  185 1    
   127   63  186 1    
   128   63  187 1    
   129   63  188 1    
   130   64   65 am   BACKBONE|DICT|INTERRES
   131   64  189 1    
   132   65   66 2    
   133   67   68 2    
   134   67   69 am   BACKBONE|DICT|INTERRES
   135   69   70 1    
   136   69  190 1    
   137   70   71 1    
   138   70   72 1    
   139   70  191 1    
   140   71  192 1    
   141   71  193 1    
   142   71  194 1    
   143   72   73 2    
   144   72   74 am   BACKBONE|DICT|INTERRES
   145   74   75 1    
   146   74  195 1    
   147   75   76 1    
   148   75   77 1    
   149   75  196 1    
   150   76  197 1    
   151   76  198 1    
   152   76  199 1    
   153   77   78 2    
   154   77   79 am   BACKBONE|DICT|INTERRES
   155   79   80 1    
   156   79  200 1    
   157   80   81 1    
   158   80   82 1    
   159   80  201 1    
   160   81  202 1    
   161   81  203 1    
   162   81  204 1    
   163   82   83 2    
   164   82   84 am   BACKBONE|DICT|INTERRES
   165   84   85 1    
   166   84  205 1    
   167   85   86 1    
   168   85   87 1    
   169   85  206 1    
   170   86  207 1    
   171   86  208 1    
   172   86  209 1    
   173   87   88 2    
   174   87   89 am   BACKBONE|DICT|INTERRES
   175   89   90 1    
   176   89  210 1    
   177   90   91 1    
   178   90   92 1    
   179   90  211 1    
   180   91  212 1    
   181   91  213 1    
   182   91  214 1    
   183   92   93 2    
   184   92   94 am   BACKBONE|DICT|INTERRES
   185   94   95 1    
   186   94  215 1    
   187   95   96 1    
   188   95   97 1    
   189   95  216 1    
   190   96  217 1    
   191   96  218 1    
   192   96  219 1    
   193   97   98 2    
   194   97   99 am   BACKBONE|DICT|INTERRES
   195   99  100 1    
   196   99  220 1    
   197  100  101 1    
   198  100  102 1    
   199  100  221 1    
   200  101  222 1    
   201  101  223 1    
   202  101  224 1    
   203  102  103 2    
   204  102  104 am   BACKBONE|DICT|INTERRES
   205  104  105 1    
   206  104  225 1    
   207  105  106 1    
   208  105  107 1    
   209  105  226 1    
   210  106  227 1    
   211  106  228 1    
   212  106  229 1    
   213  107  108 2    
   214  107  109 am   BACKBONE|DICT|INTERRES
   215  109  110 1    
   216  109  230 1    
   217  110  111 1    
   218  110  112 1    
   219  110  231 1    
   220  111  232 1    
   221  111  233 1    
   222  111  234 1    
   223  112  113 2    
   224  112  114 am   BACKBONE|DICT|INTERRES
   225  114  115 1    
   226  114  235 1    
   227  115  116 1    
   228  115  117 1    
   229  115  236 1    
   230  116  237 1    
   231  116  238 1    
   232  116  239 1    
   233  117  118 2    
   234  117  119 am   BACKBONE|DICT|INTERRES
   235  119  120 1    
   236  119  240 1    
   237  120  121 1    
   238  120  124 1    
   239  120  241 1    
   240  121  122 am   BACKBONE|DICT|INTERRES
   241  121  123 2    
   242  122  242 1    
   243  122  243 1    
   244  124  125 1    
   245  124  244 1    
   246  124  245 1    
   247  125  126 1    
   248  126  246 1    
   249  126  247 1    
@<TRIPOS>SUBSTRUCTURE
     1 UNK         1 GROUP             0       ****    0 ROOT    
