@<TRIPOS>MOLECULE
3R540
247   249    1
SMALL
USER_CHARGES


@<TRIPOS>ATOM
      1 CA         -2.4703   -9.5760  -48.3209 C.3       0 UNK        -0.1800 
      2 C          -1.2454  -10.2817  -47.7583 C.2       0 UNK         0.5000 
      3 O          -0.7638   -9.9147  -46.6871 O.2       0 UNK        -0.5000 
      4 N          -0.7478  -11.3048  -48.4655 N.am      1 UNK        -0.5000 
      5 CA          0.4293  -12.1064  -48.0992 C.3       1 UNK         0.1400 
      6 C6          0.8858  -13.0477  -49.2467 C.3       23 UNK        -0.0398 
      7 S7         -0.4500  -14.0023  -50.0574 S.3       23 UNK        -0.2404 
      8 C8         -0.5907  -15.4697  -48.9897 C.3       23 UNK        -0.0205 
      9 C9         -0.7176  -16.7511  -49.7993 C.ar      23 UNK        -0.0193 
     10 C10        -1.9060  -17.0486  -50.4717 C.ar      23 UNK        -0.1150 
     11 C11        -2.0401  -18.2431  -51.1864 C.ar      23 UNK        -0.0193 
     12 C12        -0.9715  -19.1436  -51.2292 C.ar      23 UNK        -0.1150 
     13 C13         0.2232  -18.8565  -50.5604 C.ar      23 UNK        -0.0193 
     14 C14         0.3440  -17.6576  -49.8512 C.ar      23 UNK        -0.1150 
     15 C15         1.3916  -19.8313  -50.6073 C.3       23 UNK        -0.0205 
     16 S16         1.0607  -21.3918  -49.7253 S.3       23 UNK        -0.2404 
     17 C17         0.7824  -20.8376  -48.0063 C.3       23 UNK        -0.0398 
     18 CA         -0.4902  -21.4602  -47.3831 C.3       11 UNK         0.1400 
     19 N          -0.5049  -21.3503  -45.9223 N.am      11 UNK        -0.5000 
     20 C          -1.4011  -21.9471  -45.1218 C.2       10 UNK         0.5000 
     21 O          -2.2710  -22.7200  -45.5239 O.2       10 UNK        -0.5000 
     22 CA         -1.3613  -21.5642  -43.6311 C.3       10 UNK         0.1400 
     23 CB         -0.2683  -22.3454  -42.8873 C.3       10 UNK        -0.1800 
     24 N          -1.1669  -20.1264  -43.4365 N.am      10 UNK        -0.5000 
     25 C          -2.0407  -19.1875  -43.8276 C.2       9 UNK         0.5000 
     26 O          -3.1412  -19.4448  -44.3149 O.2       9 UNK        -0.5000 
     27 CA         -1.5912  -17.7198  -43.7056 C.3       9 UNK         0.1400 
     28 CB         -1.8066  -17.1961  -42.2790 C.3       9 UNK        -0.1800 
     29 N          -0.1949  -17.5275  -44.1016 N.am      9 UNK        -0.5000 
     30 C           0.2714  -17.7163  -45.3445 C.2       8 UNK         0.5000 
     31 O          -0.4455  -17.9863  -46.3045 O.2       8 UNK        -0.5000 
     32 CA          1.7948  -17.6510  -45.5436 C.3       8 UNK         0.1400 
     33 CB          2.2612  -16.2138  -45.7939 C.3       8 UNK        -0.1800 
     34 N           2.5134  -18.2048  -44.3988 N.am      8 UNK        -0.5000 
     35 C           2.5827  -19.5128  -44.1192 C.2       7 UNK         0.5000 
     36 O           2.0779  -20.3869  -44.8238 O.2       7 UNK        -0.5000 
     37 CA          3.2990  -19.9001  -42.8123 C.3       7 UNK         0.1400 
     38 CB          4.8146  -20.0051  -43.0365 C.3       7 UNK        -0.1800 
     39 N           3.0324  -18.9533  -41.7268 N.am      7 UNK        -0.5000 
     40 C           1.8335  -18.7891  -41.1501 C.2       6 UNK         0.5000 
     41 O           0.8410  -19.4528  -41.4467 O.2       6 UNK        -0.5000 
     42 CA          1.7102  -17.6673  -40.1015 C.3       6 UNK         0.1400 
     43 CB          2.0734  -18.1931  -38.7052 C.3       6 UNK        -0.1800 
     44 N           2.5235  -16.4847  -40.4012 N.am      6 UNK        -0.5000 
     45 C           2.3872  -15.7155  -41.4893 C.2       5 UNK         0.5000 
     46 O           1.5745  -15.9433  -42.3867 O.2       5 UNK        -0.5000 
     47 CA          3.3218  -14.4971  -41.5917 C.3       5 UNK         0.1400 
     48 CB          3.8962  -14.3369  -43.0086 C.3       5 UNK        -0.1800 
     49 N           2.6268  -13.2674  -41.2262 N.am      5 UNK        -0.5000 
     50 C           2.2688  -12.9077  -39.9898 C.2       4 UNK         0.5000 
     51 O           2.5139  -13.5853  -38.9907 O.2       4 UNK        -0.5000 
     52 CA          1.5248  -11.5652  -39.8235 C.3       4 UNK         0.1400 
     53 CB          2.5200  -10.3924  -39.7345 C.3       4 UNK        -0.1800 
     54 N           0.4707  -11.2938  -40.8137 N.am      4 UNK        -0.5000 
     55 C           0.5766  -11.0850  -42.1334 C.2       3 UNK         0.5000 
     56 O           1.6382  -11.1195  -42.7597 O.2       3 UNK        -0.5000 
     57 CA         -0.7362  -10.7843  -42.8809 C.3       3 UNK         0.1400 
     58 CB         -0.7496   -9.3387  -43.4000 C.3       3 UNK        -0.1800 
     59 N          -0.9416  -11.7045  -43.9988 N.am      3 UNK        -0.5000 
     60 C          -1.1603  -13.0209  -43.8605 C.2       2 UNK         0.5000 
     61 O          -1.2696  -13.5692  -42.7639 O.2       2 UNK        -0.5000 
     62 CA         -1.3197  -13.8731  -45.1377 C.3       2 UNK         0.1400 
     63 CB         -2.7628  -14.3865  -45.2674 C.3       2 UNK        -0.1800 
     64 N          -0.9680  -13.1757  -46.3750 N.am      2 UNK        -0.5000 
     65 C           0.2769  -12.8742  -46.7675 C.2       1 UNK         0.5000 
     66 O           1.2828  -13.1617  -46.1217 O.2       1 UNK        -0.5000 
     67 C          -1.7876  -20.9091  -48.0127 C.2       11 UNK         0.5000 
     68 O          -2.3540  -21.5691  -48.8791 O.2       11 UNK        -0.5000 
     69 N          -2.2740  -19.7569  -47.5308 N.am      12 UNK        -0.5000 
     70 CA         -3.5317  -19.1456  -47.9628 C.3       12 UNK         0.1400 
     71 CB         -3.6667  -17.7416  -47.3559 C.3       12 UNK        -0.1800 
     72 C          -4.7712  -20.0006  -47.6496 C.2       12 UNK         0.5000 
     73 O          -5.6797  -20.0704  -48.4778 O.2       12 UNK        -0.5000 
     74 N          -4.7801  -20.6440  -46.4748 N.am      13 UNK        -0.5000 
     75 CA         -5.8318  -21.5649  -46.0462 C.3       13 UNK         0.1400 
     76 CB         -5.6689  -21.8639  -44.5479 C.3       13 UNK        -0.1800 
     77 C          -5.8505  -22.8670  -46.8696 C.2       13 UNK         0.5000 
     78 O          -6.9266  -23.3286  -47.2515 O.2       13 UNK        -0.5000 
     79 N          -4.6638  -23.4319  -47.1266 N.am      14 UNK        -0.5000 
     80 CA         -4.4766  -24.6540  -47.9093 C.3       14 UNK         0.1400 
     81 CB         -3.0768  -25.2084  -47.6169 C.3       14 UNK        -0.1800 
     82 C          -4.6688  -24.4428  -49.4231 C.2       14 UNK         0.5000 
     83 O          -5.2021  -25.3261  -50.0969 O.2       14 UNK        -0.5000 
     84 N          -4.2173  -23.2867  -49.9273 N.am      15 UNK        -0.5000 
     85 CA         -4.2056  -22.8533  -51.3232 C.3       15 UNK         0.1400 
     86 CB         -5.6298  -22.4707  -51.7820 C.3       15 UNK        -0.1800 
     87 C          -3.4927  -23.8804  -52.2230 C.2       15 UNK         0.5000 
     88 O          -2.2944  -24.1098  -52.0427 O.2       15 UNK        -0.5000 
     89 N          -4.2431  -24.5089  -53.1385 N.am      16 UNK        -0.5000 
     90 CA         -3.7756  -25.5117  -54.0977 C.3       16 UNK         0.1400 
     91 CB         -4.9597  -25.9319  -54.9821 C.3       16 UNK        -0.1800 
     92 C          -3.1290  -26.7562  -53.4564 C.2       16 UNK         0.5000 
     93 O          -2.3140  -27.4129  -54.1050 O.2       16 UNK        -0.5000 
     94 N          -3.4912  -27.0582  -52.2007 N.am      17 UNK        -0.5000 
     95 CA         -2.9074  -28.1476  -51.4185 C.3       17 UNK         0.1400 
     96 CB         -3.8532  -28.5029  -50.2610 C.3       17 UNK        -0.1800 
     97 C          -1.4921  -27.8303  -50.8933 C.2       17 UNK         0.5000 
     98 O          -0.7643  -28.7658  -50.5577 O.2       17 UNK        -0.5000 
     99 N          -1.1238  -26.5425  -50.8270 N.am      18 UNK        -0.5000 
    100 CA         0.1984  -26.0820  -50.4070 C.3       18 UNK         0.1400 
    101 CB         0.0593  -24.9559  -49.3712 C.3       18 UNK        -0.1800 
    102 C          1.0294  -25.6195  -51.6111 C.2       18 UNK         0.5000 
    103 O          2.1456  -26.1086  -51.7922 O.2       18 UNK        -0.5000 
    104 N          0.4829  -24.6950  -52.4102 N.am      19 UNK        -0.5000 
    105 CA         1.1572  -24.0892  -53.5537 C.3       19 UNK         0.1400 
    106 CB         2.2801  -23.1331  -53.0878 C.3       19 UNK        -0.1800 
    107 C          0.1187  -23.4232  -54.4697 C.2       19 UNK         0.5000 
    108 O         -0.5581  -24.1278  -55.2192 O.2       19 UNK        -0.5000 
    109 N          0.0423  -22.0858  -54.4309 N.am      20 UNK        -0.5000 
    110 CA        -0.7861  -21.2580  -55.3049 C.3       20 UNK         0.1400 
    111 CB        -0.4308  -19.7785  -55.0899 C.3       20 UNK        -0.1800 
    112 C         -2.2903  -21.4924  -55.0907 C.2       20 UNK         0.5000 
    113 O         -2.7902  -21.3191  -53.9779 O.2       20 UNK        -0.5000 
    114 N         -2.9894  -21.8509  -56.1723 N.am      21 UNK        -0.5000 
    115 CA        -4.4344  -22.0526  -56.2134 C.3       21 UNK         0.1400 
    116 CB        -4.7656  -22.9749  -57.4006 C.3       21 UNK        -0.1800 
    117 C         -5.1682  -20.6992  -56.2894 C.2       21 UNK         0.5000 
    118 O         -5.6861  -20.3342  -57.3465 O.2       21 UNK        -0.5000 
    119 N         -5.1617  -19.9624  -55.1720 N.am      22 UNK        -0.5000 
    120 CA        -5.7659  -18.6246  -55.0352 C.3       22 UNK         0.1400 
    121 C         -7.3170  -18.5730  -55.1852 C.2       22 UNK         0.5000 
    122 N         -8.0375  -19.6823  -55.0713 N.am      22 UNK        -0.7600 
    123 O         -7.8761  -17.5028  -55.4091 O.2       22 UNK        -0.5000 
    124 C124       -5.3482  -17.9277  -53.7154 C.3       23 UNK        -0.0398 
    125 S125       -3.5415  -17.7861  -53.4782 S.3       23 UNK        -0.2404 
    126 C126       -3.3652  -18.5802  -51.8515 C.3       23 UNK        -0.0205 
    127 H127       -2.2494   -8.5227  -48.4932 H         1 UNK         0.0600 
    128 H128       -3.2977   -9.6410  -47.6144 H         1 UNK         0.0600 
    129 H129       -2.7932  -10.0152  -49.2652 H         1 UNK         0.0600 
    130 H130       -1.1938  -11.5737  -49.3319 H         1 UNK         0.3000 
    131 H131        1.2420  -11.3962  -47.9313 H         1 UNK         0.0600 
    132 H132        1.3438  -12.4383  -50.0269 H         1 UNK         0.0800 
    133 H133        1.6792  -13.7228  -48.9199 H         1 UNK         0.0800 
    134 H134        0.2665  -15.5363  -48.3221 H         1 UNK         0.0800 
    135 H135       -1.4632  -15.3548  -48.3466 H         1 UNK         0.0800 
    136 H136       -2.7334  -16.3546  -50.4256 H         1 UNK         0.1150 
    137 H137       -1.0766  -20.0775  -51.7644 H         1 UNK         0.1150 
    138 H138        1.2631  -17.4336  -49.3286 H         1 UNK         0.1150 
    139 H139        1.6189  -20.0555  -51.6499 H         1 UNK         0.0800 
    140 H140        2.2929  -19.3775  -50.1925 H         1 UNK         0.0800 
    141 H141        1.6595  -21.1380  -47.4320 H         1 UNK         0.0800 
    142 H142        0.7490  -19.7499  -47.9524 H         1 UNK         0.0800 
    143 H143       -0.4665  -22.5307  -47.5984 H         1 UNK         0.0600 
    144 H144        0.2146  -20.7720  -45.5017 H         1 UNK         0.3000 
    145 H145       -2.3253  -21.8326  -43.1938 H         1 UNK         0.0600 
    146 H146       -0.2802  -22.1197  -41.8208 H         1 UNK         0.0600 
    147 H147       -0.4168  -23.4206  -42.9947 H         1 UNK         0.0600 
    148 H148        0.7265  -22.1123  -43.2662 H         1 UNK         0.0600 
    149 H149       -0.3134  -19.8378  -42.9677 H         1 UNK         0.3000 
    150 H150       -2.2102  -17.1295  -44.3824 H         1 UNK         0.0600 
    151 H151       -2.8629  -17.2276  -42.0101 H         1 UNK         0.0600 
    152 H152       -1.4757  -16.1626  -42.1823 H         1 UNK         0.0600 
    153 H153       -1.2646  -17.7893  -41.5434 H         1 UNK         0.0600 
    154 H154        0.4531  -17.2278  -43.3795 H         1 UNK         0.3000 
    155 H155        2.0470  -18.2433  -46.4256 H         1 UNK         0.0600 
    156 H156        3.3476  -16.1487  -45.8527 H         1 UNK         0.0600 
    157 H157        1.9235  -15.5422  -45.0059 H         1 UNK         0.0600 
    158 H158        1.8648  -15.8358  -46.7346 H         1 UNK         0.0600 
    159 H159        2.8979  -17.5435  -43.7408 H         1 UNK         0.3000 
    160 H160        2.9293  -20.8817  -42.5083 H         1 UNK         0.0600 
    161 H161        5.2489  -19.0461  -43.3217 H         1 UNK         0.0600 
    162 H162        5.0425  -20.7180  -43.8301 H         1 UNK         0.0600 
    163 H163        5.3231  -20.3499  -42.1360 H         1 UNK         0.0600 
    164 H164        3.7995  -18.3722  -41.4224 H         1 UNK         0.3000 
    165 H165        0.6658  -17.3501  -40.0829 H         1 UNK         0.0600 
    166 H166        3.1198  -18.4951  -38.6475 H         1 UNK         0.0600 
    167 H167        1.8993  -17.4353  -37.9409 H         1 UNK         0.0600 
    168 H168        1.4659  -19.0610  -38.4445 H         1 UNK         0.0600 
    169 H169        3.1869  -16.2050  -39.6925 H         1 UNK         0.3000 
    170 H170        4.1606  -14.6425  -40.9079 H         1 UNK         0.0600 
    171 H171        4.3411  -15.2670  -43.3642 H         1 UNK         0.0600 
    172 H172        3.1275  -14.0398  -43.7227 H         1 UNK         0.0600 
    173 H173        4.6751  -13.5747  -43.0298 H         1 UNK         0.0600 
    174 H174        2.3688  -12.6409  -41.9845 H         1 UNK         0.3000 
    175 H175        1.0088  -11.6211  -38.8637 H         1 UNK         0.0600 
    176 H176        2.0056   -9.4531  -39.5316 H         1 UNK         0.0600 
    177 H177        3.2363  -10.5512  -38.9274 H         1 UNK         0.0600 
    178 H178        3.0913  -10.2702  -40.6551 H         1 UNK         0.0600 
    179 H179       -0.4623  -11.2860  -40.4251 H         1 UNK         0.3000 
    180 H180       -1.5755  -10.9017  -42.1921 H         1 UNK         0.0600 
    181 H181       -1.6885   -9.1080  -43.9039 H         1 UNK         0.0600 
    182 H182       -0.6356   -8.6284  -42.5802 H         1 UNK         0.0600 
    183 H183        0.0618   -9.1580  -44.1063 H         1 UNK         0.0600 
    184 H184       -0.8379  -11.3168  -44.9283 H         1 UNK         0.3000 
    185 H185       -0.6586  -14.7351  -45.0292 H         1 UNK         0.0600 
    186 H186       -2.8568  -15.0918  -46.0927 H         1 UNK         0.0600 
    187 H187       -3.0822  -14.9030  -44.3616 H         1 UNK         0.0600 
    188 H188       -3.4650  -13.5701  -45.4399 H         1 UNK         0.0600 
    189 H189       -1.7344  -12.8793  -46.9615 H         1 UNK         0.3000 
    190 H190       -1.7129  -19.2249  -46.8706 H         1 UNK         0.3000 
    191 H191       -3.4843  -19.0439  -49.0446 H         1 UNK         0.0600 
    192 H192       -4.5420  -17.2277  -47.7544 H         1 UNK         0.0600 
    193 H193       -2.7963  -17.1302  -47.5862 H         1 UNK         0.0600 
    194 H194       -3.7716  -17.7755  -46.2722 H         1 UNK         0.0600 
    195 H195       -4.0199  -20.4758  -45.8235 H         1 UNK         0.3000 
    196 H196       -6.7936  -21.0675  -46.1877 H         1 UNK         0.0600 
    197 H197       -6.4596  -22.5264  -44.1938 H         1 UNK         0.0600 
    198 H198       -5.7201  -20.9495  -43.9564 H         1 UNK         0.0600 
    199 H199       -4.7151  -22.3462  -44.3329 H         1 UNK         0.0600 
    200 H200       -3.8276  -23.0112  -46.7322 H         1 UNK         0.3000 
    201 H201       -5.2105  -25.3940  -47.5835 H         1 UNK         0.0600 
    202 H202       -2.9852  -25.5156  -46.5750 H         1 UNK         0.0600 
    203 H203       -2.3156  -24.4522  -47.8064 H         1 UNK         0.0600 
    204 H204       -2.8477  -26.0756  -48.2362 H         1 UNK         0.0600 
    205 H205       -3.6981  -22.6671  -49.3074 H         1 UNK         0.3000 
    206 H206       -3.5929  -21.9522  -51.3568 H         1 UNK         0.0600 
    207 H207       -6.0341  -21.6772  -51.1529 H         1 UNK         0.0600 
    208 H208       -5.6263  -22.0943  -52.8056 H         1 UNK         0.0600 
    209 H209       -6.3213  -23.3123  -51.7314 H         1 UNK         0.0600 
    210 H210       -5.2280  -24.2917  -53.1665 H         1 UNK         0.3000 
    211 H211       -3.0244  -25.0345  -54.7290 H         1 UNK         0.0600 
    212 H212       -5.7295  -26.4443  -54.4036 H         1 UNK         0.0600 
    213 H213       -4.6350  -26.6116  -55.7710 H         1 UNK         0.0600 
    214 H214       -5.4242  -25.0731  -55.4649 H         1 UNK         0.0600 
    215 H215       -4.1629  -26.4653  -51.7269 H         1 UNK         0.3000 
    216 H216       -2.8249  -29.0265  -52.0614 H         1 UNK         0.0600 
    217 H217       -3.4695  -29.3484  -49.6887 H         1 UNK         0.0600 
    218 H218       -4.8402  -28.7822  -50.6299 H         1 UNK         0.0600 
    219 H219       -3.9783  -27.6708  -49.5695 H         1 UNK         0.0600 
    220 H220       -1.7534  -25.8308  -51.1827 H         1 UNK         0.3000 
    221 H221        0.7525  -26.8913  -49.9270 H         1 UNK         0.0600 
    222 H222       -0.6238  -24.1733  -49.7048 H         1 UNK         0.0600 
    223 H223       -0.3051  -25.3500  -48.4239 H         1 UNK         0.0600 
    224 H224        1.0230  -24.4872  -49.1677 H         1 UNK         0.0600 
    225 H225       -0.4708  -24.3797  -52.2383 H         1 UNK         0.3000 
    226 H226        1.6163  -24.8852  -54.1437 H         1 UNK         0.0600 
    227 H227        3.0763  -23.6744  -52.5771 H         1 UNK         0.0600 
    228 H228        2.7411  -22.6220  -53.9340 H         1 UNK         0.0600 
    229 H229        1.9079  -22.3761  -52.3994 H         1 UNK         0.0600 
    230 H230        0.6138  -21.5942  -53.7611 H         1 UNK         0.3000 
    231 H231       -0.5326  -21.5158  -56.3353 H         1 UNK         0.0600 
    232 H232       -1.0162  -19.1375  -55.7505 H         1 UNK         0.0600 
    233 H233        0.6216  -19.5881  -55.3005 H         1 UNK         0.0600 
    234 H234       -0.6324  -19.4584  -54.0678 H         1 UNK         0.0600 
    235 H235       -2.5057  -21.9485  -57.0531 H         1 UNK         0.3000 
    236 H236       -4.7528  -22.5569  -55.2990 H         1 UNK         0.0600 
    237 H237       -4.4725  -22.5318  -58.3533 H         1 UNK         0.0600 
    238 H238       -4.2537  -23.9331  -57.3103 H         1 UNK         0.0600 
    239 H239       -5.8357  -23.1804  -57.4481 H         1 UNK         0.0600 
    240 H240       -4.6182  -20.2956  -54.3846 H         1 UNK         0.3000 
    241 H241       -5.3700  -18.0236  -55.8561 H         1 UNK         0.0600 
    242 H242       -9.0392  -19.6352  -55.1738 H         1 UNK         0.3800 
    243 H243       -7.5941  -20.5677  -54.8901 H         1 UNK         0.3800 
    244 H244       -5.7524  -16.9144  -53.6793 H         1 UNK         0.0800 
    245 H245       -5.7915  -18.4548  -52.8689 H         1 UNK         0.0800 
    246 H246       -4.1776  -18.2561  -51.1995 H         1 UNK         0.0800 
    247 H247       -3.4735  -19.6590  -51.9629 H         1 UNK         0.0800 
@<TRIPOS>BOND
     1    1    2 1    
     2    1  127 1    
     3    1  128 1    
     4    1  129 1    
     5    2    3 2    
     6    2    4 am   BACKBONE|DICT|INTERRES
     7    4    5 1    
     8    4  130 1    
     9    5    6 1    
    10    5   65 1    
    11    5  131 1    
    12    6    7 1    
    13    6  132 1    
    14    6  133 1    
    15    7    8 1    
    16    8    9 1    
    17    8  134 1    
    18    8  135 1    
    19    9   10 ar   
    20    9   14 ar   
    21   10   11 ar   
    22   10  136 1    
    23   11   12 ar   
    24   11  126 1    
    25   12   13 ar   
    26   12  137 1    
    27   13   14 ar   
    28   13   15 1    
    29   14  138 1    
    30   15   16 1    
    31   15  139 1    
    32   15  140 1    
    33   16   17 1    
    34   17   18 1    
    35   17  141 1    
    36   17  142 1    
    37   18   19 1    
    38   18   67 1    
    39   18  143 1    
    40   19   20 am   BACKBONE|DICT|INTERRES
    41   19  144 1    
    42   20   21 2    
    43   20   22 1    
    44   22   23 1    
    45   22   24 1    
    46   22  145 1    
    47   23  146 1    
    48   23  147 1    
    49   23  148 1    
    50   24   25 am   BACKBONE|DICT|INTERRES
    51   24  149 1    
    52   25   26 2    
    53   25   27 1    
    54   27   28 1    
    55   27   29 1    
    56   27  150 1    
    57   28  151 1    
    58   28  152 1    
    59   28  153 1    
    60   29   30 am   BACKBONE|DICT|INTERRES
    61   29  154 1    
    62   30   31 2    
    63   30   32 1    
    64   32   33 1    
    65   32   34 1    
    66   32  155 1    
    67   33  156 1    
    68   33  157 1    
    69   33  158 1    
    70   34   35 am   BACKBONE|DICT|INTERRES
    71   34  159 1    
    72   35   36 2    
    73   35   37 1    
    74   37   38 1    
    75   37   39 1    
    76   37  160 1    
    77   38  161 1    
    78   38  162 1    
    79   38  163 1    
    80   39   40 am   BACKBONE|DICT|INTERRES
    81   39  164 1    
    82   40   41 2    
    83   40   42 1    
    84   42   43 1    
    85   42   44 1    
    86   42  165 1    
    87   43  166 1    
    88   43  167 1    
    89   43  168 1    
    90   44   45 am   BACKBONE|DICT|INTERRES
    91   44  169 1    
    92   45   46 2    
    93   45   47 1    
    94   47   48 1    
    95   47   49 1    
    96   47  170 1    
    97   48  171 1    
    98   48  172 1    
    99   48  173 1    
   100   49   50 am   BACKBONE|DICT|INTERRES
   101   49  174 1    
   102   50   51 2    
   103   50   52 1    
   104   52   53 1    
   105   52   54 1    
   106   52  175 1    
   107   53  176 1    
   108   53  177 1    
   109   53  178 1    
   110   54   55 am   BACKBONE|DICT|INTERRES
   111   54  179 1    
   112   55   56 2    
   113   55   57 1    
   114   57   58 1    
   115   57   59 1    
   116   57  180 1    
   117   58  181 1    
   118   58  182 1    
   119   58  183 1    
   120   59   60 am   BACKBONE|DICT|INTERRES
   121   59  184 1    
   122   60   61 2    
   123   60   62 1    
   124   62   63 1    
   125   62   64 1    
   126   62  185 1    
   127   63  186 1    
   128   63  187 1    
   129   63  188 1    
   130   64   65 am   BACKBONE|DICT|INTERRES
   131   64  189 1    
   132   65   66 2    
   133   67   68 2    
   134   67   69 am   BACKBONE|DICT|INTERRES
   135   69   70 1    
   136   69  190 1    
   137   70   71 1    
   138   70   72 1    
   139   70  191 1    
   140   71  192 1    
   141   71  193 1    
   142   71  194 1    
   143   72   73 2    
   144   72   74 am   BACKBONE|DICT|INTERRES
   145   74   75 1    
   146   74  195 1    
   147   75   76 1    
   148   75   77 1    
   149   75  196 1    
   150   76  197 1    
   151   76  198 1    
   152   76  199 1    
   153   77   78 2    
   154   77   79 am   BACKBONE|DICT|INTERRES
   155   79   80 1    
   156   79  200 1    
   157   80   81 1    
   158   80   82 1    
   159   80  201 1    
   160   81  202 1    
   161   81  203 1    
   162   81  204 1    
   163   82   83 2    
   164   82   84 am   BACKBONE|DICT|INTERRES
   165   84   85 1    
   166   84  205 1    
   167   85   86 1    
   168   85   87 1    
   169   85  206 1    
   170   86  207 1    
   171   86  208 1    
   172   86  209 1    
   173   87   88 2    
   174   87   89 am   BACKBONE|DICT|INTERRES
   175   89   90 1    
   176   89  210 1    
   177   90   91 1    
   178   90   92 1    
   179   90  211 1    
   180   91  212 1    
   181   91  213 1    
   182   91  214 1    
   183   92   93 2    
   184   92   94 am   BACKBONE|DICT|INTERRES
   185   94   95 1    
   186   94  215 1    
   187   95   96 1    
   188   95   97 1    
   189   95  216 1    
   190   96  217 1    
   191   96  218 1    
   192   96  219 1    
   193   97   98 2    
   194   97   99 am   BACKBONE|DICT|INTERRES
   195   99  100 1    
   196   99  220 1    
   197  100  101 1    
   198  100  102 1    
   199  100  221 1    
   200  101  222 1    
   201  101  223 1    
   202  101  224 1    
   203  102  103 2    
   204  102  104 am   BACKBONE|DICT|INTERRES
   205  104  105 1    
   206  104  225 1    
   207  105  106 1    
   208  105  107 1    
   209  105  226 1    
   210  106  227 1    
   211  106  228 1    
   212  106  229 1    
   213  107  108 2    
   214  107  109 am   BACKBONE|DICT|INTERRES
   215  109  110 1    
   216  109  230 1    
   217  110  111 1    
   218  110  112 1    
   219  110  231 1    
   220  111  232 1    
   221  111  233 1    
   222  111  234 1    
   223  112  113 2    
   224  112  114 am   BACKBONE|DICT|INTERRES
   225  114  115 1    
   226  114  235 1    
   227  115  116 1    
   228  115  117 1    
   229  115  236 1    
   230  116  237 1    
   231  116  238 1    
   232  116  239 1    
   233  117  118 2    
   234  117  119 am   BACKBONE|DICT|INTERRES
   235  119  120 1    
   236  119  240 1    
   237  120  121 1    
   238  120  124 1    
   239  120  241 1    
   240  121  122 am   BACKBONE|DICT|INTERRES
   241  121  123 2    
   242  122  242 1    
   243  122  243 1    
   244  124  125 1    
   245  124  244 1    
   246  124  245 1    
   247  125  126 1    
   248  126  246 1    
   249  126  247 1    
@<TRIPOS>SUBSTRUCTURE
     1 UNK         1 GROUP             0       ****    0 ROOT    
