@<TRIPOS>MOLECULE
3R540
247   249    1
SMALL
USER_CHARGES


@<TRIPOS>ATOM
      1 CA         -0.7668   -9.8764  -51.3224 C.3       0 UNK        -0.1800 
      2 C          -0.1424  -10.8867  -50.3714 C.2       0 UNK         0.5000 
      3 O           0.3631  -10.5044  -49.3160 O.2       0 UNK        -0.5000 
      4 N          -0.1912  -12.1775  -50.7299 N.am      1 UNK        -0.5000 
      5 CA          0.4011  -13.2991  -49.9817 C.3       1 UNK         0.1400 
      6 C6          0.3412  -14.6296  -50.7727 C.3       23 UNK        -0.0398 
      7 S7          1.1450  -14.4986  -52.4079 S.3       23 UNK        -0.2404 
      8 C8          2.8381  -15.0548  -52.0373 C.3       23 UNK        -0.0205 
      9 C9          2.9848  -16.5680  -52.1139 C.ar      23 UNK        -0.0193 
     10 C10         3.2277  -17.1857  -53.3450 C.ar      23 UNK        -0.1150 
     11 C11         3.4194  -18.5687  -53.4289 C.ar      23 UNK        -0.0193 
     12 C12         3.3837  -19.3298  -52.2547 C.ar      23 UNK        -0.1150 
     13 C13         3.1098  -18.7317  -51.0223 C.ar      23 UNK        -0.0193 
     14 C14         2.9141  -17.3490  -50.9569 C.ar      23 UNK        -0.1150 
     15 C15         3.0432  -19.5800  -49.7622 C.3       23 UNK        -0.0205 
     16 S16         1.6270  -20.7261  -49.8070 S.3       23 UNK        -0.2404 
     17 C17         0.9858  -20.5777  -48.1081 C.3       23 UNK        -0.0398 
     18 CA          0.3871  -21.8959  -47.5649 C.3       11 UNK         0.1400 
     19 N           0.3223  -21.8939  -46.1012 N.am      11 UNK        -0.5000 
     20 C           0.0049  -22.9500  -45.3390 C.2       10 UNK         0.5000 
     21 O          -0.2299  -24.0721  -45.7870 O.2       10 UNK        -0.5000 
     22 CA         -0.1176  -22.6973  -43.8242 C.3       10 UNK         0.1400 
     23 CB          1.2658  -22.6618  -43.1584 C.3       10 UNK        -0.1800 
     24 N          -0.8439  -21.4621  -43.5227 N.am      10 UNK        -0.5000 
     25 C          -2.1341  -21.2564  -43.8257 C.2       9 UNK         0.5000 
     26 O          -2.8622  -22.1144  -44.3246 O.2       9 UNK        -0.5000 
     27 CA         -2.6879  -19.8396  -43.5863 C.3       9 UNK         0.1400 
     28 CB         -3.0760  -19.6376  -42.1143 C.3       9 UNK        -0.1800 
     29 N          -1.7464  -18.7969  -43.9939 N.am      9 UNK        -0.5000 
     30 C          -1.3210  -18.6006  -45.2499 C.2       8 UNK         0.5000 
     31 O          -1.7250  -19.2389  -46.2189 O.2       8 UNK        -0.5000 
     32 CA         -0.2250  -17.5434  -45.4479 C.3       8 UNK         0.1400 
     33 CB         -0.8542  -16.1455  -45.5137 C.3       8 UNK        -0.1800 
     34 N           0.7853  -17.6137  -44.3885 N.am      8 UNK        -0.5000 
     35 C           1.6489  -18.6322  -44.2498 C.2       7 UNK         0.5000 
     36 O           1.7218  -19.5682  -45.0434 O.2       7 UNK        -0.5000 
     37 CA          2.5360  -18.6547  -42.9921 C.3       7 UNK         0.1400 
     38 CB          3.9071  -18.0178  -43.2531 C.3       7 UNK        -0.1800 
     39 N           1.8938  -18.0046  -41.8521 N.am      7 UNK        -0.5000 
     40 C           0.8977  -18.5631  -41.1502 C.2       6 UNK         0.5000 
     41 O           0.4672  -19.6968  -41.3656 O.2       6 UNK        -0.5000 
     42 CA          0.2352  -17.6892  -40.0682 C.3       6 UNK         0.1400 
     43 CB          0.9839  -17.8198  -38.7339 C.3       6 UNK        -0.1800 
     44 N           0.1537  -16.2746  -40.4426 N.am      6 UNK        -0.5000 
     45 C          -0.5265  -15.8054  -41.4973 C.2       5 UNK         0.5000 
     46 O          -1.1802  -16.5287  -42.2480 O.2       5 UNK        -0.5000 
     47 CA         -0.4550  -14.2922  -41.7855 C.3       5 UNK         0.1400 
     48 CB         -0.0147  -13.4492  -40.5685 C.3       5 UNK        -0.1800 
     49 N           0.3802  -13.9685  -42.9482 N.am      5 UNK        -0.5000 
     50 C           1.6773  -14.2673  -43.1368 C.2       4 UNK         0.5000 
     51 O           2.3151  -15.0112  -42.3906 O.2       4 UNK        -0.5000 
     52 CA          2.4012  -13.6198  -44.3421 C.3       4 UNK         0.1400 
     53 CB          2.9062  -14.6667  -45.3485 C.3       4 UNK        -0.1800 
     54 N           1.5895  -12.6290  -45.0524 N.am      4 UNK        -0.5000 
     55 C           1.3422  -11.3873  -44.6062 C.2       3 UNK         0.5000 
     56 O           1.8340  -10.9284  -43.5746 O.2       3 UNK        -0.5000 
     57 CA          0.3672  -10.5126  -45.4230 C.3       3 UNK         0.1400 
     58 CB          1.1410   -9.4577  -46.2277 C.3       3 UNK        -0.1800 
     59 N          -0.4989  -11.2651  -46.3342 N.am      3 UNK        -0.5000 
     60 C          -1.4046  -12.1837  -45.9635 C.2       2 UNK         0.5000 
     61 O          -1.6297  -12.4792  -44.7891 O.2       2 UNK        -0.5000 
     62 CA         -2.1479  -12.9364  -47.0864 C.3       2 UNK         0.1400 
     63 CB         -3.5330  -12.3172  -47.3215 C.3       2 UNK        -0.1800 
     64 N          -1.4291  -12.9831  -48.3632 N.am      2 UNK        -0.5000 
     65 C          -0.1979  -13.4777  -48.5692 C.2       1 UNK         0.5000 
     66 O           0.4809  -14.0050  -47.6884 O.2       1 UNK        -0.5000 
     67 C          -0.9827  -22.2169  -48.1993 C.2       11 UNK         0.5000 
     68 O          -1.0514  -23.0681  -49.0843 O.2       11 UNK        -0.5000 
     69 N          -2.0521  -21.5825  -47.6951 N.am      12 UNK        -0.5000 
     70 CA         -3.4415  -21.8432  -48.0714 C.3       12 UNK         0.1400 
     71 CB         -4.3816  -20.8945  -47.3131 C.3       12 UNK        -0.1800 
     72 C          -3.8555  -23.3006  -47.8230 C.2       12 UNK         0.5000 
     73 O          -4.4309  -23.9192  -48.7164 O.2       12 UNK        -0.5000 
     74 N          -3.5315  -23.8291  -46.6341 N.am      13 UNK        -0.5000 
     75 CA         -3.7877  -25.2154  -46.2427 C.3       13 UNK         0.1400 
     76 CB         -3.4369  -25.4110  -44.7603 C.3       13 UNK        -0.1800 
     77 C          -3.0421  -26.2307  -47.1270 C.2       13 UNK         0.5000 
     78 O          -3.6577  -27.1895  -47.5942 O.2       13 UNK        -0.5000 
     79 N          -1.7518  -25.9752  -47.3890 N.am      14 UNK        -0.5000 
     80 CA         -0.9072  -26.7704  -48.2864 C.3       14 UNK         0.1400 
     81 CB          0.5403  -26.2623  -48.2069 C.3       14 UNK        -0.1800 
     82 C          -1.4044  -26.7674  -49.7457 C.2       14 UNK         0.5000 
     83 O          -1.3042  -27.7868  -50.4286 O.2       14 UNK        -0.5000 
     84 N          -1.9699  -25.6340  -50.1765 N.am      15 UNK        -0.5000 
     85 CA         -2.5977  -25.4278  -51.4806 C.3       15 UNK         0.1400 
     86 CB         -2.5125  -23.9328  -51.8164 C.3       15 UNK        -0.1800 
     87 C          -4.0547  -25.9401  -51.5607 C.2       15 UNK         0.5000 
     88 O          -4.7039  -25.7216  -52.5838 O.2       15 UNK        -0.5000 
     89 N          -4.5415  -26.6118  -50.5053 N.am      16 UNK        -0.5000 
     90 CA         -5.8714  -27.2132  -50.3618 C.3       16 UNK         0.1400 
     91 CB         -6.1092  -28.3131  -51.4189 C.3       16 UNK        -0.1800 
     92 C          -7.0001  -26.1640  -50.2977 C.2       16 UNK         0.5000 
     93 O          -7.9881  -26.2612  -51.0279 O.2       16 UNK        -0.5000 
     94 N          -6.8240  -25.1911  -49.3940 N.am      17 UNK        -0.5000 
     95 CA         -7.7247  -24.0815  -49.0666 C.3       17 UNK         0.1400 
     96 CB         -9.0962  -24.5884  -48.5715 C.3       17 UNK        -0.1800 
     97 C          -7.8203  -23.0386  -50.1968 C.2       17 UNK         0.5000 
     98 O          -8.9053  -22.5278  -50.4832 O.2       17 UNK        -0.5000 
     99 N          -6.6714  -22.7324  -50.8121 N.am      18 UNK        -0.5000 
    100 CA        -6.5292  -21.6729  -51.8111 C.3       18 UNK         0.1400 
    101 CB        -5.3045  -21.9733  -52.6824 C.3       18 UNK        -0.1800 
    102 C         -6.4003  -20.2858  -51.1506 C.2       18 UNK         0.5000 
    103 O         -6.2002  -20.1851  -49.9375 O.2       18 UNK        -0.5000 
    104 N         -6.5020  -19.2317  -51.9681 N.am      19 UNK        -0.5000 
    105 CA        -6.4511  -17.8270  -51.5592 C.3       19 UNK         0.1400 
    106 CB        -7.0882  -16.9724  -52.6700 C.3       19 UNK        -0.1800 
    107 C         -5.0230  -17.3595  -51.2014 C.2       19 UNK         0.5000 
    108 O         -4.4215  -16.5871  -51.9487 O.2       19 UNK        -0.5000 
    109 N         -4.5089  -17.8501  -50.0643 N.am      20 UNK        -0.5000 
    110 CA        -3.2342  -17.5052  -49.4116 C.3       20 UNK         0.1400 
    111 CB        -3.1747  -15.9994  -49.0812 C.3       20 UNK        -0.1800 
    112 C         -1.9577  -17.9713  -50.1435 C.2       20 UNK         0.5000 
    113 O         -0.8633  -17.7630  -49.6196 O.2       20 UNK        -0.5000 
    114 N         -2.1041  -18.5970  -51.3147 N.am      21 UNK        -0.5000 
    115 CA        -1.0349  -19.0936  -52.1715 C.3       21 UNK         0.1400 
    116 CB        -0.3197  -17.9091  -52.8438 C.3       21 UNK        -0.1800 
    117 C         -1.6503  -20.0334  -53.2240 C.2       21 UNK         0.5000 
    118 O         -2.8601  -19.9572  -53.4439 O.2       21 UNK        -0.5000 
    119 N         -0.8825  -20.8960  -53.9008 N.am      22 UNK        -0.5000 
    120 CA         0.5568  -21.1601  -53.7734 C.3       22 UNK         0.1400 
    121 C          0.7433  -22.6715  -53.4791 C.2       22 UNK         0.5000 
    122 N          1.3227  -23.0298  -52.3416 N.am      22 UNK        -0.7600 
    123 O          0.3700  -23.5220  -54.2837 O.2       22 UNK        -0.5000 
    124 C124        1.3012  -20.7137  -55.0616 C.3       23 UNK        -0.0398 
    125 S125        3.1166  -20.9177  -54.9871 S.3       23 UNK        -0.2404 
    126 C126        3.7086  -19.1999  -54.7901 C.3       23 UNK        -0.0205 
    127 H127       -0.0177   -9.1531  -51.6444 H         1 UNK         0.0600 
    128 H128       -1.5701   -9.3366  -50.8210 H         1 UNK         0.0600 
    129 H129       -1.1802  -10.3563  -52.2097 H         1 UNK         0.0600 
    130 H130       -0.6077  -12.4254  -51.6164 H         1 UNK         0.3000 
    131 H131        1.4545  -13.0526  -49.8323 H         1 UNK         0.0600 
    132 H132       -0.6952  -14.9328  -50.9313 H         1 UNK         0.0800 
    133 H133        0.8045  -15.4402  -50.2080 H         1 UNK         0.0800 
    134 H134        3.1447  -14.6874  -51.0567 H         1 UNK         0.0800 
    135 H135        3.5178  -14.5922  -52.7544 H         1 UNK         0.0800 
    136 H136        3.2779  -16.5817  -54.2403 H         1 UNK         0.1150 
    137 H137        3.5562  -20.3957  -52.2922 H         1 UNK         0.1150 
    138 H138        2.7191  -16.8791  -50.0034 H         1 UNK         0.1150 
    139 H139        3.9656  -20.1526  -49.6567 H         1 UNK         0.0800 
    140 H140        2.9805  -18.9334  -48.8858 H         1 UNK         0.0800 
    141 H141        0.2670  -19.7580  -48.0625 H         1 UNK         0.0800 
    142 H142        1.8212  -20.2841  -47.4739 H         1 UNK         0.0800 
    143 H143        1.0657  -22.7077  -47.8361 H         1 UNK         0.0600 
    144 H144        0.5550  -21.0174  -45.6447 H         1 UNK         0.3000 
    145 H145       -0.6795  -23.5280  -43.3923 H         1 UNK         0.0600 
    146 H146        1.1823  -22.5129  -42.0817 H         1 UNK         0.0600 
    147 H147        1.7974  -23.6007  -43.3177 H         1 UNK         0.0600 
    148 H148        1.8878  -21.8623  -43.5598 H         1 UNK         0.0600 
    149 H149       -0.3267  -20.7237  -43.0599 H         1 UNK         0.3000 
    150 H150       -3.5890  -19.7273  -44.1923 H         1 UNK         0.0600 
    151 H151       -3.8159  -20.3756  -41.8023 H         1 UNK         0.0600 
    152 H152       -3.5112  -18.6510  -41.9537 H         1 UNK         0.0600 
    153 H153       -2.2166  -19.7347  -41.4512 H         1 UNK         0.0600 
    154 H154       -1.4100  -18.1704  -43.2685 H         1 UNK         0.3000 
    155 H155        0.2705  -17.7357  -46.4023 H         1 UNK         0.0600 
    156 H156       -1.5179  -15.9409  -44.6752 H         1 UNK         0.0600 
    157 H157       -1.4508  -16.0575  -46.4192 H         1 UNK         0.0600 
    158 H158       -0.1060  -15.3583  -45.5405 H         1 UNK         0.0600 
    159 H159        0.7322  -16.9188  -43.6583 H         1 UNK         0.3000 
    160 H160        2.7093  -19.7028  -42.7394 H         1 UNK         0.0600 
    161 H161        3.8324  -16.9430  -43.3993 H         1 UNK         0.0600 
    162 H162        4.3765  -18.4426  -44.1415 H         1 UNK         0.0600 
    163 H163        4.5824  -18.1900  -42.4149 H         1 UNK         0.0600 
    164 H164        2.1579  -17.0440  -41.6625 H         1 UNK         0.3000 
    165 H165       -0.7834  -18.0565  -39.9267 H         1 UNK         0.0600 
    166 H166        0.4753  -17.2714  -37.9407 H         1 UNK         0.0600 
    167 H167        1.0428  -18.8629  -38.4202 H         1 UNK         0.0600 
    168 H168        2.0039  -17.4399  -38.8053 H         1 UNK         0.0600 
    169 H169        0.6894  -15.6240  -39.8867 H         1 UNK         0.3000 
    170 H170       -1.4698  -13.9872  -42.0450 H         1 UNK         0.0600 
    171 H171       -0.6452  -13.6490  -39.7011 H         1 UNK         0.0600 
    172 H172        1.0198  -13.6417  -40.2822 H         1 UNK         0.0600 
    173 H173       -0.0993  -12.3844  -40.7866 H         1 UNK         0.0600 
    174 H174       -0.0771  -13.3924  -43.6459 H         1 UNK         0.3000 
    175 H175        3.2786  -13.1086  -43.9406 H         1 UNK         0.0600 
    176 H176        2.1107  -15.3144  -45.7120 H         1 UNK         0.0600 
    177 H177        3.3641  -14.1897  -46.2152 H         1 UNK         0.0600 
    178 H178        3.6685  -15.3012  -44.9004 H         1 UNK         0.0600 
    179 H179        1.1533  -12.9375  -45.9143 H         1 UNK         0.3000 
    180 H180       -0.2766   -9.9941  -44.7097 H         1 UNK         0.0600 
    181 H181        1.8024   -9.9202  -46.9615 H         1 UNK         0.0600 
    182 H182        1.7569   -8.8389  -45.5739 H         1 UNK         0.0600 
    183 H183        0.4630   -8.7913  -46.7614 H         1 UNK         0.0600 
    184 H184       -0.3557  -11.0974  -47.3237 H         1 UNK         0.3000 
    185 H185       -2.2927  -13.9615  -46.7476 H         1 UNK         0.0600 
    186 H186       -4.1113  -12.2893  -46.3969 H         1 UNK         0.0600 
    187 H187       -3.4582  -11.2946  -47.6936 H         1 UNK         0.0600 
    188 H188       -4.1074  -12.8977  -48.0439 H         1 UNK         0.0600 
    189 H189       -1.8903  -12.5471  -49.1481 H         1 UNK         0.3000 
    190 H190       -1.9043  -20.8524  -47.0006 H         1 UNK         0.3000 
    191 H191       -3.5412  -21.6431  -49.1402 H         1 UNK         0.0600 
    192 H192       -4.2771  -20.9941  -46.2339 H         1 UNK         0.0600 
    193 H193       -5.4245  -21.1006  -47.5562 H         1 UNK         0.0600 
    194 H194       -4.1900  -19.8554  -47.5691 H         1 UNK         0.0600 
    195 H195       -3.0926  -23.2343  -45.9372 H         1 UNK         0.3000 
    196 H196       -4.8577  -25.3980  -46.3618 H         1 UNK         0.0600 
    197 H197       -3.6389  -26.4346  -44.4425 H         1 UNK         0.0600 
    198 H198       -4.0286  -24.7505  -44.1261 H         1 UNK         0.0600 
    199 H199       -2.3845  -25.2068  -44.5630 H         1 UNK         0.0600 
    200 H200       -1.3097  -25.1772  -46.9395 H         1 UNK         0.3000 
    201 H201       -0.9268  -27.8031  -47.9326 H         1 UNK         0.0600 
    202 H202        0.9270  -26.3319  -47.1901 H         1 UNK         0.0600 
    203 H203        0.6187  -25.2216  -48.5233 H         1 UNK         0.0600 
    204 H204        1.1980  -26.8515  -48.8470 H         1 UNK         0.0600 
    205 H205       -1.9484  -24.8242  -49.5644 H         1 UNK         0.3000 
    206 H206       -2.0258  -25.9729  -52.2340 H         1 UNK         0.0600 
    207 H207       -1.4813  -23.5841  -51.7922 H         1 UNK         0.0600 
    208 H208       -2.8993  -23.7244  -52.8142 H         1 UNK         0.0600 
    209 H209       -3.0753  -23.3375  -51.0985 H         1 UNK         0.0600 
    210 H210       -3.9409  -26.7087  -49.6954 H         1 UNK         0.3000 
    211 H211       -5.8685  -27.7057  -49.3883 H         1 UNK         0.0600 
    212 H212       -6.1844  -27.9045  -52.4268 H         1 UNK         0.0600 
    213 H213       -7.0368  -28.8500  -51.2173 H         1 UNK         0.0600 
    214 H214       -5.3027  -29.0463  -51.4127 H         1 UNK         0.0600 
    215 H215       -5.9130  -25.1287  -48.9488 H         1 UNK         0.3000 
    216 H216       -7.2575  -23.5615  -48.2290 H         1 UNK         0.0600 
    217 H217       -9.6963  -23.7658  -48.1812 H         1 UNK         0.0600 
    218 H218       -8.9813  -25.3148  -47.7671 H         1 UNK         0.0600 
    219 H219       -9.6710  -25.0580  -49.3699 H         1 UNK         0.0600 
    220 H220       -5.8222  -23.1707  -50.4822 H         1 UNK         0.3000 
    221 H221       -7.4139  -21.6705  -52.4513 H         1 UNK         0.0600 
    222 H222       -4.3791  -21.8076  -52.1329 H         1 UNK         0.0600 
    223 H223       -5.3120  -23.0017  -53.0438 H         1 UNK         0.0600 
    224 H224       -5.2793  -21.3249  -53.5586 H         1 UNK         0.0600 
    225 H225       -6.6196  -19.3968  -52.9573 H         1 UNK         0.3000 
    226 H226       -7.0639  -17.7056  -50.6633 H         1 UNK         0.0600 
    227 H227       -8.1253  -17.2604  -52.8432 H         1 UNK         0.0600 
    228 H228       -7.0876  -15.9157  -52.3995 H         1 UNK         0.0600 
    229 H229       -6.5508  -17.0706  -53.6142 H         1 UNK         0.0600 
    230 H230       -5.0621  -18.5610  -49.5948 H         1 UNK         0.3000 
    231 H231       -3.2272  -18.0357  -48.4601 H         1 UNK         0.0600 
    232 H232       -2.2680  -15.7609  -48.5281 H         1 UNK         0.0600 
    233 H233       -4.0204  -15.6946  -48.4650 H         1 UNK         0.0600 
    234 H234       -3.1694  -15.3804  -49.9781 H         1 UNK         0.0600 
    235 H235       -3.0325  -18.7367  -51.6937 H         1 UNK         0.3000 
    236 H236       -0.3459  -19.6523  -51.5418 H         1 UNK         0.0600 
    237 H237       -1.0133  -17.2909  -53.4148 H         1 UNK         0.0600 
    238 H238        0.1600  -17.2749  -52.1013 H         1 UNK         0.0600 
    239 H239        0.4611  -18.2426  -53.5242 H         1 UNK         0.0600 
    240 H240       -1.3444  -21.5177  -54.5488 H         1 UNK         0.3000 
    241 H241        0.9831  -20.6032  -52.9421 H         1 UNK         0.0600 
    242 H242        1.4490  -24.0106  -52.1499 H         1 UNK         0.3800 
    243 H243        1.6072  -22.3503  -51.6516 H         1 UNK         0.3800 
    244 H244        0.9367  -21.2767  -55.9225 H         1 UNK         0.0800 
    245 H245        1.0745  -19.6701  -55.2805 H         1 UNK         0.0800 
    246 H246        3.2830  -18.5910  -55.5893 H         1 UNK         0.0800 
    247 H247        4.7885  -19.1918  -54.9418 H         1 UNK         0.0800 
@<TRIPOS>BOND
     1    1    2 1    
     2    1  127 1    
     3    1  128 1    
     4    1  129 1    
     5    2    3 2    
     6    2    4 am   BACKBONE|DICT|INTERRES
     7    4    5 1    
     8    4  130 1    
     9    5    6 1    
    10    5   65 1    
    11    5  131 1    
    12    6    7 1    
    13    6  132 1    
    14    6  133 1    
    15    7    8 1    
    16    8    9 1    
    17    8  134 1    
    18    8  135 1    
    19    9   10 ar   
    20    9   14 ar   
    21   10   11 ar   
    22   10  136 1    
    23   11   12 ar   
    24   11  126 1    
    25   12   13 ar   
    26   12  137 1    
    27   13   14 ar   
    28   13   15 1    
    29   14  138 1    
    30   15   16 1    
    31   15  139 1    
    32   15  140 1    
    33   16   17 1    
    34   17   18 1    
    35   17  141 1    
    36   17  142 1    
    37   18   19 1    
    38   18   67 1    
    39   18  143 1    
    40   19   20 am   BACKBONE|DICT|INTERRES
    41   19  144 1    
    42   20   21 2    
    43   20   22 1    
    44   22   23 1    
    45   22   24 1    
    46   22  145 1    
    47   23  146 1    
    48   23  147 1    
    49   23  148 1    
    50   24   25 am   BACKBONE|DICT|INTERRES
    51   24  149 1    
    52   25   26 2    
    53   25   27 1    
    54   27   28 1    
    55   27   29 1    
    56   27  150 1    
    57   28  151 1    
    58   28  152 1    
    59   28  153 1    
    60   29   30 am   BACKBONE|DICT|INTERRES
    61   29  154 1    
    62   30   31 2    
    63   30   32 1    
    64   32   33 1    
    65   32   34 1    
    66   32  155 1    
    67   33  156 1    
    68   33  157 1    
    69   33  158 1    
    70   34   35 am   BACKBONE|DICT|INTERRES
    71   34  159 1    
    72   35   36 2    
    73   35   37 1    
    74   37   38 1    
    75   37   39 1    
    76   37  160 1    
    77   38  161 1    
    78   38  162 1    
    79   38  163 1    
    80   39   40 am   BACKBONE|DICT|INTERRES
    81   39  164 1    
    82   40   41 2    
    83   40   42 1    
    84   42   43 1    
    85   42   44 1    
    86   42  165 1    
    87   43  166 1    
    88   43  167 1    
    89   43  168 1    
    90   44   45 am   BACKBONE|DICT|INTERRES
    91   44  169 1    
    92   45   46 2    
    93   45   47 1    
    94   47   48 1    
    95   47   49 1    
    96   47  170 1    
    97   48  171 1    
    98   48  172 1    
    99   48  173 1    
   100   49   50 am   BACKBONE|DICT|INTERRES
   101   49  174 1    
   102   50   51 2    
   103   50   52 1    
   104   52   53 1    
   105   52   54 1    
   106   52  175 1    
   107   53  176 1    
   108   53  177 1    
   109   53  178 1    
   110   54   55 am   BACKBONE|DICT|INTERRES
   111   54  179 1    
   112   55   56 2    
   113   55   57 1    
   114   57   58 1    
   115   57   59 1    
   116   57  180 1    
   117   58  181 1    
   118   58  182 1    
   119   58  183 1    
   120   59   60 am   BACKBONE|DICT|INTERRES
   121   59  184 1    
   122   60   61 2    
   123   60   62 1    
   124   62   63 1    
   125   62   64 1    
   126   62  185 1    
   127   63  186 1    
   128   63  187 1    
   129   63  188 1    
   130   64   65 am   BACKBONE|DICT|INTERRES
   131   64  189 1    
   132   65   66 2    
   133   67   68 2    
   134   67   69 am   BACKBONE|DICT|INTERRES
   135   69   70 1    
   136   69  190 1    
   137   70   71 1    
   138   70   72 1    
   139   70  191 1    
   140   71  192 1    
   141   71  193 1    
   142   71  194 1    
   143   72   73 2    
   144   72   74 am   BACKBONE|DICT|INTERRES
   145   74   75 1    
   146   74  195 1    
   147   75   76 1    
   148   75   77 1    
   149   75  196 1    
   150   76  197 1    
   151   76  198 1    
   152   76  199 1    
   153   77   78 2    
   154   77   79 am   BACKBONE|DICT|INTERRES
   155   79   80 1    
   156   79  200 1    
   157   80   81 1    
   158   80   82 1    
   159   80  201 1    
   160   81  202 1    
   161   81  203 1    
   162   81  204 1    
   163   82   83 2    
   164   82   84 am   BACKBONE|DICT|INTERRES
   165   84   85 1    
   166   84  205 1    
   167   85   86 1    
   168   85   87 1    
   169   85  206 1    
   170   86  207 1    
   171   86  208 1    
   172   86  209 1    
   173   87   88 2    
   174   87   89 am   BACKBONE|DICT|INTERRES
   175   89   90 1    
   176   89  210 1    
   177   90   91 1    
   178   90   92 1    
   179   90  211 1    
   180   91  212 1    
   181   91  213 1    
   182   91  214 1    
   183   92   93 2    
   184   92   94 am   BACKBONE|DICT|INTERRES
   185   94   95 1    
   186   94  215 1    
   187   95   96 1    
   188   95   97 1    
   189   95  216 1    
   190   96  217 1    
   191   96  218 1    
   192   96  219 1    
   193   97   98 2    
   194   97   99 am   BACKBONE|DICT|INTERRES
   195   99  100 1    
   196   99  220 1    
   197  100  101 1    
   198  100  102 1    
   199  100  221 1    
   200  101  222 1    
   201  101  223 1    
   202  101  224 1    
   203  102  103 2    
   204  102  104 am   BACKBONE|DICT|INTERRES
   205  104  105 1    
   206  104  225 1    
   207  105  106 1    
   208  105  107 1    
   209  105  226 1    
   210  106  227 1    
   211  106  228 1    
   212  106  229 1    
   213  107  108 2    
   214  107  109 am   BACKBONE|DICT|INTERRES
   215  109  110 1    
   216  109  230 1    
   217  110  111 1    
   218  110  112 1    
   219  110  231 1    
   220  111  232 1    
   221  111  233 1    
   222  111  234 1    
   223  112  113 2    
   224  112  114 am   BACKBONE|DICT|INTERRES
   225  114  115 1    
   226  114  235 1    
   227  115  116 1    
   228  115  117 1    
   229  115  236 1    
   230  116  237 1    
   231  116  238 1    
   232  116  239 1    
   233  117  118 2    
   234  117  119 am   BACKBONE|DICT|INTERRES
   235  119  120 1    
   236  119  240 1    
   237  120  121 1    
   238  120  124 1    
   239  120  241 1    
   240  121  122 am   BACKBONE|DICT|INTERRES
   241  121  123 2    
   242  122  242 1    
   243  122  243 1    
   244  124  125 1    
   245  124  244 1    
   246  124  245 1    
   247  125  126 1    
   248  126  246 1    
   249  126  247 1    
@<TRIPOS>SUBSTRUCTURE
     1 UNK         1 GROUP             0       ****    0 ROOT    
