@<TRIPOS>MOLECULE
3R540
247   249    1
SMALL
USER_CHARGES


@<TRIPOS>ATOM
      1 CA         -3.1826  -13.2443  -46.3518 C.3       0 UNK        -0.1800 
      2 C          -2.1922  -12.2351  -46.9115 C.2       0 UNK         0.5000 
      3 O          -2.5233  -11.0581  -47.0572 O.2       0 UNK        -0.5000 
      4 N          -0.9699  -12.6878  -47.2146 N.am      1 UNK        -0.5000 
      5 CA          0.1396  -11.8986  -47.7640 C.3       1 UNK         0.1400 
      6 C6          1.1230  -12.7710  -48.5946 C.3       23 UNK        -0.0398 
      7 S7          1.6035  -14.3570  -47.8177 S.3       23 UNK        -0.2404 
      8 C8          2.0562  -15.3559  -49.2793 C.3       23 UNK        -0.0205 
      9 C9          0.9477  -16.2817  -49.7801 C.ar      23 UNK        -0.0193 
     10 C10        -0.3812  -15.8528  -49.8707 C.ar      23 UNK        -0.1150 
     11 C11        -1.3822  -16.7114  -50.3326 C.ar      23 UNK        -0.0193 
     12 C12        -1.0432  -18.0048  -50.7388 C.ar      23 UNK        -0.1150 
     13 C13         0.2823  -18.4418  -50.6822 C.ar      23 UNK        -0.0193 
     14 C14         1.2690  -17.5798  -50.1931 C.ar      23 UNK        -0.1150 
     15 C15         0.6536  -19.8334  -51.1753 C.3       23 UNK        -0.0205 
     16 S16         0.7714  -21.0377  -49.8172 S.3       23 UNK        -0.2404 
     17 C17        -0.9810  -21.2165  -49.3537 C.3       23 UNK        -0.0398 
     18 CA         -1.2242  -22.4484  -48.4510 C.3       11 UNK         0.1400 
     19 N          -0.6852  -22.2732  -47.0985 N.am      11 UNK        -0.5000 
     20 C          -0.6715  -23.2187  -46.1496 C.2       10 UNK         0.5000 
     21 O          -1.0794  -24.3657  -46.3294 O.2       10 UNK        -0.5000 
     22 CA         -0.1836  -22.8040  -44.7492 C.3       10 UNK         0.1400 
     23 CB          1.3498  -22.7701  -44.6810 C.3       10 UNK        -0.1800 
     24 N          -0.7360  -21.5168  -44.3244 N.am      10 UNK        -0.5000 
     25 C          -2.0376  -21.2998  -44.0839 C.2       9 UNK         0.5000 
     26 O          -2.8969  -22.1796  -44.1382 O.2       9 UNK        -0.5000 
     27 CA         -2.4639  -19.8505  -43.7865 C.3       9 UNK         0.1400 
     28 CB         -2.1922  -19.4852  -42.3200 C.3       9 UNK        -0.1800 
     29 N          -1.8083  -18.8825  -44.6643 N.am      9 UNK        -0.5000 
     30 C          -1.9520  -18.8410  -45.9965 C.2       8 UNK         0.5000 
     31 O          -2.7085  -19.5773  -46.6290 O.2       8 UNK        -0.5000 
     32 CA         -1.0572  -17.8417  -46.7501 C.3       8 UNK         0.1400 
     33 CB         -1.6687  -16.4343  -46.7046 C.3       8 UNK        -0.1800 
     34 N           0.3122  -17.8146  -46.2287 N.am      8 UNK        -0.5000 
     35 C           1.1463  -18.8648  -46.2505 C.2       7 UNK         0.5000 
     36 O           0.8524  -19.9570  -46.7265 O.2       7 UNK        -0.5000 
     37 CA          2.5115  -18.6937  -45.5677 C.3       7 UNK         0.1400 
     38 CB          3.4976  -17.9740  -46.4995 C.3       7 UNK        -0.1800 
     39 N           2.3925  -17.9693  -44.3039 N.am      7 UNK        -0.5000 
     40 C           1.8026  -18.4598  -43.2024 C.2       6 UNK         0.5000 
     41 O           1.3779  -19.6124  -43.1159 O.2       6 UNK        -0.5000 
     42 CA          1.6013  -17.4855  -42.0202 C.3       6 UNK         0.1400 
     43 CB          2.8227  -17.5055  -41.0899 C.3       6 UNK        -0.1800 
     44 N           1.3495  -16.1092  -42.4560 N.am      6 UNK        -0.5000 
     45 C           0.3112  -15.7395  -43.2172 C.2       5 UNK         0.5000 
     46 O          -0.6342  -16.4885  -43.4620 O.2       5 UNK        -0.5000 
     47 CA          0.3457  -14.3426  -43.8765 C.3       5 UNK         0.1400 
     48 CB         -0.7433  -13.4390  -43.2818 C.3       5 UNK        -0.1800 
     49 N           1.6352  -13.6336  -43.8660 N.am      5 UNK        -0.5000 
     50 C           2.7990  -14.0922  -44.3590 C.2       4 UNK         0.5000 
     51 O           2.9405  -15.2377  -44.7830 O.2       4 UNK        -0.5000 
     52 CA          4.0159  -13.1473  -44.3782 C.3       4 UNK         0.1400 
     53 CB          4.7052  -13.1543  -45.7538 C.3       4 UNK        -0.1800 
     54 N           3.6657  -11.7710  -44.0333 N.am      4 UNK        -0.5000 
     55 C           3.7829  -11.2307  -42.8128 C.2       3 UNK         0.5000 
     56 O           4.2059  -11.8467  -41.8340 O.2       3 UNK        -0.5000 
     57 CA          3.3512   -9.7590  -42.6448 C.3       3 UNK         0.1400 
     58 CB          4.5825   -8.8409  -42.5998 C.3       3 UNK        -0.1800 
     59 N           2.4459   -9.2816  -43.6927 N.am      3 UNK        -0.5000 
     60 C           1.1927   -9.7149  -43.8800 C.2       2 UNK         0.5000 
     61 O           0.6604  -10.5643  -43.1656 O.2       2 UNK        -0.5000 
     62 CA          0.4040   -9.1264  -45.0688 C.3       2 UNK         0.1400 
     63 CB          1.1190   -7.9582  -45.7847 C.3       2 UNK        -0.1800 
     64 N           0.0234  -10.1510  -46.0458 N.am      2 UNK        -0.5000 
     65 C           0.8236  -11.0093  -46.6949 C.2       1 UNK         0.5000 
     66 O           2.0356  -11.0934  -46.4894 O.2       1 UNK        -0.5000 
     67 C          -2.7198  -22.8209  -48.4461 C.2       11 UNK         0.5000 
     68 O          -3.1420  -23.5949  -49.3025 O.2       11 UNK        -0.5000 
     69 N          -3.4926  -22.2921  -47.4925 N.am      12 UNK        -0.5000 
     70 CA         -4.8890  -22.6569  -47.2907 C.3       12 UNK         0.1400 
     71 CB         -5.5988  -21.5473  -46.4976 C.3       12 UNK        -0.1800 
     72 C          -5.0336  -24.0297  -46.6080 C.2       12 UNK         0.5000 
     73 O          -5.6012  -24.9475  -47.2013 O.2       12 UNK        -0.5000 
     74 N          -4.5546  -24.1347  -45.3622 N.am      13 UNK        -0.5000 
     75 CA         -4.9008  -25.2270  -44.4540 C.3       13 UNK         0.1400 
     76 CB         -4.9268  -24.6867  -43.0153 C.3       13 UNK        -0.1800 
     77 C          -3.9665  -26.4429  -44.5424 C.2       13 UNK         0.5000 
     78 O          -4.4503  -27.5727  -44.4624 O.2       13 UNK        -0.5000 
     79 N          -2.6535  -26.2069  -44.6584 N.am      14 UNK        -0.5000 
     80 CA         -1.6378  -27.2609  -44.5902 C.3       14 UNK         0.1400 
     81 CB         -0.3219  -26.6931  -44.0328 C.3       14 UNK        -0.1800 
     82 C          -1.4183  -27.9344  -45.9525 C.2       14 UNK         0.5000 
     83 O          -1.3252  -29.1610  -46.0147 O.2       14 UNK        -0.5000 
     84 N          -1.3506  -27.1249  -47.0181 N.am      15 UNK        -0.5000 
     85 CA         -1.1946  -27.5926  -48.3966 C.3       15 UNK         0.1400 
     86 CB         -0.7911  -26.4115  -49.2922 C.3       15 UNK        -0.1800 
     87 C          -2.4670  -28.2722  -48.9361 C.2       15 UNK         0.5000 
     88 O          -2.3591  -29.2331  -49.6979 O.2       15 UNK        -0.5000 
     89 N          -3.6321  -27.7530  -48.5180 N.am      16 UNK        -0.5000 
     90 CA         -4.9957  -28.1721  -48.8644 C.3       16 UNK         0.1400 
     91 CB         -5.3732  -29.3997  -48.0113 C.3       16 UNK        -0.1800 
     92 C          -5.2321  -28.4032  -50.3819 C.2       16 UNK         0.5000 
     93 O          -5.5310  -29.5289  -50.7817 O.2       16 UNK        -0.5000 
     94 N          -5.0964  -27.3897  -51.2483 N.am      17 UNK        -0.5000 
     95 CA         -4.7578  -25.9956  -50.9831 C.3       17 UNK         0.1400 
     96 CB         -6.0416  -25.1759  -50.7716 C.3       17 UNK        -0.1800 
     97 C          -3.9453  -25.4537  -52.1668 C.2       17 UNK         0.5000 
     98 O          -4.1631  -25.8663  -53.3083 O.2       17 UNK        -0.5000 
     99 N          -3.0508  -24.5129  -51.8596 N.am      18 UNK        -0.5000 
    100 CA        -2.2386  -23.7356  -52.7958 C.3       18 UNK         0.1400 
    101 CB        -0.7633  -23.8503  -52.3777 C.3       18 UNK        -0.1800 
    102 C         -2.6925  -22.2614  -52.8296 C.2       18 UNK         0.5000 
    103 O         -2.0377  -21.4332  -53.4614 O.2       18 UNK        -0.5000 
    104 N         -3.8142  -21.9485  -52.1624 N.am      19 UNK        -0.5000 
    105 CA        -4.4145  -20.6161  -52.0310 C.3       19 UNK         0.1400 
    106 CB        -5.5483  -20.6923  -50.9966 C.3       19 UNK        -0.1800 
    107 C         -4.9034  -19.9829  -53.3533 C.2       19 UNK         0.5000 
    108 O         -5.2808  -18.8133  -53.3593 O.2       19 UNK        -0.5000 
    109 N         -4.8694  -20.7428  -54.4549 N.am      20 UNK        -0.5000 
    110 CA        -5.0790  -20.2521  -55.8167 C.3       20 UNK         0.1400 
    111 CB        -5.3643  -21.4548  -56.7301 C.3       20 UNK        -0.1800 
    112 C         -3.8881  -19.4305  -56.3601 C.2       20 UNK         0.5000 
    113 O         -4.0528  -18.7438  -57.3692 O.2       20 UNK        -0.5000 
    114 N         -2.7118  -19.5273  -55.7178 N.am      21 UNK        -0.5000 
    115 CA        -1.4868  -18.8286  -56.1149 C.3       21 UNK         0.1400 
    116 CB        -0.2972  -19.4051  -55.3310 C.3       21 UNK        -0.1800 
    117 C         -1.5598  -17.3011  -55.9270 C.2       21 UNK         0.5000 
    118 O         -1.0307  -16.5635  -56.7602 O.2       21 UNK        -0.5000 
    119 N         -2.2008  -16.8581  -54.8400 N.am      22 UNK        -0.5000 
    120 CA        -2.4453  -15.4437  -54.5235 C.3       22 UNK         0.1400 
    121 C         -3.7196  -14.8827  -55.2168 C.2       22 UNK         0.5000 
    122 N         -3.8281  -13.5666  -55.3462 N.am      22 UNK        -0.7600 
    123 O         -4.6182  -15.6143  -55.6268 O.2       22 UNK        -0.5000 
    124 C124       -2.4423  -15.1876  -52.9921 C.3       23 UNK        -0.0398 
    125 S125       -3.5520  -16.2901  -52.0458 S.3       23 UNK        -0.2404 
    126 C126       -2.8289  -16.2374  -50.3754 C.3       23 UNK        -0.0205 
    127 H127       -2.7179  -13.8577  -45.5810 H         1 UNK         0.0600 
    128 H128       -3.5485  -13.8962  -47.1450 H         1 UNK         0.0600 
    129 H129       -4.0377  -12.7369  -45.9049 H         1 UNK         0.0600 
    130 H130       -0.7461  -13.6588  -47.0562 H         1 UNK         0.3000 
    131 H131       -0.2917  -11.1890  -48.4738 H         1 UNK         0.0600 
    132 H132        2.0285  -12.2161  -48.8459 H         1 UNK         0.0800 
    133 H133        0.6571  -12.9915  -49.5550 H         1 UNK         0.0800 
    134 H134        2.3726  -14.7043  -50.0944 H         1 UNK         0.0800 
    135 H135        2.9332  -15.9456  -49.0095 H         1 UNK         0.0800 
    136 H136       -0.6471  -14.8525  -49.5655 H         1 UNK         0.1150 
    137 H137       -1.8110  -18.6665  -51.1102 H         1 UNK         0.1150 
    138 H138        2.2933  -17.9217  -50.1447 H         1 UNK         0.1150 
    139 H139       -0.0668  -20.1852  -51.9154 H         1 UNK         0.0800 
    140 H140        1.6149  -19.7908  -51.6892 H         1 UNK         0.0800 
    141 H141       -1.5569  -21.2906  -50.2768 H         1 UNK         0.0800 
    142 H142       -1.3142  -20.3043  -48.8587 H         1 UNK         0.0800 
    143 H143       -0.7000  -23.2991  -48.8905 H         1 UNK         0.0600 
    144 H144       -0.2624  -21.3682  -46.8967 H         1 UNK         0.3000 
    145 H145       -0.5310  -23.5599  -44.0421 H         1 UNK         0.0600 
    146 H146        1.6937  -22.5282  -43.6752 H         1 UNK         0.0600 
    147 H147        1.7719  -23.7404  -44.9454 H         1 UNK         0.0600 
    148 H148        1.7718  -22.0331  -45.3636 H         1 UNK         0.0600 
    149 H149       -0.0838  -20.7466  -44.2325 H         1 UNK         0.3000 
    150 H150       -3.5395  -19.7792  -43.9605 H         1 UNK         0.0600 
    151 H151       -2.7124  -20.1670  -41.6462 H         1 UNK         0.0600 
    152 H152       -2.5382  -18.4762  -42.0947 H         1 UNK         0.0600 
    153 H153       -1.1300  -19.5346  -42.0810 H         1 UNK         0.0600 
    154 H154       -1.2089  -18.1918  -44.2219 H         1 UNK         0.3000 
    155 H155       -1.0016  -18.1570  -47.7928 H         1 UNK         0.0600 
    156 H156       -1.0134  -15.7006  -47.1681 H         1 UNK         0.0600 
    157 H157       -2.6177  -16.4108  -47.2409 H         1 UNK         0.0600 
    158 H158       -1.8676  -16.1091  -45.6847 H         1 UNK         0.0600 
    159 H159        0.6271  -16.9582  -45.7999 H         1 UNK         0.3000 
    160 H160        2.9105  -19.6877  -45.3548 H         1 UNK         0.0600 
    161 H161        3.1450  -16.9782  -46.7683 H         1 UNK         0.0600 
    162 H162        3.6339  -18.5322  -47.4266 H         1 UNK         0.0600 
    163 H163        4.4770  -17.8677  -46.0332 H         1 UNK         0.0600 
    164 H164        2.6766  -16.9916  -44.3231 H         1 UNK         0.3000 
    165 H165        0.7312  -17.8243  -41.4542 H         1 UNK         0.0600 
    166 H166        2.6618  -16.8773  -40.2137 H         1 UNK         0.0600 
    167 H167        3.0236  -18.5162  -40.7321 H         1 UNK         0.0600 
    168 H168        3.7211  -17.1518  -41.5976 H         1 UNK         0.0600 
    169 H169        2.0920  -15.4417  -42.3104 H         1 UNK         0.3000 
    170 H170        0.0965  -14.5069  -44.9260 H         1 UNK         0.0600 
    171 H171       -1.7025  -13.9552  -43.2220 H         1 UNK         0.0600 
    172 H172       -0.4848  -13.1083  -42.2753 H         1 UNK         0.0600 
    173 H173       -0.8980  -12.5549  -43.8999 H         1 UNK         0.0600 
    174 H174        1.6082  -12.6783  -43.5334 H         1 UNK         0.3000 
    175 H175        4.7303  -13.5411  -43.6527 H         1 UNK         0.0600 
    176 H176        5.0504  -14.1552  -46.0164 H         1 UNK         0.0600 
    177 H177        4.0322  -12.8256  -46.5456 H         1 UNK         0.0600 
    178 H178        5.5768  -12.4999  -45.7617 H         1 UNK         0.0600 
    179 H179        3.2557  -11.2223  -44.7824 H         1 UNK         0.3000 
    180 H180        2.8307   -9.6801  -41.6880 H         1 UNK         0.0600 
    181 H181        5.1358   -8.8644  -43.5396 H         1 UNK         0.0600 
    182 H182        5.2683   -9.1442  -41.8075 H         1 UNK         0.0600 
    183 H183        4.2978   -7.8073  -42.4021 H         1 UNK         0.0600 
    184 H184        2.8192   -8.5981  -44.3352 H         1 UNK         0.3000 
    185 H185       -0.5256   -8.7379  -44.6508 H         1 UNK         0.0600 
    186 H186        1.3481   -7.1485  -45.0906 H         1 UNK         0.0600 
    187 H187        2.0509   -8.2715  -46.2571 H         1 UNK         0.0600 
    188 H188        0.4842   -7.5363  -46.5641 H         1 UNK         0.0600 
    189 H189       -0.9674  -10.2044  -46.2651 H         1 UNK         0.3000 
    190 H190       -3.0965  -21.6032  -46.8626 H         1 UNK         0.3000 
    191 H191       -5.3784  -22.7244  -48.2647 H         1 UNK         0.0600 
    192 H192       -5.1308  -21.3721  -45.5287 H         1 UNK         0.0600 
    193 H193       -6.6440  -21.8018  -46.3183 H         1 UNK         0.0600 
    194 H194       -5.5823  -20.6052  -47.0462 H         1 UNK         0.0600 
    195 H195       -4.0359  -23.3567  -44.9586 H         1 UNK         0.3000 
    196 H196       -5.9101  -25.5740  -44.6877 H         1 UNK         0.0600 
    197 H197       -5.2237  -25.4642  -42.3102 H         1 UNK         0.0600 
    198 H198       -5.6392  -23.8677  -42.9148 H         1 UNK         0.0600 
    199 H199       -3.9483  -24.3182  -42.7047 H         1 UNK         0.0600 
    200 H200       -2.3286  -25.2628  -44.8219 H         1 UNK         0.3000 
    201 H201       -1.9753  -28.0299  -43.8915 H         1 UNK         0.0600 
    202 H202       -0.4800  -26.1928  -43.0773 H         1 UNK         0.0600 
    203 H203        0.1424  -25.9807  -44.7133 H         1 UNK         0.0600 
    204 H204        0.4003  -27.4928  -43.8645 H         1 UNK         0.0600 
    205 H205       -1.3790  -26.1192  -46.8637 H         1 UNK         0.3000 
    206 H206       -0.3866  -28.3270  -48.4199 H         1 UNK         0.0600 
    207 H207        0.1308  -25.9461  -48.9432 H         1 UNK         0.0600 
    208 H208       -0.6250  -26.7375  -50.3197 H         1 UNK         0.0600 
    209 H209       -1.5644  -25.6463  -49.3138 H         1 UNK         0.0600 
    210 H210       -3.5782  -26.9646  -47.8888 H         1 UNK         0.3000 
    211 H211       -5.6583  -27.3589  -48.5670 H         1 UNK         0.0600 
    212 H212       -4.7338  -30.2555  -48.2312 H         1 UNK         0.0600 
    213 H213       -6.4053  -29.7023  -48.1922 H         1 UNK         0.0600 
    214 H214       -5.2819  -29.1804  -46.9471 H         1 UNK         0.0600 
    215 H215       -5.1869  -27.5873  -52.2361 H         1 UNK         0.3000 
    216 H216       -4.1395  -25.9015  -50.0945 H         1 UNK         0.0600 
    217 H217       -6.6849  -25.2007  -51.6521 H         1 UNK         0.0600 
    218 H218       -5.8080  -24.1316  -50.5612 H         1 UNK         0.0600 
    219 H219       -6.6180  -25.5498  -49.9257 H         1 UNK         0.0600 
    220 H220       -2.9857  -24.2244  -50.8816 H         1 UNK         0.3000 
    221 H221       -2.3430  -24.1277  -53.8092 H         1 UNK         0.0600 
    222 H222       -0.4324  -24.8888  -52.3902 H         1 UNK         0.0600 
    223 H223       -0.5967  -23.4608  -51.3739 H         1 UNK         0.0600 
    224 H224       -0.1149  -23.2957  -53.0573 H         1 UNK         0.0600 
    225 H225       -4.2921  -22.6956  -51.6822 H         1 UNK         0.3000 
    226 H226       -3.6468  -19.9497  -51.6359 H         1 UNK         0.0600 
    227 H227       -5.1738  -21.0240  -50.0282 H         1 UNK         0.0600 
    228 H228       -6.0084  -19.7150  -50.8442 H         1 UNK         0.0600 
    229 H229       -6.3336  -21.3809  -51.3104 H         1 UNK         0.0600 
    230 H230       -4.5559  -21.6970  -54.3618 H         1 UNK         0.3000 
    231 H231       -5.9563  -19.6018  -55.8222 H         1 UNK         0.0600 
    232 H232       -4.5200  -22.1446  -56.7625 H         1 UNK         0.0600 
    233 H233       -5.5631  -21.1313  -57.7527 H         1 UNK         0.0600 
    234 H234       -6.2395  -22.0094  -56.3910 H         1 UNK         0.0600 
    235 H235       -2.6367  -20.1405  -54.9127 H         1 UNK         0.3000 
    236 H236       -1.3189  -19.0243  -57.1760 H         1 UNK         0.0600 
    237 H237       -0.1915  -20.4763  -55.5035 H         1 UNK         0.0600 
    238 H238        0.6377  -18.9324  -55.6344 H         1 UNK         0.0600 
    239 H239       -0.4107  -19.2489  -54.2574 H         1 UNK         0.0600 
    240 H240       -2.6614  -17.5239  -54.2367 H         1 UNK         0.3000 
    241 H241       -1.6105  -14.8694  -54.9306 H         1 UNK         0.0600 
    242 H242       -4.6513  -13.1869  -55.7880 H         1 UNK         0.3800 
    243 H243       -3.1074  -12.9382  -55.0256 H         1 UNK         0.3800 
    244 H244       -2.6989  -14.1519  -52.7643 H         1 UNK         0.0800 
    245 H245       -1.4232  -15.3203  -52.6293 H         1 UNK         0.0800 
    246 H246       -2.9188  -15.2220  -49.9863 H         1 UNK         0.0800 
    247 H247       -3.4243  -16.8713  -49.7172 H         1 UNK         0.0800 
@<TRIPOS>BOND
     1    1    2 1    
     2    1  127 1    
     3    1  128 1    
     4    1  129 1    
     5    2    3 2    
     6    2    4 am   BACKBONE|DICT|INTERRES
     7    4    5 1    
     8    4  130 1    
     9    5    6 1    
    10    5   65 1    
    11    5  131 1    
    12    6    7 1    
    13    6  132 1    
    14    6  133 1    
    15    7    8 1    
    16    8    9 1    
    17    8  134 1    
    18    8  135 1    
    19    9   10 ar   
    20    9   14 ar   
    21   10   11 ar   
    22   10  136 1    
    23   11   12 ar   
    24   11  126 1    
    25   12   13 ar   
    26   12  137 1    
    27   13   14 ar   
    28   13   15 1    
    29   14  138 1    
    30   15   16 1    
    31   15  139 1    
    32   15  140 1    
    33   16   17 1    
    34   17   18 1    
    35   17  141 1    
    36   17  142 1    
    37   18   19 1    
    38   18   67 1    
    39   18  143 1    
    40   19   20 am   BACKBONE|DICT|INTERRES
    41   19  144 1    
    42   20   21 2    
    43   20   22 1    
    44   22   23 1    
    45   22   24 1    
    46   22  145 1    
    47   23  146 1    
    48   23  147 1    
    49   23  148 1    
    50   24   25 am   BACKBONE|DICT|INTERRES
    51   24  149 1    
    52   25   26 2    
    53   25   27 1    
    54   27   28 1    
    55   27   29 1    
    56   27  150 1    
    57   28  151 1    
    58   28  152 1    
    59   28  153 1    
    60   29   30 am   BACKBONE|DICT|INTERRES
    61   29  154 1    
    62   30   31 2    
    63   30   32 1    
    64   32   33 1    
    65   32   34 1    
    66   32  155 1    
    67   33  156 1    
    68   33  157 1    
    69   33  158 1    
    70   34   35 am   BACKBONE|DICT|INTERRES
    71   34  159 1    
    72   35   36 2    
    73   35   37 1    
    74   37   38 1    
    75   37   39 1    
    76   37  160 1    
    77   38  161 1    
    78   38  162 1    
    79   38  163 1    
    80   39   40 am   BACKBONE|DICT|INTERRES
    81   39  164 1    
    82   40   41 2    
    83   40   42 1    
    84   42   43 1    
    85   42   44 1    
    86   42  165 1    
    87   43  166 1    
    88   43  167 1    
    89   43  168 1    
    90   44   45 am   BACKBONE|DICT|INTERRES
    91   44  169 1    
    92   45   46 2    
    93   45   47 1    
    94   47   48 1    
    95   47   49 1    
    96   47  170 1    
    97   48  171 1    
    98   48  172 1    
    99   48  173 1    
   100   49   50 am   BACKBONE|DICT|INTERRES
   101   49  174 1    
   102   50   51 2    
   103   50   52 1    
   104   52   53 1    
   105   52   54 1    
   106   52  175 1    
   107   53  176 1    
   108   53  177 1    
   109   53  178 1    
   110   54   55 am   BACKBONE|DICT|INTERRES
   111   54  179 1    
   112   55   56 2    
   113   55   57 1    
   114   57   58 1    
   115   57   59 1    
   116   57  180 1    
   117   58  181 1    
   118   58  182 1    
   119   58  183 1    
   120   59   60 am   BACKBONE|DICT|INTERRES
   121   59  184 1    
   122   60   61 2    
   123   60   62 1    
   124   62   63 1    
   125   62   64 1    
   126   62  185 1    
   127   63  186 1    
   128   63  187 1    
   129   63  188 1    
   130   64   65 am   BACKBONE|DICT|INTERRES
   131   64  189 1    
   132   65   66 2    
   133   67   68 2    
   134   67   69 am   BACKBONE|DICT|INTERRES
   135   69   70 1    
   136   69  190 1    
   137   70   71 1    
   138   70   72 1    
   139   70  191 1    
   140   71  192 1    
   141   71  193 1    
   142   71  194 1    
   143   72   73 2    
   144   72   74 am   BACKBONE|DICT|INTERRES
   145   74   75 1    
   146   74  195 1    
   147   75   76 1    
   148   75   77 1    
   149   75  196 1    
   150   76  197 1    
   151   76  198 1    
   152   76  199 1    
   153   77   78 2    
   154   77   79 am   BACKBONE|DICT|INTERRES
   155   79   80 1    
   156   79  200 1    
   157   80   81 1    
   158   80   82 1    
   159   80  201 1    
   160   81  202 1    
   161   81  203 1    
   162   81  204 1    
   163   82   83 2    
   164   82   84 am   BACKBONE|DICT|INTERRES
   165   84   85 1    
   166   84  205 1    
   167   85   86 1    
   168   85   87 1    
   169   85  206 1    
   170   86  207 1    
   171   86  208 1    
   172   86  209 1    
   173   87   88 2    
   174   87   89 am   BACKBONE|DICT|INTERRES
   175   89   90 1    
   176   89  210 1    
   177   90   91 1    
   178   90   92 1    
   179   90  211 1    
   180   91  212 1    
   181   91  213 1    
   182   91  214 1    
   183   92   93 2    
   184   92   94 am   BACKBONE|DICT|INTERRES
   185   94   95 1    
   186   94  215 1    
   187   95   96 1    
   188   95   97 1    
   189   95  216 1    
   190   96  217 1    
   191   96  218 1    
   192   96  219 1    
   193   97   98 2    
   194   97   99 am   BACKBONE|DICT|INTERRES
   195   99  100 1    
   196   99  220 1    
   197  100  101 1    
   198  100  102 1    
   199  100  221 1    
   200  101  222 1    
   201  101  223 1    
   202  101  224 1    
   203  102  103 2    
   204  102  104 am   BACKBONE|DICT|INTERRES
   205  104  105 1    
   206  104  225 1    
   207  105  106 1    
   208  105  107 1    
   209  105  226 1    
   210  106  227 1    
   211  106  228 1    
   212  106  229 1    
   213  107  108 2    
   214  107  109 am   BACKBONE|DICT|INTERRES
   215  109  110 1    
   216  109  230 1    
   217  110  111 1    
   218  110  112 1    
   219  110  231 1    
   220  111  232 1    
   221  111  233 1    
   222  111  234 1    
   223  112  113 2    
   224  112  114 am   BACKBONE|DICT|INTERRES
   225  114  115 1    
   226  114  235 1    
   227  115  116 1    
   228  115  117 1    
   229  115  236 1    
   230  116  237 1    
   231  116  238 1    
   232  116  239 1    
   233  117  118 2    
   234  117  119 am   BACKBONE|DICT|INTERRES
   235  119  120 1    
   236  119  240 1    
   237  120  121 1    
   238  120  124 1    
   239  120  241 1    
   240  121  122 am   BACKBONE|DICT|INTERRES
   241  121  123 2    
   242  122  242 1    
   243  122  243 1    
   244  124  125 1    
   245  124  244 1    
   246  124  245 1    
   247  125  126 1    
   248  126  246 1    
   249  126  247 1    
@<TRIPOS>SUBSTRUCTURE
     1 UNK         1 GROUP             0       ****    0 ROOT    
