@<TRIPOS>MOLECULE
3R540
247   249    1
SMALL
USER_CHARGES


@<TRIPOS>ATOM
      1 CA          1.1176  -15.6677  -47.3333 C.3       0 UNK        -0.1800 
      2 C           0.2186  -14.6557  -46.6431 C.2       0 UNK         0.5000 
      3 O           0.7199  -13.7454  -45.9829 O.2       0 UNK        -0.5000 
      4 N          -1.1051  -14.7992  -46.8030 N.am      1 UNK        -0.5000 
      5 CA         -2.1282  -13.9491  -46.1737 C.3       1 UNK         0.1400 
      6 C6         -3.5691  -14.4618  -46.4124 C.3       23 UNK        -0.0398 
      7 S7         -3.8412  -16.1479  -45.7756 S.3       23 UNK        -0.2404 
      8 C8         -4.3421  -17.0338  -47.2857 C.3       23 UNK        -0.0205 
      9 C9         -3.1909  -17.1958  -48.2667 C.ar      23 UNK        -0.0193 
     10 C10        -3.2193  -16.5683  -49.5140 C.ar      23 UNK        -0.1150 
     11 C11        -2.1729  -16.7530  -50.4230 C.ar      23 UNK        -0.0193 
     12 C12        -1.0857  -17.5589  -50.0696 C.ar      23 UNK        -0.1150 
     13 C13        -1.0373  -18.1767  -48.8168 C.ar      23 UNK        -0.0193 
     14 C14        -2.0971  -17.9910  -47.9251 C.ar      23 UNK        -0.1150 
     15 C15         0.1783  -18.9986  -48.4085 C.3       23 UNK        -0.0205 
     16 S16        -0.0346  -20.7814  -48.7067 S.3       23 UNK        -0.2404 
     17 C17        -1.3052  -21.2133  -47.4742 C.3       23 UNK        -0.0398 
     18 CA         -1.0838  -22.6089  -46.8528 C.3       11 UNK         0.1400 
     19 N          -0.0136  -22.6226  -45.8511 N.am      11 UNK        -0.5000 
     20 C           0.4483  -23.7237  -45.2412 C.2       10 UNK         0.5000 
     21 O           0.0672  -24.8635  -45.5039 O.2       10 UNK        -0.5000 
     22 CA          1.4487  -23.5122  -44.0928 C.3       10 UNK         0.1400 
     23 CB          2.8636  -23.2389  -44.6254 C.3       10 UNK        -0.1800 
     24 N           1.0256  -22.4324  -43.2002 N.am      10 UNK        -0.5000 
     25 C          -0.0577  -22.4896  -42.4114 C.2       9 UNK         0.5000 
     26 O          -0.7825  -23.4799  -42.3184 O.2       9 UNK        -0.5000 
     27 CA         -0.4145  -21.2156  -41.6254 C.3       9 UNK         0.1400 
     28 CB          0.3467  -21.1673  -40.2927 C.3       9 UNK        -0.1800 
     29 N          -0.1454  -19.9972  -42.3892 N.am      9 UNK        -0.5000 
     30 C          -0.8550  -19.6086  -43.4593 C.2       8 UNK         0.5000 
     31 O          -1.8225  -20.2286  -43.9002 O.2       8 UNK        -0.5000 
     32 CA         -0.3636  -18.3502  -44.1996 C.3       8 UNK         0.1400 
     33 CB         -0.9317  -17.0825  -43.5471 C.3       8 UNK        -0.1800 
     34 N           1.0954  -18.2576  -44.2710 N.am      8 UNK        -0.5000 
     35 C           1.8893  -19.1890  -44.8244 C.2       7 UNK         0.5000 
     36 O           1.4567  -20.1872  -45.3985 O.2       7 UNK        -0.5000 
     37 CA          3.4145  -19.0161  -44.6848 C.3       7 UNK         0.1400 
     38 CB          3.9997  -18.4344  -45.9802 C.3       7 UNK        -0.1800 
     39 N           3.8183  -18.1720  -43.5600 N.am      7 UNK        -0.5000 
     40 C           3.5152  -18.3734  -42.2685 C.2       6 UNK         0.5000 
     41 O           2.9237  -19.3706  -41.8534 O.2       6 UNK        -0.5000 
     42 CA          3.8722  -17.2339  -41.2908 C.3       6 UNK         0.1400 
     43 CB          5.1673  -17.5626  -40.5336 C.3       6 UNK        -0.1800 
     44 N           4.0125  -15.9217  -41.9375 N.am      6 UNK        -0.5000 
     45 C           3.0414  -15.2815  -42.6045 C.2       5 UNK         0.5000 
     46 O           1.8987  -15.7251  -42.7388 O.2       5 UNK        -0.5000 
     47 CA          3.4548  -13.9832  -43.3140 C.3       5 UNK         0.1400 
     48 CB          4.1438  -14.3075  -44.6496 C.3       5 UNK        -0.1800 
     49 N           2.3021  -13.1342  -43.5911 N.am      5 UNK        -0.5000 
     50 C           1.7506  -12.2717  -42.7288 C.2       4 UNK         0.5000 
     51 O           2.1490  -12.1116  -41.5732 O.2       4 UNK        -0.5000 
     52 CA          0.5784  -11.4286  -43.2800 C.3       4 UNK         0.1400 
     53 CB          0.2504  -10.1934  -42.4161 C.3       4 UNK        -0.1800 
     54 N           0.7877  -11.0545  -44.6837 N.am      4 UNK        -0.5000 
     55 C           1.7927  -10.3280  -45.1986 C.2       3 UNK         0.5000 
     56 O           2.6134   -9.7079  -44.5214 O.2       3 UNK        -0.5000 
     57 CA          1.9380  -10.3287  -46.7331 C.3       3 UNK         0.1400 
     58 CB          3.1503  -11.1787  -47.1480 C.3       3 UNK        -0.1800 
     59 N           0.7544  -10.8638  -47.4066 N.am      3 UNK        -0.5000 
     60 C          -0.2773  -10.1293  -47.8414 C.2       2 UNK         0.5000 
     61 O          -0.3250   -8.9009  -47.7685 O.2       2 UNK        -0.5000 
     62 CA         -1.4646  -10.9017  -48.4495 C.3       2 UNK         0.1400 
     63 CB         -1.2965  -11.0389  -49.9704 C.3       2 UNK        -0.1800 
     64 N          -1.6448  -12.2347  -47.8686 N.am      2 UNK        -0.5000 
     65 C          -2.0326  -12.4721  -46.6071 C.2       1 UNK         0.5000 
     66 O          -2.2853  -11.5855  -45.7915 O.2       1 UNK        -0.5000 
     67 C          -2.4085  -23.1573  -46.2916 C.2       11 UNK         0.5000 
     68 O          -3.0467  -23.9630  -46.9655 O.2       11 UNK        -0.5000 
     69 N          -2.7870  -22.7486  -45.0718 N.am      12 UNK        -0.5000 
     70 CA         -3.9881  -23.2310  -44.3856 C.3       12 UNK         0.1400 
     71 CB         -4.2086  -22.4235  -43.0978 C.3       12 UNK        -0.1800 
     72 C          -3.9490  -24.7417  -44.0834 C.2       12 UNK         0.5000 
     73 O          -4.9752  -25.4103  -44.2119 O.2       12 UNK        -0.5000 
     74 N          -2.7691  -25.2514  -43.7054 N.am      13 UNK        -0.5000 
     75 CA         -2.5285  -26.6684  -43.4439 C.3       13 UNK         0.1400 
     76 CB         -1.2162  -26.8274  -42.6600 C.3       13 UNK        -0.1800 
     77 C          -2.5041  -27.5146  -44.7302 C.2       13 UNK         0.5000 
     78 O          -3.1539  -28.5600  -44.7797 O.2       13 UNK        -0.5000 
     79 N          -1.7422  -27.0645  -45.7363 N.am      14 UNK        -0.5000 
     80 CA         -1.5113  -27.7980  -46.9818 C.3       14 UNK         0.1400 
     81 CB         -0.2274  -27.2745  -47.6422 C.3       14 UNK        -0.1800 
     82 C          -2.6809  -27.7167  -47.9768 C.2       14 UNK         0.5000 
     83 O          -2.8788  -28.6598  -48.7442 O.2       14 UNK        -0.5000 
     84 N          -3.3998  -26.5847  -47.9815 N.am      15 UNK        -0.5000 
     85 CA         -4.4815  -26.1759  -48.8876 C.3       15 UNK         0.1400 
     86 CB         -5.6746  -27.1493  -48.8350 C.3       15 UNK        -0.1800 
     87 C          -4.0101  -25.9268  -50.3340 C.2       15 UNK         0.5000 
     88 O          -4.2215  -24.8381  -50.8679 O.2       15 UNK        -0.5000 
     89 N          -3.3546  -26.9274  -50.9329 N.am      16 UNK        -0.5000 
     90 CA         -2.8538  -26.9304  -52.3089 C.3       16 UNK         0.1400 
     91 CB         -2.5268  -28.3798  -52.7015 C.3       16 UNK        -0.1800 
     92 C          -1.6317  -26.0190  -52.5431 C.2       16 UNK         0.5000 
     93 O          -1.2861  -25.7660  -53.6976 O.2       16 UNK        -0.5000 
     94 N          -0.9877  -25.5555  -51.4623 N.am      17 UNK        -0.5000 
     95 CA          0.1646  -24.6525  -51.5087 C.3       17 UNK         0.1400 
     96 CB          0.8756  -24.6679  -50.1481 C.3       17 UNK        -0.1800 
     97 C          -0.2013  -23.2114  -51.9175 C.2       17 UNK         0.5000 
     98 O           0.6600  -22.5016  -52.4390 O.2       17 UNK        -0.5000 
     99 N          -1.4585  -22.8046  -51.6903 N.am      18 UNK        -0.5000 
    100 CA        -1.9956  -21.5245  -52.1483 C.3       18 UNK         0.1400 
    101 CB        -3.2565  -21.1845  -51.3399 C.3       18 UNK        -0.1800 
    102 C         -2.3058  -21.5849  -53.6554 C.2       18 UNK         0.5000 
    103 O         -2.8039  -22.6048  -54.1392 O.2       18 UNK        -0.5000 
    104 N         -2.0124  -20.4932  -54.3692 N.am      19 UNK        -0.5000 
    105 CA        -2.2855  -20.3418  -55.7983 C.3       19 UNK         0.1400 
    106 CB        -1.4375  -19.1770  -56.3360 C.3       19 UNK        -0.1800 
    107 C         -3.7781  -20.0813  -56.0692 C.2       19 UNK         0.5000 
    108 O         -4.5052  -19.6539  -55.1710 O.2       19 UNK        -0.5000 
    109 N         -4.2014  -20.2678  -57.3270 N.am      20 UNK        -0.5000 
    110 CA        -5.5570  -19.9523  -57.7981 C.3       20 UNK         0.1400 
    111 CB        -5.7106  -20.4239  -59.2519 C.3       20 UNK        -0.1800 
    112 C         -5.9105  -18.4549  -57.6733 C.2       20 UNK         0.5000 
    113 O         -7.0720  -18.1145  -57.4453 O.2       20 UNK        -0.5000 
    114 N         -4.8870  -17.5942  -57.7702 N.am      21 UNK        -0.5000 
    115 CA        -4.9632  -16.1487  -57.5548 C.3       21 UNK         0.1400 
    116 CB        -3.6373  -15.5166  -58.0064 C.3       21 UNK        -0.1800 
    117 C         -5.2796  -15.7478  -56.0981 C.2       21 UNK         0.5000 
    118 O         -5.7190  -14.6194  -55.8729 O.2       21 UNK        -0.5000 
    119 N         -5.0599  -16.6600  -55.1410 N.am      22 UNK        -0.5000 
    120 CA        -5.3703  -16.4686  -53.7152 C.3       22 UNK         0.1400 
    121 C         -6.8825  -16.6182  -53.3710 C.2       22 UNK         0.5000 
    122 N         -7.7388  -17.0662  -54.2831 N.am      22 UNK        -0.7600 
    123 O         -7.2899  -16.3108  -52.2543 O.2       22 UNK        -0.5000 
    124 C124       -4.5089  -17.3788  -52.8008 C.3       23 UNK        -0.0398 
    125 S125       -2.7126  -17.2201  -53.1018 S.3       23 UNK        -0.2404 
    126 C126       -2.2076  -16.0732  -51.7829 C.3       23 UNK        -0.0205 
    127 H127        2.1051  -15.2419  -47.5107 H         1 UNK         0.0600 
    128 H128        1.2334  -16.5525  -46.7086 H         1 UNK         0.0600 
    129 H129        0.7047  -15.9659  -48.2959 H         1 UNK         0.0600 
    130 H130       -1.4593  -15.5745  -47.3467 H         1 UNK         0.3000 
    131 H131       -1.9397  -13.9737  -45.0980 H         1 UNK         0.0600 
    132 H132       -3.8189  -14.4217  -47.4739 H         1 UNK         0.0800 
    133 H133       -4.2899  -13.8130  -45.9108 H         1 UNK         0.0800 
    134 H134       -5.1846  -16.5176  -47.7486 H         1 UNK         0.0800 
    135 H135       -4.7076  -18.0229  -47.0062 H         1 UNK         0.0800 
    136 H136       -4.0609  -15.9451  -49.7819 H         1 UNK         0.1150 
    137 H137       -0.2724  -17.6965  -50.7683 H         1 UNK         0.1150 
    138 H138       -2.0837  -18.4554  -46.9530 H         1 UNK         0.1150 
    139 H139        1.0570  -18.6589  -48.9585 H         1 UNK         0.0800 
    140 H140        0.4018  -18.8271  -47.3575 H         1 UNK         0.0800 
    141 H141       -1.3207  -20.4715  -46.6773 H         1 UNK         0.0800 
    142 H142       -2.2700  -21.1453  -47.9802 H         1 UNK         0.0800 
    143 H143       -0.7876  -23.2928  -47.6479 H         1 UNK         0.0600 
    144 H144        0.3986  -21.7240  -45.6112 H         1 UNK         0.3000 
    145 H145        1.4838  -24.4343  -43.5086 H         1 UNK         0.0600 
    146 H146        3.5730  -23.1008  -43.8095 H         1 UNK         0.0600 
    147 H147        3.2177  -24.0779  -45.2255 H         1 UNK         0.0600 
    148 H148        2.9009  -22.3519  -45.2568 H         1 UNK         0.0600 
    149 H149        1.5453  -21.5682  -43.2462 H         1 UNK         0.3000 
    150 H150       -1.4830  -21.2484  -41.4027 H         1 UNK         0.0600 
    151 H151        0.1189  -22.0429  -39.6834 H         1 UNK         0.0600 
    152 H152        0.0716  -20.2867  -39.7122 H         1 UNK         0.0600 
    153 H153        1.4264  -21.1462  -40.4439 H         1 UNK         0.0600 
    154 H154        0.6774  -19.4690  -42.1269 H         1 UNK         0.3000 
    155 H155       -0.7361  -18.4007  -45.2209 H         1 UNK         0.0600 
    156 H156       -0.6577  -16.1904  -44.1100 H         1 UNK         0.0600 
    157 H157       -0.5685  -16.9583  -42.5263 H         1 UNK         0.0600 
    158 H158       -2.0207  -17.1192  -43.5048 H         1 UNK         0.0600 
    159 H159        1.5158  -17.4617  -43.8026 H         1 UNK         0.3000 
    160 H160        3.8416  -20.0079  -44.5251 H         1 UNK         0.0600 
    161 H161        3.6350  -17.4240  -46.1689 H         1 UNK         0.0600 
    162 H162        3.7288  -19.0469  -46.8416 H         1 UNK         0.0600 
    163 H163        5.0884  -18.3969  -45.9400 H         1 UNK         0.0600 
    164 H164        4.3104  -17.3236  -43.7946 H         1 UNK         0.3000 
    165 H165        3.0584  -17.1624  -40.5663 H         1 UNK         0.0600 
    166 H166        6.0232  -17.6227  -41.2070 H         1 UNK         0.0600 
    167 H167        5.3855  -16.8079  -39.7778 H         1 UNK         0.0600 
    168 H168        5.0865  -18.5211  -40.0190 H         1 UNK         0.0600 
    169 H169        4.9276  -15.4972  -41.8848 H         1 UNK         0.3000 
    170 H170        4.1571  -13.4410  -42.6773 H         1 UNK         0.0600 
    171 H171        5.0303  -14.9248  -44.5001 H         1 UNK         0.0600 
    172 H172        3.4774  -14.8450  -45.3257 H         1 UNK         0.0600 
    173 H173        4.4680  -13.3973  -45.1543 H         1 UNK         0.0600 
    174 H174        1.8496  -13.2676  -44.4912 H         1 UNK         0.3000 
    175 H175       -0.2957  -12.0812  -43.2682 H         1 UNK         0.0600 
    176 H176       -0.5781   -9.6261  -42.8403 H         1 UNK         0.0600 
    177 H177       -0.0423  -10.4901  -41.4084 H         1 UNK         0.0600 
    178 H178        1.1045   -9.5225  -42.3228 H         1 UNK         0.0600 
    179 H179        0.1908  -11.5350  -45.3424 H         1 UNK         0.3000 
    180 H180        2.1168   -9.2993  -47.0505 H         1 UNK         0.0600 
    181 H181        3.3061  -11.1419  -48.2263 H         1 UNK         0.0600 
    182 H182        4.0648  -10.8174  -46.6758 H         1 UNK         0.0600 
    183 H183        3.0242  -12.2240  -46.8633 H         1 UNK         0.0600 
    184 H184        0.6997  -11.8701  -47.4832 H         1 UNK         0.3000 
    185 H185       -2.3696  -10.3218  -48.2561 H         1 UNK         0.0600 
    186 H186       -2.1656  -11.5176  -50.4222 H         1 UNK         0.0600 
    187 H187       -1.1847  -10.0610  -50.4406 H         1 UNK         0.0600 
    188 H188       -0.4159  -11.6292  -50.2271 H         1 UNK         0.0600 
    189 H189       -1.4469  -13.0231  -48.4674 H         1 UNK         0.3000 
    190 H190       -2.2441  -22.0368  -44.5924 H         1 UNK         0.3000 
    191 H191       -4.8392  -23.0506  -45.0455 H         1 UNK         0.0600 
    192 H192       -5.1151  -22.7468  -42.5847 H         1 UNK         0.0600 
    193 H193       -4.3186  -21.3605  -43.3125 H         1 UNK         0.0600 
    194 H194       -3.3782  -22.5410  -42.4018 H         1 UNK         0.0600 
    195 H195       -1.9858  -24.6220  -43.5676 H         1 UNK         0.3000 
    196 H196       -3.3396  -27.0419  -42.8150 H         1 UNK         0.0600 
    197 H197       -1.0139  -27.8771  -42.4438 H         1 UNK         0.0600 
    198 H198       -1.2626  -26.3016  -41.7062 H         1 UNK         0.0600 
    199 H199       -0.3632  -26.4347  -43.2144 H         1 UNK         0.0600 
    200 H200       -1.2088  -26.2066  -45.6092 H         1 UNK         0.3000 
    201 H201       -1.3577  -28.8519  -46.7401 H         1 UNK         0.0600 
    202 H202        0.6337  -27.4019  -46.9859 H         1 UNK         0.0600 
    203 H203       -0.3087  -26.2144  -47.8820 H         1 UNK         0.0600 
    204 H204       -0.0131  -27.8084  -48.5690 H         1 UNK         0.0600 
    205 H205       -3.1207  -25.8482  -47.3388 H         1 UNK         0.3000 
    206 H206       -4.8370  -25.2171  -48.5076 H         1 UNK         0.0600 
    207 H207       -6.0330  -27.2745  -47.8132 H         1 UNK         0.0600 
    208 H208       -6.5081  -26.7709  -49.4280 H         1 UNK         0.0600 
    209 H209       -5.4225  -28.1356  -49.2247 H         1 UNK         0.0600 
    210 H210       -3.1958  -27.7685  -50.3838 H         1 UNK         0.3000 
    211 H211       -3.6528  -26.5706  -52.9604 H         1 UNK         0.0600 
    212 H212       -1.7441  -28.7995  -52.0682 H         1 UNK         0.0600 
    213 H213       -2.1821  -28.4398  -53.7346 H         1 UNK         0.0600 
    214 H214       -3.4057  -29.0192  -52.6167 H         1 UNK         0.0600 
    215 H215       -1.3318  -25.8195  -50.5519 H         1 UNK         0.3000 
    216 H216        0.8650  -25.0325  -52.2556 H         1 UNK         0.0600 
    217 H217        1.7432  -24.0067  -50.1514 H         1 UNK         0.0600 
    218 H218        1.2312  -25.6677  -49.8989 H         1 UNK         0.0600 
    219 H219        0.2153  -24.3347  -49.3503 H         1 UNK         0.0600 
    220 H220       -2.1273  -23.4686  -51.3259 H         1 UNK         0.3000 
    221 H221       -1.2539  -20.7436  -51.9640 H         1 UNK         0.0600 
    222 H222       -4.0368  -21.9345  -51.4752 H         1 UNK         0.0600 
    223 H223       -3.0349  -21.1165  -50.2754 H         1 UNK         0.0600 
    224 H224       -3.6660  -20.2215  -51.6463 H         1 UNK         0.0600 
    225 H225       -1.6697  -19.6715  -53.8924 H         1 UNK         0.3000 
    226 H226       -1.9920  -21.2590  -56.3132 H         1 UNK         0.0600 
    227 H227       -1.5564  -19.0661  -57.4144 H         1 UNK         0.0600 
    228 H228       -1.7170  -18.2279  -55.8767 H         1 UNK         0.0600 
    229 H229       -0.3767  -19.3409  -56.1455 H         1 UNK         0.0600 
    230 H230       -3.5538  -20.6170  -58.0190 H         1 UNK         0.3000 
    231 H231       -6.2646  -20.5089  -57.1800 H         1 UNK         0.0600 
    232 H232       -6.7166  -20.2232  -59.6230 H         1 UNK         0.0600 
    233 H233       -5.5424  -21.4975  -59.3386 H         1 UNK         0.0600 
    234 H234       -5.0087  -19.9181  -59.9161 H         1 UNK         0.0600 
    235 H235       -3.9704  -17.9708  -57.9593 H         1 UNK         0.3000 
    236 H236       -5.7646  -15.7555  -58.1836 H         1 UNK         0.0600 
    237 H237       -2.7955  -15.8876  -57.4201 H         1 UNK         0.0600 
    238 H238       -3.4358  -15.7279  -59.0567 H         1 UNK         0.0600 
    239 H239       -3.6624  -14.4318  -57.8942 H         1 UNK         0.0600 
    240 H240       -4.7258  -17.5827  -55.3920 H         1 UNK         0.3000 
    241 H241       -5.1139  -15.4381  -53.4622 H         1 UNK         0.0600 
    242 H242       -8.7147  -17.1520  -54.0462 H         1 UNK         0.3800 
    243 H243       -7.4234  -17.3232  -55.2077 H         1 UNK         0.3800 
    244 H244       -4.7828  -18.4239  -52.9448 H         1 UNK         0.0800 
    245 H245       -4.7184  -17.1691  -51.7525 H         1 UNK         0.0800 
    246 H246       -1.2153  -15.6851  -52.0167 H         1 UNK         0.0800 
    247 H247       -2.8758  -15.2106  -51.7713 H         1 UNK         0.0800 
@<TRIPOS>BOND
     1    1    2 1    
     2    1  127 1    
     3    1  128 1    
     4    1  129 1    
     5    2    3 2    
     6    2    4 am   BACKBONE|DICT|INTERRES
     7    4    5 1    
     8    4  130 1    
     9    5    6 1    
    10    5   65 1    
    11    5  131 1    
    12    6    7 1    
    13    6  132 1    
    14    6  133 1    
    15    7    8 1    
    16    8    9 1    
    17    8  134 1    
    18    8  135 1    
    19    9   10 ar   
    20    9   14 ar   
    21   10   11 ar   
    22   10  136 1    
    23   11   12 ar   
    24   11  126 1    
    25   12   13 ar   
    26   12  137 1    
    27   13   14 ar   
    28   13   15 1    
    29   14  138 1    
    30   15   16 1    
    31   15  139 1    
    32   15  140 1    
    33   16   17 1    
    34   17   18 1    
    35   17  141 1    
    36   17  142 1    
    37   18   19 1    
    38   18   67 1    
    39   18  143 1    
    40   19   20 am   BACKBONE|DICT|INTERRES
    41   19  144 1    
    42   20   21 2    
    43   20   22 1    
    44   22   23 1    
    45   22   24 1    
    46   22  145 1    
    47   23  146 1    
    48   23  147 1    
    49   23  148 1    
    50   24   25 am   BACKBONE|DICT|INTERRES
    51   24  149 1    
    52   25   26 2    
    53   25   27 1    
    54   27   28 1    
    55   27   29 1    
    56   27  150 1    
    57   28  151 1    
    58   28  152 1    
    59   28  153 1    
    60   29   30 am   BACKBONE|DICT|INTERRES
    61   29  154 1    
    62   30   31 2    
    63   30   32 1    
    64   32   33 1    
    65   32   34 1    
    66   32  155 1    
    67   33  156 1    
    68   33  157 1    
    69   33  158 1    
    70   34   35 am   BACKBONE|DICT|INTERRES
    71   34  159 1    
    72   35   36 2    
    73   35   37 1    
    74   37   38 1    
    75   37   39 1    
    76   37  160 1    
    77   38  161 1    
    78   38  162 1    
    79   38  163 1    
    80   39   40 am   BACKBONE|DICT|INTERRES
    81   39  164 1    
    82   40   41 2    
    83   40   42 1    
    84   42   43 1    
    85   42   44 1    
    86   42  165 1    
    87   43  166 1    
    88   43  167 1    
    89   43  168 1    
    90   44   45 am   BACKBONE|DICT|INTERRES
    91   44  169 1    
    92   45   46 2    
    93   45   47 1    
    94   47   48 1    
    95   47   49 1    
    96   47  170 1    
    97   48  171 1    
    98   48  172 1    
    99   48  173 1    
   100   49   50 am   BACKBONE|DICT|INTERRES
   101   49  174 1    
   102   50   51 2    
   103   50   52 1    
   104   52   53 1    
   105   52   54 1    
   106   52  175 1    
   107   53  176 1    
   108   53  177 1    
   109   53  178 1    
   110   54   55 am   BACKBONE|DICT|INTERRES
   111   54  179 1    
   112   55   56 2    
   113   55   57 1    
   114   57   58 1    
   115   57   59 1    
   116   57  180 1    
   117   58  181 1    
   118   58  182 1    
   119   58  183 1    
   120   59   60 am   BACKBONE|DICT|INTERRES
   121   59  184 1    
   122   60   61 2    
   123   60   62 1    
   124   62   63 1    
   125   62   64 1    
   126   62  185 1    
   127   63  186 1    
   128   63  187 1    
   129   63  188 1    
   130   64   65 am   BACKBONE|DICT|INTERRES
   131   64  189 1    
   132   65   66 2    
   133   67   68 2    
   134   67   69 am   BACKBONE|DICT|INTERRES
   135   69   70 1    
   136   69  190 1    
   137   70   71 1    
   138   70   72 1    
   139   70  191 1    
   140   71  192 1    
   141   71  193 1    
   142   71  194 1    
   143   72   73 2    
   144   72   74 am   BACKBONE|DICT|INTERRES
   145   74   75 1    
   146   74  195 1    
   147   75   76 1    
   148   75   77 1    
   149   75  196 1    
   150   76  197 1    
   151   76  198 1    
   152   76  199 1    
   153   77   78 2    
   154   77   79 am   BACKBONE|DICT|INTERRES
   155   79   80 1    
   156   79  200 1    
   157   80   81 1    
   158   80   82 1    
   159   80  201 1    
   160   81  202 1    
   161   81  203 1    
   162   81  204 1    
   163   82   83 2    
   164   82   84 am   BACKBONE|DICT|INTERRES
   165   84   85 1    
   166   84  205 1    
   167   85   86 1    
   168   85   87 1    
   169   85  206 1    
   170   86  207 1    
   171   86  208 1    
   172   86  209 1    
   173   87   88 2    
   174   87   89 am   BACKBONE|DICT|INTERRES
   175   89   90 1    
   176   89  210 1    
   177   90   91 1    
   178   90   92 1    
   179   90  211 1    
   180   91  212 1    
   181   91  213 1    
   182   91  214 1    
   183   92   93 2    
   184   92   94 am   BACKBONE|DICT|INTERRES
   185   94   95 1    
   186   94  215 1    
   187   95   96 1    
   188   95   97 1    
   189   95  216 1    
   190   96  217 1    
   191   96  218 1    
   192   96  219 1    
   193   97   98 2    
   194   97   99 am   BACKBONE|DICT|INTERRES
   195   99  100 1    
   196   99  220 1    
   197  100  101 1    
   198  100  102 1    
   199  100  221 1    
   200  101  222 1    
   201  101  223 1    
   202  101  224 1    
   203  102  103 2    
   204  102  104 am   BACKBONE|DICT|INTERRES
   205  104  105 1    
   206  104  225 1    
   207  105  106 1    
   208  105  107 1    
   209  105  226 1    
   210  106  227 1    
   211  106  228 1    
   212  106  229 1    
   213  107  108 2    
   214  107  109 am   BACKBONE|DICT|INTERRES
   215  109  110 1    
   216  109  230 1    
   217  110  111 1    
   218  110  112 1    
   219  110  231 1    
   220  111  232 1    
   221  111  233 1    
   222  111  234 1    
   223  112  113 2    
   224  112  114 am   BACKBONE|DICT|INTERRES
   225  114  115 1    
   226  114  235 1    
   227  115  116 1    
   228  115  117 1    
   229  115  236 1    
   230  116  237 1    
   231  116  238 1    
   232  116  239 1    
   233  117  118 2    
   234  117  119 am   BACKBONE|DICT|INTERRES
   235  119  120 1    
   236  119  240 1    
   237  120  121 1    
   238  120  124 1    
   239  120  241 1    
   240  121  122 am   BACKBONE|DICT|INTERRES
   241  121  123 2    
   242  122  242 1    
   243  122  243 1    
   244  124  125 1    
   245  124  244 1    
   246  124  245 1    
   247  125  126 1    
   248  126  246 1    
   249  126  247 1    
@<TRIPOS>SUBSTRUCTURE
     1 UNK         1 GROUP             0       ****    0 ROOT    
