@<TRIPOS>MOLECULE
3R540
247   249    1
SMALL
USER_CHARGES


@<TRIPOS>ATOM
      1 CA         -0.1883  -10.2536  -47.4208 C.3       0 UNK        -0.1800 
      2 C           0.5601  -11.5297  -47.0633 C.2       0 UNK         0.5000 
      3 O           1.2971  -11.5505  -46.0777 O.2       0 UNK        -0.5000 
      4 N           0.3927  -12.5838  -47.8732 N.am      1 UNK        -0.5000 
      5 CA          0.9405  -13.9455  -47.7317 C.3       1 UNK         0.1400 
      6 C6          0.5255  -14.6603  -46.4186 C.3       23 UNK        -0.0398 
      7 S7         -1.2857  -14.8597  -46.3005 S.3       23 UNK        -0.2404 
      8 C8         -1.4464  -16.5198  -47.0206 C.3       23 UNK        -0.0205 
      9 C9         -2.8897  -16.9825  -47.1286 C.ar      23 UNK        -0.0193 
     10 C10        -3.4663  -17.1927  -48.3849 C.ar      23 UNK        -0.1150 
     11 C11        -4.7631  -17.7020  -48.4952 C.ar      23 UNK        -0.0193 
     12 C12        -5.4903  -17.9833  -47.3376 C.ar      23 UNK        -0.1150 
     13 C13        -4.9187  -17.7970  -46.0772 C.ar      23 UNK        -0.0193 
     14 C14        -3.6257  -17.2766  -45.9770 C.ar      23 UNK        -0.1150 
     15 C15        -5.6839  -18.2186  -44.8320 C.3       23 UNK        -0.0205 
     16 S16        -4.9632  -19.6886  -44.0224 S.3       23 UNK        -0.2404 
     17 C17        -4.5796  -20.8181  -45.4109 C.3       23 UNK        -0.0398 
     18 CA         -3.0566  -20.8563  -45.7221 C.3       11 UNK         0.1400 
     19 N          -2.2185  -21.2594  -44.5840 N.am      11 UNK        -0.5000 
     20 C          -2.2819  -22.3906  -43.8676 C.2       10 UNK         0.5000 
     21 O          -3.0585  -23.3151  -44.1123 O.2       10 UNK        -0.5000 
     22 CA         -1.3020  -22.5268  -42.6895 C.3       10 UNK         0.1400 
     23 CB          0.0479  -23.0713  -43.1749 C.3       10 UNK        -0.1800 
     24 N          -1.0861  -21.2752  -41.9626 N.am      10 UNK        -0.5000 
     25 C          -1.9901  -20.7094  -41.1497 C.2       9 UNK         0.5000 
     26 O          -3.1098  -21.1774  -40.9399 O.2       9 UNK        -0.5000 
     27 CA         -1.5659  -19.4173  -40.4294 C.3       9 UNK         0.1400 
     28 CB         -0.6938  -19.7394  -39.2060 C.3       9 UNK        -0.1800 
     29 N          -0.8434  -18.5046  -41.3117 N.am      9 UNK        -0.5000 
     30 C          -1.4225  -17.7301  -42.2382 C.2       8 UNK         0.5000 
     31 O          -2.6397  -17.6412  -42.3906 O.2       8 UNK        -0.5000 
     32 CA         -0.4876  -16.9222  -43.1578 C.3       8 UNK         0.1400 
     33 CB         -0.1635  -15.5518  -42.5464 C.3       8 UNK        -0.1800 
     34 N           0.7561  -17.6251  -43.4750 N.am      8 UNK        -0.5000 
     35 C           0.8236  -18.7515  -44.1990 C.2       7 UNK         0.5000 
     36 O          -0.1506  -19.2969  -44.7157 O.2       7 UNK        -0.5000 
     37 CA          2.2079  -19.4041  -44.3355 C.3       7 UNK         0.1400 
     38 CB          2.9630  -18.8255  -45.5362 C.3       7 UNK        -0.1800 
     39 N           3.0148  -19.2599  -43.1237 N.am      7 UNK        -0.5000 
     40 C           2.7435  -19.8965  -41.9750 C.2       6 UNK         0.5000 
     41 O           1.7932  -20.6652  -41.8292 O.2       6 UNK        -0.5000 
     42 CA          3.6499  -19.5770  -40.7738 C.3       6 UNK         0.1400 
     43 CB          5.0199  -20.2555  -40.9245 C.3       6 UNK        -0.1800 
     44 N           3.8368  -18.1397  -40.5799 N.am      6 UNK        -0.5000 
     45 C           2.8543  -17.2656  -40.3174 C.2       5 UNK         0.5000 
     46 O           1.6760  -17.5871  -40.1761 O.2       5 UNK        -0.5000 
     47 CA          3.2442  -15.7786  -40.2220 C.3       5 UNK         0.1400 
     48 CB          3.4484  -15.3714  -38.7553 C.3       5 UNK        -0.1800 
     49 N           4.4467  -15.4406  -40.9859 N.am      5 UNK        -0.5000 
     50 C           4.5566  -15.5095  -42.3196 C.2       4 UNK         0.5000 
     51 O           3.6262  -15.8445  -43.0591 O.2       4 UNK        -0.5000 
     52 CA          5.9402  -15.1260  -42.8887 C.3       4 UNK         0.1400 
     53 CB          7.0874  -15.8945  -42.1949 C.3       4 UNK        -0.1800 
     54 N           6.0450  -15.2620  -44.3438 N.am      4 UNK        -0.5000 
     55 C           5.9651  -16.3749  -45.0851 C.2       3 UNK         0.5000 
     56 O           5.7947  -17.5009  -44.6132 O.2       3 UNK        -0.5000 
     57 CA          6.1255  -16.1833  -46.6118 C.3       3 UNK         0.1400 
     58 CB          5.8020  -17.4512  -47.4225 C.3       3 UNK        -0.1800 
     59 N           5.3307  -15.0752  -47.1501 N.am      3 UNK        -0.5000 
     60 C           5.6140  -13.7712  -47.0659 C.2       2 UNK         0.5000 
     61 O           6.5816  -13.3323  -46.4430 O.2       2 UNK        -0.5000 
     62 CA          4.6646  -12.7836  -47.7729 C.3       2 UNK         0.1400 
     63 CB          5.0044  -12.6737  -49.2710 C.3       2 UNK        -0.1800 
     64 N           3.2292  -13.0268  -47.5734 N.am      2 UNK        -0.5000 
     65 C           2.4636  -14.0505  -47.9742 C.2       1 UNK         0.5000 
     66 O           2.9050  -15.0502  -48.5422 O.2       1 UNK        -0.5000 
     67 C          -2.7420  -21.6658  -46.9967 C.2       11 UNK         0.5000 
     68 O          -2.3226  -21.0939  -48.0052 O.2       11 UNK        -0.5000 
     69 N          -2.8870  -22.9937  -46.9186 N.am      12 UNK        -0.5000 
     70 CA         -2.6048  -23.9418  -47.9985 C.3       12 UNK         0.1400 
     71 CB         -3.1599  -25.3196  -47.6097 C.3       12 UNK        -0.1800 
     72 C          -1.1111  -24.0368  -48.3653 C.2       12 UNK         0.5000 
     73 O          -0.7871  -24.4641  -49.4729 O.2       12 UNK        -0.5000 
     74 N          -0.2293  -23.6212  -47.4445 N.am      13 UNK        -0.5000 
     75 CA          1.2104  -23.4993  -47.6746 C.3       13 UNK         0.1400 
     76 CB          1.9280  -23.3412  -46.3270 C.3       13 UNK        -0.1800 
     77 C           1.5640  -22.3235  -48.6053 C.2       13 UNK         0.5000 
     78 O           2.5700  -22.4003  -49.3113 O.2       13 UNK        -0.5000 
     79 N           0.7406  -21.2642  -48.5927 N.am      14 UNK        -0.5000 
     80 CA          0.8762  -20.1192  -49.4891 C.3       14 UNK         0.1400 
     81 CB          0.2170  -18.8811  -48.8629 C.3       14 UNK        -0.1800 
     82 C           0.2603  -20.4303  -50.8607 C.2       14 UNK         0.5000 
     83 O           0.9247  -20.2352  -51.8787 O.2       14 UNK        -0.5000 
     84 N          -0.9943  -20.9130  -50.8504 N.am      15 UNK        -0.5000 
     85 CA         -1.8019  -21.2844  -52.0212 C.3       15 UNK         0.1400 
     86 CB         -1.2473  -22.5616  -52.6837 C.3       15 UNK        -0.1800 
     87 C          -1.9955  -20.1250  -53.0268 C.2       15 UNK         0.5000 
     88 O          -2.0511  -20.3498  -54.2370 O.2       15 UNK        -0.5000 
     89 N          -2.1093  -18.8958  -52.5018 N.am      16 UNK        -0.5000 
     90 CA         -2.2487  -17.6456  -53.2561 C.3       16 UNK         0.1400 
     91 CB         -2.1807  -16.4649  -52.2760 C.3       16 UNK        -0.1800 
     92 C          -3.5258  -17.5616  -54.1176 C.2       16 UNK         0.5000 
     93 O          -3.5476  -16.8147  -55.0959 O.2       16 UNK        -0.5000 
     94 N          -4.5495  -18.3508  -53.7636 N.am      17 UNK        -0.5000 
     95 CA         -5.7921  -18.5216  -54.5197 C.3       17 UNK         0.1400 
     96 CB         -6.8921  -18.9925  -53.5564 C.3       17 UNK        -0.1800 
     97 C          -5.6556  -19.4753  -55.7308 C.2       17 UNK         0.5000 
     98 O          -6.6603  -19.7541  -56.3875 O.2       17 UNK        -0.5000 
     99 N          -4.4351  -19.9603  -56.0094 N.am      18 UNK        -0.5000 
    100 CA        -4.0410  -20.7950  -57.1454 C.3       18 UNK         0.1400 
    101 CB        -4.1836  -20.0168  -58.4735 C.3       18 UNK        -0.1800 
    102 C         -4.7581  -22.1570  -57.1247 C.2       18 UNK         0.5000 
    103 O         -4.5225  -22.9372  -56.2020 O.2       18 UNK        -0.5000 
    104 N         -5.6205  -22.4211  -58.1163 N.am      19 UNK        -0.5000 
    105 CA        -6.3558  -23.6766  -58.3030 C.3       19 UNK         0.1400 
    106 CB        -7.1457  -23.5985  -59.6183 C.3       19 UNK        -0.1800 
    107 C         -7.2900  -24.0564  -57.1360 C.2       19 UNK         0.5000 
    108 O         -7.5575  -25.2426  -56.9408 O.2       19 UNK        -0.5000 
    109 N         -7.7505  -23.0573  -56.3703 N.am      20 UNK        -0.5000 
    110 CA        -8.5399  -23.2489  -55.1518 C.3       20 UNK         0.1400 
    111 CB        -9.2893  -21.9454  -54.8396 C.3       20 UNK        -0.1800 
    112 C         -7.6908  -23.6869  -53.9397 C.2       20 UNK         0.5000 
    113 O         -8.2576  -24.1381  -52.9427 O.2       20 UNK        -0.5000 
    114 N         -6.3603  -23.5145  -54.0239 N.am      21 UNK        -0.5000 
    115 CA        -5.3341  -23.8792  -53.0365 C.3       21 UNK         0.1400 
    116 CB        -5.1964  -25.4129  -52.9610 C.3       21 UNK        -0.1800 
    117 C         -5.5225  -23.2416  -51.6424 C.2       21 UNK         0.5000 
    118 O         -4.9756  -23.7471  -50.6631 O.2       21 UNK        -0.5000 
    119 N         -6.3032  -22.1547  -51.5798 N.am      22 UNK        -0.5000 
    120 CA        -6.7690  -21.4805  -50.3559 C.3       22 UNK         0.1400 
    121 C         -7.7094  -22.3556  -49.4686 C.2       22 UNK         0.5000 
    122 N         -8.3572  -23.3825  -50.0094 N.am      22 UNK        -0.7600 
    123 O         -7.8844  -22.0867  -48.2833 O.2       22 UNK        -0.5000 
    124 C124       -5.6214  -20.8064  -49.5553 C.3       23 UNK        -0.0398 
    125 S125       -4.7392  -19.5533  -50.5472 S.3       23 UNK        -0.2404 
    126 C126       -5.3640  -17.9868  -49.8623 C.3       23 UNK        -0.0205 
    127 H127       -0.7878  -10.3737  -48.3236 H         1 UNK         0.0600 
    128 H128        0.5167   -9.4389  -47.5861 H         1 UNK         0.0600 
    129 H129       -0.8542   -9.9699  -46.6059 H         1 UNK         0.0600 
    130 H130       -0.2062  -12.4655  -48.6783 H         1 UNK         0.3000 
    131 H131        0.4909  -14.5058  -48.5533 H         1 UNK         0.0600 
    132 H132        0.9933  -15.6442  -46.3442 H         1 UNK         0.0800 
    133 H133        0.8713  -14.1047  -45.5463 H         1 UNK         0.0800 
    134 H134       -0.9814  -16.5080  -48.0063 H         1 UNK         0.0800 
    135 H135       -0.8878  -17.2399  -46.4222 H         1 UNK         0.0800 
    136 H136       -2.8947  -16.9921  -49.2790 H         1 UNK         0.1150 
    137 H137       -6.4895  -18.3876  -47.4178 H         1 UNK         0.1150 
    138 H138       -3.1781  -17.1463  -45.0024 H         1 UNK         0.1150 
    139 H139       -5.6941  -17.3933  -44.1188 H         1 UNK         0.0800 
    140 H140       -6.7271  -18.4281  -45.0732 H         1 UNK         0.0800 
    141 H141       -5.1505  -20.5248  -46.2915 H         1 UNK         0.0800 
    142 H142       -4.9479  -21.8101  -45.1476 H         1 UNK         0.0800 
    143 H143       -2.7430  -19.8372  -45.9457 H         1 UNK         0.0600 
    144 H144       -1.5037  -20.5781  -44.3417 H         1 UNK         0.3000 
    145 H145       -1.7257  -23.2552  -41.9948 H         1 UNK         0.0600 
    146 H146        0.7030  -23.3025  -42.3347 H         1 UNK         0.0600 
    147 H147        0.5613  -22.3466  -43.8051 H         1 UNK         0.0600 
    148 H148       -0.0785  -23.9885  -43.7516 H         1 UNK         0.0600 
    149 H149       -0.1599  -20.8641  -42.0296 H         1 UNK         0.3000 
    150 H150       -2.4705  -18.9182  -40.0751 H         1 UNK         0.0600 
    151 H151       -1.2100  -20.4167  -38.5246 H         1 UNK         0.0600 
    152 H152       -0.4530  -18.8353  -38.6465 H         1 UNK         0.0600 
    153 H153        0.2458  -20.2130  -39.4932 H         1 UNK         0.0600 
    154 H154        0.1616  -18.4483  -41.1850 H         1 UNK         0.3000 
    155 H155       -1.0196  -16.7558  -44.0932 H         1 UNK         0.0600 
    156 H156       -1.0712  -14.9596  -42.4247 H         1 UNK         0.0600 
    157 H157        0.5143  -14.9820  -43.1820 H         1 UNK         0.0600 
    158 H158        0.2961  -15.6489  -41.5636 H         1 UNK         0.0600 
    159 H159        1.6116  -17.2399  -43.0971 H         1 UNK         0.3000 
    160 H160        2.0576  -20.4697  -44.5153 H         1 UNK         0.0600 
    161 H161        3.1127  -17.7495  -45.4363 H         1 UNK         0.0600 
    162 H162        2.4180  -19.0004  -46.4629 H         1 UNK         0.0600 
    163 H163        3.9405  -19.2953  -45.6458 H         1 UNK         0.0600 
    164 H164        3.7946  -18.6170  -43.1678 H         1 UNK         0.3000 
    165 H165        3.1673  -19.9753  -39.8788 H         1 UNK         0.0600 
    166 H166        5.6322  -20.1084  -40.0346 H         1 UNK         0.0600 
    167 H167        4.9087  -21.3312  -41.0671 H         1 UNK         0.0600 
    168 H168        5.5730  -19.8658  -41.7803 H         1 UNK         0.0600 
    169 H169        4.7754  -17.7846  -40.6829 H         1 UNK         0.3000 
    170 H170        2.4170  -15.1927  -40.6260 H         1 UNK         0.0600 
    171 H171        4.2819  -15.9079  -38.3003 H         1 UNK         0.0600 
    172 H172        3.6460  -14.3030  -38.6657 H         1 UNK         0.0600 
    173 H173        2.5575  -15.5860  -38.1633 H         1 UNK         0.0600 
    174 H174        5.2467  -15.1417  -40.4471 H         1 UNK         0.3000 
    175 H175        6.0746  -14.0634  -42.6818 H         1 UNK         0.0600 
    176 H176        6.9485  -16.9745  -42.2546 H         1 UNK         0.0600 
    177 H177        8.0495  -15.6580  -42.6496 H         1 UNK         0.0600 
    178 H178        7.1651  -15.6332  -41.1394 H         1 UNK         0.0600 
    179 H179        6.1923  -14.3969  -44.8539 H         1 UNK         0.3000 
    180 H180        7.1806  -15.9566  -46.7776 H         1 UNK         0.0600 
    181 H181        6.0710  -17.3220  -48.4709 H         1 UNK         0.0600 
    182 H182        4.7405  -17.6924  -47.3834 H         1 UNK         0.0600 
    183 H183        6.3559  -18.3153  -47.0535 H         1 UNK         0.0600 
    184 H184        4.4902  -15.3258  -47.6656 H         1 UNK         0.3000 
    185 H185        4.8535  -11.8055  -47.3276 H         1 UNK         0.0600 
    186 H186        4.3968  -11.9107  -49.7576 H         1 UNK         0.0600 
    187 H187        6.0496  -12.3962  -49.4136 H         1 UNK         0.0600 
    188 H188        4.8440  -13.6156  -49.7965 H         1 UNK         0.0600 
    189 H189        2.7429  -12.3030  -47.0503 H         1 UNK         0.3000 
    190 H190       -3.1667  -23.3834  -46.0223 H         1 UNK         0.3000 
    191 H191       -3.1290  -23.5956  -48.8895 H         1 UNK         0.0600 
    192 H192       -4.2356  -25.2751  -47.4385 H         1 UNK         0.0600 
    193 H193       -2.6891  -25.7017  -46.7030 H         1 UNK         0.0600 
    194 H194       -2.9893  -26.0480  -48.4036 H         1 UNK         0.0600 
    195 H195       -0.5822  -23.3035  -46.5550 H         1 UNK         0.3000 
    196 H196        1.5635  -24.4195  -48.1452 H         1 UNK         0.0600 
    197 H197        1.6981  -24.1667  -45.6532 H         1 UNK         0.0600 
    198 H198        1.6479  -22.4102  -45.8363 H         1 UNK         0.0600 
    199 H199        3.0102  -23.3246  -46.4624 H         1 UNK         0.0600 
    200 H200       -0.0961  -21.2969  -48.0260 H         1 UNK         0.3000 
    201 H201        1.9362  -19.8961  -49.6304 H         1 UNK         0.0600 
    202 H202        0.6548  -18.6464  -47.8942 H         1 UNK         0.0600 
    203 H203       -0.8548  -19.0157  -48.7168 H         1 UNK         0.0600 
    204 H204        0.3535  -18.0075  -49.5016 H         1 UNK         0.0600 
    205 H205       -1.4556  -21.0127  -49.9518 H         1 UNK         0.3000 
    206 H206       -2.7947  -21.5258  -51.6407 H         1 UNK         0.0600 
    207 H207       -0.2609  -22.3967  -53.1178 H         1 UNK         0.0600 
    208 H208       -1.1647  -23.3742  -51.9624 H         1 UNK         0.0600 
    209 H209       -1.9031  -22.9069  -53.4837 H         1 UNK         0.0600 
    210 H210       -2.0782  -18.8119  -51.4965 H         1 UNK         0.3000 
    211 H211       -1.3954  -17.5773  -53.9338 H         1 UNK         0.0600 
    212 H212       -3.0255  -16.4664  -51.5878 H         1 UNK         0.0600 
    213 H213       -2.1977  -15.5140  -52.8102 H         1 UNK         0.0600 
    214 H214       -1.2637  -16.4889  -51.6868 H         1 UNK         0.0600 
    215 H215       -4.4457  -18.9165  -52.9323 H         1 UNK         0.3000 
    216 H216       -6.0907  -17.5484  -54.9143 H         1 UNK         0.0600 
    217 H217       -7.8684  -18.9733  -54.0412 H         1 UNK         0.0600 
    218 H218       -6.9578  -18.3462  -52.6809 H         1 UNK         0.0600 
    219 H219       -6.7108  -20.0089  -53.2124 H         1 UNK         0.0600 
    220 H220       -3.6835  -19.7583  -55.3594 H         1 UNK         0.3000 
    221 H221       -2.9807  -21.0126  -57.0081 H         1 UNK         0.0600 
    222 H222       -5.2149  -19.7302  -58.6816 H         1 UNK         0.0600 
    223 H223       -3.5895  -19.1031  -58.4505 H         1 UNK         0.0600 
    224 H224       -3.8248  -20.6086  -59.3166 H         1 UNK         0.0600 
    225 H225       -5.7736  -21.7062  -58.8126 H         1 UNK         0.3000 
    226 H226       -5.6174  -24.4757  -58.3956 H         1 UNK         0.0600 
    227 H227       -6.4836  -23.4308  -60.4680 H         1 UNK         0.0600 
    228 H228       -7.6847  -24.5279  -59.8075 H         1 UNK         0.0600 
    229 H229       -7.8795  -22.7917  -59.5985 H         1 UNK         0.0600 
    230 H230       -7.4849  -22.1083  -56.6004 H         1 UNK         0.3000 
    231 H231       -9.2808  -24.0311  -55.3299 H         1 UNK         0.0600 
    232 H232       -9.8957  -22.0444  -53.9383 H         1 UNK         0.0600 
    233 H233       -9.9609  -21.6730  -55.6539 H         1 UNK         0.0600 
    234 H234       -8.6001  -21.1167  -54.6846 H         1 UNK         0.0600 
    235 H235       -5.9818  -23.1611  -54.8973 H         1 UNK         0.3000 
    236 H236       -4.3935  -23.4820  -53.4199 H         1 UNK         0.0600 
    237 H237       -6.0852  -25.8762  -52.5315 H         1 UNK         0.0600 
    238 H238       -5.0388  -25.8421  -53.9506 H         1 UNK         0.0600 
    239 H239       -4.3445  -25.7029  -52.3448 H         1 UNK         0.0600 
    240 H240       -6.7218  -21.8377  -52.4398 H         1 UNK         0.3000 
    241 H241       -7.4192  -20.6768  -50.7029 H         1 UNK         0.0600 
    242 H242       -8.2447  -23.6178  -50.9903 H         1 UNK         0.3800 
    243 H243       -8.9707  -23.9364  -49.4334 H         1 UNK         0.3800 
    244 H244       -6.0095  -20.3359  -48.6540 H         1 UNK         0.0800 
    245 H245       -4.9002  -21.5491  -49.2141 H         1 UNK         0.0800 
    246 H246       -6.4535  -18.0171  -49.8123 H         1 UNK         0.0800 
    247 H247       -5.1143  -17.1749  -50.5461 H         1 UNK         0.0800 
@<TRIPOS>BOND
     1    1    2 1    
     2    1  127 1    
     3    1  128 1    
     4    1  129 1    
     5    2    3 2    
     6    2    4 am   BACKBONE|DICT|INTERRES
     7    4    5 1    
     8    4  130 1    
     9    5    6 1    
    10    5   65 1    
    11    5  131 1    
    12    6    7 1    
    13    6  132 1    
    14    6  133 1    
    15    7    8 1    
    16    8    9 1    
    17    8  134 1    
    18    8  135 1    
    19    9   10 ar   
    20    9   14 ar   
    21   10   11 ar   
    22   10  136 1    
    23   11   12 ar   
    24   11  126 1    
    25   12   13 ar   
    26   12  137 1    
    27   13   14 ar   
    28   13   15 1    
    29   14  138 1    
    30   15   16 1    
    31   15  139 1    
    32   15  140 1    
    33   16   17 1    
    34   17   18 1    
    35   17  141 1    
    36   17  142 1    
    37   18   19 1    
    38   18   67 1    
    39   18  143 1    
    40   19   20 am   BACKBONE|DICT|INTERRES
    41   19  144 1    
    42   20   21 2    
    43   20   22 1    
    44   22   23 1    
    45   22   24 1    
    46   22  145 1    
    47   23  146 1    
    48   23  147 1    
    49   23  148 1    
    50   24   25 am   BACKBONE|DICT|INTERRES
    51   24  149 1    
    52   25   26 2    
    53   25   27 1    
    54   27   28 1    
    55   27   29 1    
    56   27  150 1    
    57   28  151 1    
    58   28  152 1    
    59   28  153 1    
    60   29   30 am   BACKBONE|DICT|INTERRES
    61   29  154 1    
    62   30   31 2    
    63   30   32 1    
    64   32   33 1    
    65   32   34 1    
    66   32  155 1    
    67   33  156 1    
    68   33  157 1    
    69   33  158 1    
    70   34   35 am   BACKBONE|DICT|INTERRES
    71   34  159 1    
    72   35   36 2    
    73   35   37 1    
    74   37   38 1    
    75   37   39 1    
    76   37  160 1    
    77   38  161 1    
    78   38  162 1    
    79   38  163 1    
    80   39   40 am   BACKBONE|DICT|INTERRES
    81   39  164 1    
    82   40   41 2    
    83   40   42 1    
    84   42   43 1    
    85   42   44 1    
    86   42  165 1    
    87   43  166 1    
    88   43  167 1    
    89   43  168 1    
    90   44   45 am   BACKBONE|DICT|INTERRES
    91   44  169 1    
    92   45   46 2    
    93   45   47 1    
    94   47   48 1    
    95   47   49 1    
    96   47  170 1    
    97   48  171 1    
    98   48  172 1    
    99   48  173 1    
   100   49   50 am   BACKBONE|DICT|INTERRES
   101   49  174 1    
   102   50   51 2    
   103   50   52 1    
   104   52   53 1    
   105   52   54 1    
   106   52  175 1    
   107   53  176 1    
   108   53  177 1    
   109   53  178 1    
   110   54   55 am   BACKBONE|DICT|INTERRES
   111   54  179 1    
   112   55   56 2    
   113   55   57 1    
   114   57   58 1    
   115   57   59 1    
   116   57  180 1    
   117   58  181 1    
   118   58  182 1    
   119   58  183 1    
   120   59   60 am   BACKBONE|DICT|INTERRES
   121   59  184 1    
   122   60   61 2    
   123   60   62 1    
   124   62   63 1    
   125   62   64 1    
   126   62  185 1    
   127   63  186 1    
   128   63  187 1    
   129   63  188 1    
   130   64   65 am   BACKBONE|DICT|INTERRES
   131   64  189 1    
   132   65   66 2    
   133   67   68 2    
   134   67   69 am   BACKBONE|DICT|INTERRES
   135   69   70 1    
   136   69  190 1    
   137   70   71 1    
   138   70   72 1    
   139   70  191 1    
   140   71  192 1    
   141   71  193 1    
   142   71  194 1    
   143   72   73 2    
   144   72   74 am   BACKBONE|DICT|INTERRES
   145   74   75 1    
   146   74  195 1    
   147   75   76 1    
   148   75   77 1    
   149   75  196 1    
   150   76  197 1    
   151   76  198 1    
   152   76  199 1    
   153   77   78 2    
   154   77   79 am   BACKBONE|DICT|INTERRES
   155   79   80 1    
   156   79  200 1    
   157   80   81 1    
   158   80   82 1    
   159   80  201 1    
   160   81  202 1    
   161   81  203 1    
   162   81  204 1    
   163   82   83 2    
   164   82   84 am   BACKBONE|DICT|INTERRES
   165   84   85 1    
   166   84  205 1    
   167   85   86 1    
   168   85   87 1    
   169   85  206 1    
   170   86  207 1    
   171   86  208 1    
   172   86  209 1    
   173   87   88 2    
   174   87   89 am   BACKBONE|DICT|INTERRES
   175   89   90 1    
   176   89  210 1    
   177   90   91 1    
   178   90   92 1    
   179   90  211 1    
   180   91  212 1    
   181   91  213 1    
   182   91  214 1    
   183   92   93 2    
   184   92   94 am   BACKBONE|DICT|INTERRES
   185   94   95 1    
   186   94  215 1    
   187   95   96 1    
   188   95   97 1    
   189   95  216 1    
   190   96  217 1    
   191   96  218 1    
   192   96  219 1    
   193   97   98 2    
   194   97   99 am   BACKBONE|DICT|INTERRES
   195   99  100 1    
   196   99  220 1    
   197  100  101 1    
   198  100  102 1    
   199  100  221 1    
   200  101  222 1    
   201  101  223 1    
   202  101  224 1    
   203  102  103 2    
   204  102  104 am   BACKBONE|DICT|INTERRES
   205  104  105 1    
   206  104  225 1    
   207  105  106 1    
   208  105  107 1    
   209  105  226 1    
   210  106  227 1    
   211  106  228 1    
   212  106  229 1    
   213  107  108 2    
   214  107  109 am   BACKBONE|DICT|INTERRES
   215  109  110 1    
   216  109  230 1    
   217  110  111 1    
   218  110  112 1    
   219  110  231 1    
   220  111  232 1    
   221  111  233 1    
   222  111  234 1    
   223  112  113 2    
   224  112  114 am   BACKBONE|DICT|INTERRES
   225  114  115 1    
   226  114  235 1    
   227  115  116 1    
   228  115  117 1    
   229  115  236 1    
   230  116  237 1    
   231  116  238 1    
   232  116  239 1    
   233  117  118 2    
   234  117  119 am   BACKBONE|DICT|INTERRES
   235  119  120 1    
   236  119  240 1    
   237  120  121 1    
   238  120  124 1    
   239  120  241 1    
   240  121  122 am   BACKBONE|DICT|INTERRES
   241  121  123 2    
   242  122  242 1    
   243  122  243 1    
   244  124  125 1    
   245  124  244 1    
   246  124  245 1    
   247  125  126 1    
   248  126  246 1    
   249  126  247 1    
@<TRIPOS>SUBSTRUCTURE
     1 UNK         1 GROUP             0       ****    0 ROOT    
