@<TRIPOS>MOLECULE
3R540
247   249    1
SMALL
USER_CHARGES


@<TRIPOS>ATOM
      1 CA          9.4267  -12.0816  -47.4109 C.3       0 UNK        -0.1800 
      2 C           7.9752  -12.5124  -47.5690 C.2       0 UNK         0.5000 
      3 O           7.1676  -12.2860  -46.6676 O.2       0 UNK        -0.5000 
      4 N           7.6440  -13.1390  -48.7049 N.am      1 UNK        -0.5000 
      5 CA          6.2888  -13.5627  -49.0652 C.3       1 UNK         0.1400 
      6 C6          6.3242  -14.6039  -50.2168 C.3       23 UNK        -0.0398 
      7 S7          4.7156  -15.0828  -50.9445 S.3       23 UNK        -0.2404 
      8 C8          3.9138  -15.9672  -49.5717 C.3       23 UNK        -0.0205 
      9 C9          2.6159  -16.6066  -50.0397 C.ar      23 UNK        -0.0193 
     10 C10         1.4532  -15.8394  -50.1566 C.ar      23 UNK        -0.1150 
     11 C11         0.2756  -16.4033  -50.6562 C.ar      23 UNK        -0.0193 
     12 C12         0.2637  -17.7523  -51.0248 C.ar      23 UNK        -0.1150 
     13 C13         1.4122  -18.5391  -50.8839 C.ar      23 UNK        -0.0193 
     14 C14         2.5853  -17.9578  -50.3934 C.ar      23 UNK        -0.1150 
     15 C15         1.4066  -20.0102  -51.2843 C.3       23 UNK        -0.0205 
     16 S16         0.0765  -20.9653  -50.4871 S.3       23 UNK        -0.2404 
     17 C17         0.4012  -20.6825  -48.7095 C.3       23 UNK        -0.0398 
     18 CA          0.5842  -21.9624  -47.8574 C.3       11 UNK         0.1400 
     19 N           0.8589  -21.6074  -46.4628 N.am      11 UNK        -0.5000 
     20 C           1.2651  -22.4541  -45.5081 C.2       10 UNK         0.5000 
     21 O           1.4938  -23.6477  -45.7034 O.2       10 UNK        -0.5000 
     22 CA          1.4139  -21.8708  -44.0905 C.3       10 UNK         0.1400 
     23 CB          2.7371  -21.1032  -43.9492 C.3       10 UNK        -0.1800 
     24 N           0.2983  -20.9954  -43.7277 N.am      10 UNK        -0.5000 
     25 C          -0.9592  -21.4179  -43.5323 C.2       9 UNK         0.5000 
     26 O          -1.2979  -22.6011  -43.5733 O.2       9 UNK        -0.5000 
     27 CA         -2.0268  -20.3376  -43.2744 C.3       9 UNK         0.1400 
     28 CB         -2.0431  -19.9360  -41.7921 C.3       9 UNK        -0.1800 
     29 N          -1.8642  -19.1448  -44.1102 N.am      9 UNK        -0.5000 
     30 C          -1.9258  -19.1466  -45.4500 C.2       8 UNK         0.5000 
     31 O          -2.1275  -20.1578  -46.1153 O.2       8 UNK        -0.5000 
     32 CA         -1.6536  -17.8184  -46.1768 C.3       8 UNK         0.1400 
     33 CB         -2.8706  -16.8849  -46.1024 C.3       8 UNK        -0.1800 
     34 N          -0.4723  -17.1381  -45.6544 N.am      8 UNK        -0.5000 
     35 C           0.7690  -17.6436  -45.6729 C.2       7 UNK         0.5000 
     36 O           1.0664  -18.7247  -46.1808 O.2       7 UNK        -0.5000 
     37 CA          1.8466  -16.8322  -44.9375 C.3       7 UNK         0.1400 
     38 CB          2.3253  -15.6514  -45.7929 C.3       7 UNK        -0.1800 
     39 N           1.3679  -16.3465  -43.6432 N.am      7 UNK        -0.5000 
     40 C           1.0931  -17.1358  -42.5947 C.2       6 UNK         0.5000 
     41 O           1.2497  -18.3570  -42.5964 O.2       6 UNK        -0.5000 
     42 CA          0.5136  -16.4448  -41.3471 C.3       6 UNK         0.1400 
     43 CB          1.6366  -15.8426  -40.4896 C.3       6 UNK        -0.1800 
     44 N          -0.4558  -15.3999  -41.6818 N.am      6 UNK        -0.5000 
     45 C          -1.6583  -15.6333  -42.2263 C.2       5 UNK         0.5000 
     46 O          -2.0846  -16.7573  -42.4862 O.2       5 UNK        -0.5000 
     47 CA         -2.5086  -14.4001  -42.5833 C.3       5 UNK         0.1400 
     48 CB         -3.2922  -13.9090  -41.3570 C.3       5 UNK        -0.1800 
     49 N          -1.7248  -13.2924  -43.1385 N.am      5 UNK        -0.5000 
     50 C          -1.0119  -13.3647  -44.2696 C.2       4 UNK         0.5000 
     51 O          -0.8980  -14.3936  -44.9396 O.2       4 UNK        -0.5000 
     52 CA         -0.2581  -12.0939  -44.6916 C.3       4 UNK         0.1400 
     53 CB          1.1286  -12.0530  -44.0307 C.3       4 UNK        -0.1800 
     54 N          -0.0833  -12.0650  -46.1398 N.am      4 UNK        -0.5000 
     55 C          -1.0152  -11.7112  -47.0305 C.2       3 UNK         0.5000 
     56 O          -2.1094  -11.2426  -46.7105 O.2       3 UNK        -0.5000 
     57 CA         -0.6530  -11.9057  -48.5234 C.3       3 UNK         0.1400 
     58 CB         -1.6696  -11.2449  -49.4725 C.3       3 UNK        -0.1800 
     59 N           0.6908  -11.4232  -48.8683 N.am      3 UNK        -0.5000 
     60 C           1.8384  -12.0376  -48.5604 C.2       2 UNK         0.5000 
     61 O           1.8893  -13.0970  -47.9280 O.2       2 UNK        -0.5000 
     62 CA          3.1421  -11.3490  -48.9893 C.3       2 UNK         0.1400 
     63 CB          3.4143  -10.0893  -48.1471 C.3       2 UNK        -0.1800 
     64 N           4.2111  -12.3170  -48.7957 N.am      2 UNK        -0.5000 
     65 C           5.4110  -12.3300  -49.3777 C.2       1 UNK         0.5000 
     66 O           5.8246  -11.4492  -50.1360 O.2       1 UNK        -0.5000 
     67 C          -0.6033  -22.9465  -47.9784 C.2       11 UNK         0.5000 
     68 O          -0.5263  -23.8924  -48.7599 O.2       11 UNK        -0.5000 
     69 N          -1.6546  -22.7357  -47.1748 N.am      12 UNK        -0.5000 
     70 CA         -2.8964  -23.5109  -47.1683 C.3       12 UNK         0.1400 
     71 CB         -3.9806  -22.7077  -46.4295 C.3       12 UNK        -0.1800 
     72 C          -2.7856  -24.9302  -46.5764 C.2       12 UNK         0.5000 
     73 O          -3.8037  -25.6227  -46.5171 O.2       12 UNK        -0.5000 
     74 N          -1.5888  -25.3515  -46.1419 N.am      13 UNK        -0.5000 
     75 CA         -1.2942  -26.6962  -45.6426 C.3       13 UNK         0.1400 
     76 CB          0.1977  -26.7903  -45.2925 C.3       13 UNK        -0.1800 
     77 C          -1.6897  -27.7856  -46.6592 C.2       13 UNK         0.5000 
     78 O          -1.3123  -27.6945  -47.8288 O.2       13 UNK        -0.5000 
     79 N          -2.4932  -28.7574  -46.2033 N.am      14 UNK        -0.5000 
     80 CA         -3.1151  -29.8296  -46.9951 C.3       14 UNK         0.1400 
     81 CB         -2.0443  -30.8040  -47.5299 C.3       14 UNK        -0.1800 
     82 C          -4.0623  -29.3171  -48.1077 C.2       14 UNK         0.5000 
     83 O          -4.2884  -30.0242  -49.0908 O.2       14 UNK        -0.5000 
     84 N          -4.5922  -28.0954  -47.9329 N.am      15 UNK        -0.5000 
     85 CA         -5.4478  -27.3426  -48.8566 C.3       15 UNK         0.1400 
     86 CB         -6.7962  -28.0570  -49.0822 C.3       15 UNK        -0.1800 
     87 C          -4.7491  -26.9517  -50.1769 C.2       15 UNK         0.5000 
     88 O          -5.4328  -26.6783  -51.1664 O.2       15 UNK        -0.5000 
     89 N          -3.4083  -26.9002  -50.1762 N.am      16 UNK        -0.5000 
     90 CA         -2.5871  -26.5312  -51.3303 C.3       16 UNK         0.1400 
     91 CB         -1.1045  -26.7084  -50.9773 C.3       16 UNK        -0.1800 
     92 C          -2.8684  -25.1021  -51.8342 C.2       16 UNK         0.5000 
     93 O          -3.2086  -24.2196  -51.0410 O.2       16 UNK        -0.5000 
     94 N          -2.7530  -24.9223  -53.1585 N.am      17 UNK        -0.5000 
     95 CA         -3.0391  -23.6914  -53.9078 C.3       17 UNK         0.1400 
     96 CB         -1.9783  -22.6141  -53.5974 C.3       17 UNK        -0.1800 
     97 C          -4.4910  -23.1928  -53.7219 C.2       17 UNK         0.5000 
     98 O          -4.7229  -21.9861  -53.6532 O.2       17 UNK        -0.5000 
     99 N          -5.4341  -24.1453  -53.6215 N.am      18 UNK        -0.5000 
    100 CA        -6.8573  -23.9570  -53.3083 C.3       18 UNK         0.1400 
    101 CB        -7.5814  -23.2075  -54.4468 C.3       18 UNK        -0.1800 
    102 C         -7.0573  -23.3061  -51.9231 C.2       18 UNK         0.5000 
    103 O         -7.8148  -22.3437  -51.7874 O.2       18 UNK        -0.5000 
    104 N         -6.3338  -23.8449  -50.9301 N.am      19 UNK        -0.5000 
    105 CA        -6.1844  -23.3459  -49.5601 C.3       19 UNK         0.1400 
    106 CB        -7.4976  -23.5059  -48.7683 C.3       19 UNK        -0.1800 
    107 C         -5.6149  -21.9122  -49.5299 C.2       19 UNK         0.5000 
    108 O         -6.1751  -21.0321  -48.8733 O.2       19 UNK        -0.5000 
    109 N         -4.5164  -21.7135  -50.2723 N.am      20 UNK        -0.5000 
    110 CA        -3.7606  -20.4765  -50.5118 C.3       20 UNK         0.1400 
    111 CB        -3.1887  -19.9115  -49.2024 C.3       20 UNK        -0.1800 
    112 C         -4.5206  -19.3801  -51.2806 C.2       20 UNK         0.5000 
    113 O         -3.9771  -18.8286  -52.2394 O.2       20 UNK        -0.5000 
    114 N         -5.7422  -19.0688  -50.8288 N.am      21 UNK        -0.5000 
    115 CA        -6.6611  -18.0170  -51.2689 C.3       21 UNK         0.1400 
    116 CB        -7.0994  -18.2237  -52.7322 C.3       21 UNK        -0.1800 
    117 C         -6.1222  -16.5949  -51.0178 C.2       21 UNK         0.5000 
    118 O         -6.7231  -15.8496  -50.2433 O.2       21 UNK        -0.5000 
    119 N         -5.0036  -16.2545  -51.6692 N.am      22 UNK        -0.5000 
    120 CA        -4.2793  -14.9731  -51.5894 C.3       22 UNK         0.1400 
    121 C         -5.0867  -13.7215  -52.0583 C.2       22 UNK         0.5000 
    122 N         -6.1403  -13.8759  -52.8511 N.am      22 UNK        -0.7600 
    123 O         -4.7388  -12.5895  -51.7330 O.2       22 UNK        -0.5000 
    124 C124       -3.5730  -14.7587  -50.2190 C.3       23 UNK        -0.0398 
    125 S125       -2.3589  -16.0616  -49.8128 S.3       23 UNK        -0.2404 
    126 C126       -0.9609  -15.5397  -50.8572 C.3       23 UNK        -0.0205 
    127 H127        9.4851  -11.0005  -47.2844 H         1 UNK         0.0600 
    128 H128       10.0283  -12.3554  -48.2780 H         1 UNK         0.0600 
    129 H129        9.8646  -12.5530  -46.5310 H         1 UNK         0.0600 
    130 H130        8.3481  -13.2668  -49.4176 H         1 UNK         0.3000 
    131 H131        5.8666  -14.0646  -48.1916 H         1 UNK         0.0600 
    132 H132        6.9326  -14.2191  -51.0369 H         1 UNK         0.0800 
    133 H133        6.8279  -15.5098  -49.8765 H         1 UNK         0.0800 
    134 H134        4.5913  -16.7241  -49.1732 H         1 UNK         0.0800 
    135 H135        3.7068  -15.2702  -48.7599 H         1 UNK         0.0800 
    136 H136        1.4784  -14.7928  -49.8911 H         1 UNK         0.1150 
    137 H137       -0.6427  -18.1902  -51.4199 H         1 UNK         0.1150 
    138 H138        3.4836  -18.5524  -50.3042 H         1 UNK         0.1150 
    139 H139        1.2879  -20.0792  -52.3663 H         1 UNK         0.0800 
    140 H140        2.3618  -20.4819  -51.0482 H         1 UNK         0.0800 
    141 H141       -0.4096  -20.0738  -48.3107 H         1 UNK         0.0800 
    142 H142        1.2958  -20.0677  -48.6073 H         1 UNK         0.0800 
    143 H143        1.4673  -22.4828  -48.2341 H         1 UNK         0.0600 
    144 H144        0.7377  -20.6274  -46.2209 H         1 UNK         0.3000 
    145 H145        1.4310  -22.7061  -43.3872 H         1 UNK         0.0600 
    146 H146        2.8824  -20.7557  -42.9262 H         1 UNK         0.0600 
    147 H147        3.5866  -21.7389  -44.2013 H         1 UNK         0.0600 
    148 H148        2.7713  -20.2323  -44.6044 H         1 UNK         0.0600 
    149 H149        0.5056  -20.0076  -43.6263 H         1 UNK         0.3000 
    150 H150       -2.9980  -20.7747  -43.5154 H         1 UNK         0.0600 
    151 H151       -2.1656  -20.8096  -41.1507 H         1 UNK         0.0600 
    152 H152       -2.8690  -19.2579  -41.5770 H         1 UNK         0.0600 
    153 H153       -1.1173  -19.4400  -41.4997 H         1 UNK         0.0600 
    154 H154       -1.7340  -18.2631  -43.6218 H         1 UNK         0.3000 
    155 H155       -1.4649  -18.0429  -47.2286 H         1 UNK         0.0600 
    156 H156       -3.7510  -17.3593  -46.5376 H         1 UNK         0.0600 
    157 H157       -2.6921  -15.9619  -46.6546 H         1 UNK         0.0600 
    158 H158       -3.1126  -16.6166  -45.0741 H         1 UNK         0.0600 
    159 H159       -0.6197  -16.2149  -45.2531 H         1 UNK         0.3000 
    160 H160        2.6993  -17.4912  -44.7604 H         1 UNK         0.0600 
    161 H161        1.5195  -14.9459  -45.9947 H         1 UNK         0.0600 
    162 H162        2.6983  -16.0013  -46.7550 H         1 UNK         0.0600 
    163 H163        3.1349  -15.1081  -45.3057 H         1 UNK         0.0600 
    164 H164        1.1582  -15.3625  -43.5761 H         1 UNK         0.3000 
    165 H165        0.0026  -17.2055  -40.7530 H         1 UNK         0.0600 
    166 H166        1.2429  -15.4202  -39.5649 H         1 UNK         0.0600 
    167 H167        2.3665  -16.6045  -40.2126 H         1 UNK         0.0600 
    168 H168        2.1710  -15.0528  -41.0191 H         1 UNK         0.0600 
    169 H169       -0.1836  -14.4449  -41.5020 H         1 UNK         0.3000 
    170 H170       -3.2284  -14.7087  -43.3443 H         1 UNK         0.0600 
    171 H171       -3.8982  -14.7116  -40.9343 H         1 UNK         0.0600 
    172 H172       -2.6279  -13.5499  -40.5700 H         1 UNK         0.0600 
    173 H173       -3.9702  -13.0972  -41.6212 H         1 UNK         0.0600 
    174 H174       -1.7600  -12.4183  -42.6339 H         1 UNK         0.3000 
    175 H175       -0.8283  -11.2166  -44.3793 H         1 UNK         0.0600 
    176 H176        1.7385  -12.9107  -44.3174 H         1 UNK         0.0600 
    177 H177        1.6712  -11.1504  -44.3129 H         1 UNK         0.0600 
    178 H178        1.0470  -12.0552  -42.9431 H         1 UNK         0.0600 
    179 H179        0.7549  -12.5057  -46.5061 H         1 UNK         0.3000 
    180 H180       -0.6875  -12.9819  -48.7055 H         1 UNK         0.0600 
    181 H181       -1.6740  -10.1600  -49.3626 H         1 UNK         0.0600 
    182 H182       -2.6831  -11.5972  -49.2768 H         1 UNK         0.0600 
    183 H183       -1.4456  -11.4771  -50.5138 H         1 UNK         0.0600 
    184 H184        0.7299  -10.5377  -49.3521 H         1 UNK         0.3000 
    185 H185        3.0710  -11.0897  -50.0475 H         1 UNK         0.0600 
    186 H186        2.6246   -9.3487  -48.2775 H         1 UNK         0.0600 
    187 H187        3.4735  -10.3242  -47.0835 H         1 UNK         0.0600 
    188 H188        4.3520   -9.6143  -48.4360 H         1 UNK         0.0600 
    189 H189        3.9223  -13.0926  -48.2113 H         1 UNK         0.3000 
    190 H190       -1.6554  -21.9015  -46.5921 H         1 UNK         0.3000 
    191 H191       -3.2101  -23.6317  -48.2065 H         1 UNK         0.0600 
    192 H192       -4.1379  -21.7338  -46.8917 H         1 UNK         0.0600 
    193 H193       -4.9407  -23.2246  -46.4431 H         1 UNK         0.0600 
    194 H194       -3.7103  -22.5415  -45.3862 H         1 UNK         0.0600 
    195 H195       -0.8016  -24.7258  -46.2411 H         1 UNK         0.3000 
    196 H196       -1.8711  -26.8374  -44.7266 H         1 UNK         0.0600 
    197 H197        0.4497  -27.7811  -44.9126 H         1 UNK         0.0600 
    198 H198        0.4680  -26.0675  -44.5224 H         1 UNK         0.0600 
    199 H199        0.8262  -26.6009  -46.1639 H         1 UNK         0.0600 
    200 H200       -2.7644  -28.7331  -45.2297 H         1 UNK         0.3000 
    201 H201       -3.7471  -30.3875  -46.3028 H         1 UNK         0.0600 
    202 H202       -1.3925  -31.1524  -46.7289 H         1 UNK         0.0600 
    203 H203       -1.4192  -30.3406  -48.2938 H         1 UNK         0.0600 
    204 H204       -2.5047  -31.6857  -47.9771 H         1 UNK         0.0600 
    205 H205       -4.3053  -27.5683  -47.1149 H         1 UNK         0.3000 
    206 H206       -5.6676  -26.4008  -48.3528 H         1 UNK         0.0600 
    207 H207       -7.2690  -28.3161  -48.1349 H         1 UNK         0.0600 
    208 H208       -7.4919  -27.4156  -49.6246 H         1 UNK         0.0600 
    209 H209       -6.6793  -28.9728  -49.6621 H         1 UNK         0.0600 
    210 H210       -2.9082  -27.1201  -49.3236 H         1 UNK         0.3000 
    211 H211       -2.8306  -27.2298  -52.1333 H         1 UNK         0.0600 
    212 H212       -0.8184  -26.0849  -50.1309 H         1 UNK         0.0600 
    213 H213       -0.4625  -26.4388  -51.8168 H         1 UNK         0.0600 
    214 H214       -0.8830  -27.7434  -50.7162 H         1 UNK         0.0600 
    215 H215       -2.4726  -25.7119  -53.7237 H         1 UNK         0.3000 
    216 H216       -2.9466  -23.9441  -54.9650 H         1 UNK         0.0600 
    217 H217       -2.1414  -21.7126  -54.1891 H         1 UNK         0.0600 
    218 H218       -0.9757  -22.9739  -53.8281 H         1 UNK         0.0600 
    219 H219       -1.9899  -22.3249  -52.5477 H         1 UNK         0.0600 
    220 H220       -5.1289  -25.1073  -53.6716 H         1 UNK         0.3000 
    221 H221       -7.2934  -24.9550  -53.2424 H         1 UNK         0.0600 
    222 H222       -7.2386  -22.1765  -54.5396 H         1 UNK         0.0600 
    223 H223       -7.4246  -23.7010  -55.4058 H         1 UNK         0.0600 
    224 H224       -8.6570  -23.1774  -54.2693 H         1 UNK         0.0600 
    225 H225       -5.7588  -24.6479  -51.1620 H         1 UNK         0.3000 
    226 H226       -5.4377  -23.9812  -49.0835 H         1 UNK         0.0600 
    227 H227       -7.8465  -24.5383  -48.7898 H         1 UNK         0.0600 
    228 H228       -7.3560  -23.2326  -47.7221 H         1 UNK         0.0600 
    229 H229       -8.2921  -22.8740  -49.1662 H         1 UNK         0.0600 
    230 H230       -4.1415  -22.5282  -50.7518 H         1 UNK         0.3000 
    231 H231       -2.9167  -20.7673  -51.1362 H         1 UNK         0.0600 
    232 H232       -3.9643  -19.5339  -48.5359 H         1 UNK         0.0600 
    233 H233       -2.4996  -19.0905  -49.4018 H         1 UNK         0.0600 
    234 H234       -2.6359  -20.6788  -48.6675 H         1 UNK         0.0600 
    235 H235       -6.0616  -19.6111  -50.0285 H         1 UNK         0.3000 
    236 H236       -7.5510  -18.1301  -50.6478 H         1 UNK         0.0600 
    237 H237       -7.5428  -19.2103  -52.8706 H         1 UNK         0.0600 
    238 H238       -7.8493  -17.4863  -53.0205 H         1 UNK         0.0600 
    239 H239       -6.2678  -18.1337  -53.4312 H         1 UNK         0.0600 
    240 H240       -4.5543  -16.9859  -52.2128 H         1 UNK         0.3000 
    241 H241       -3.4944  -15.0551  -52.3404 H         1 UNK         0.0600 
    242 H242       -6.6517  -13.0641  -53.1604 H         1 UNK         0.3800 
    243 H243       -6.4338  -14.7949  -53.1404 H         1 UNK         0.3800 
    244 H244       -3.0483  -13.8036  -50.1973 H         1 UNK         0.0800 
    245 H245       -4.3104  -14.7125  -49.4167 H         1 UNK         0.0800 
    246 H246       -1.2519  -15.5937  -51.9065 H         1 UNK         0.0800 
    247 H247       -0.7314  -14.4929  -50.6544 H         1 UNK         0.0800 
@<TRIPOS>BOND
     1    1    2 1    
     2    1  127 1    
     3    1  128 1    
     4    1  129 1    
     5    2    3 2    
     6    2    4 am   BACKBONE|DICT|INTERRES
     7    4    5 1    
     8    4  130 1    
     9    5    6 1    
    10    5   65 1    
    11    5  131 1    
    12    6    7 1    
    13    6  132 1    
    14    6  133 1    
    15    7    8 1    
    16    8    9 1    
    17    8  134 1    
    18    8  135 1    
    19    9   10 ar   
    20    9   14 ar   
    21   10   11 ar   
    22   10  136 1    
    23   11   12 ar   
    24   11  126 1    
    25   12   13 ar   
    26   12  137 1    
    27   13   14 ar   
    28   13   15 1    
    29   14  138 1    
    30   15   16 1    
    31   15  139 1    
    32   15  140 1    
    33   16   17 1    
    34   17   18 1    
    35   17  141 1    
    36   17  142 1    
    37   18   19 1    
    38   18   67 1    
    39   18  143 1    
    40   19   20 am   BACKBONE|DICT|INTERRES
    41   19  144 1    
    42   20   21 2    
    43   20   22 1    
    44   22   23 1    
    45   22   24 1    
    46   22  145 1    
    47   23  146 1    
    48   23  147 1    
    49   23  148 1    
    50   24   25 am   BACKBONE|DICT|INTERRES
    51   24  149 1    
    52   25   26 2    
    53   25   27 1    
    54   27   28 1    
    55   27   29 1    
    56   27  150 1    
    57   28  151 1    
    58   28  152 1    
    59   28  153 1    
    60   29   30 am   BACKBONE|DICT|INTERRES
    61   29  154 1    
    62   30   31 2    
    63   30   32 1    
    64   32   33 1    
    65   32   34 1    
    66   32  155 1    
    67   33  156 1    
    68   33  157 1    
    69   33  158 1    
    70   34   35 am   BACKBONE|DICT|INTERRES
    71   34  159 1    
    72   35   36 2    
    73   35   37 1    
    74   37   38 1    
    75   37   39 1    
    76   37  160 1    
    77   38  161 1    
    78   38  162 1    
    79   38  163 1    
    80   39   40 am   BACKBONE|DICT|INTERRES
    81   39  164 1    
    82   40   41 2    
    83   40   42 1    
    84   42   43 1    
    85   42   44 1    
    86   42  165 1    
    87   43  166 1    
    88   43  167 1    
    89   43  168 1    
    90   44   45 am   BACKBONE|DICT|INTERRES
    91   44  169 1    
    92   45   46 2    
    93   45   47 1    
    94   47   48 1    
    95   47   49 1    
    96   47  170 1    
    97   48  171 1    
    98   48  172 1    
    99   48  173 1    
   100   49   50 am   BACKBONE|DICT|INTERRES
   101   49  174 1    
   102   50   51 2    
   103   50   52 1    
   104   52   53 1    
   105   52   54 1    
   106   52  175 1    
   107   53  176 1    
   108   53  177 1    
   109   53  178 1    
   110   54   55 am   BACKBONE|DICT|INTERRES
   111   54  179 1    
   112   55   56 2    
   113   55   57 1    
   114   57   58 1    
   115   57   59 1    
   116   57  180 1    
   117   58  181 1    
   118   58  182 1    
   119   58  183 1    
   120   59   60 am   BACKBONE|DICT|INTERRES
   121   59  184 1    
   122   60   61 2    
   123   60   62 1    
   124   62   63 1    
   125   62   64 1    
   126   62  185 1    
   127   63  186 1    
   128   63  187 1    
   129   63  188 1    
   130   64   65 am   BACKBONE|DICT|INTERRES
   131   64  189 1    
   132   65   66 2    
   133   67   68 2    
   134   67   69 am   BACKBONE|DICT|INTERRES
   135   69   70 1    
   136   69  190 1    
   137   70   71 1    
   138   70   72 1    
   139   70  191 1    
   140   71  192 1    
   141   71  193 1    
   142   71  194 1    
   143   72   73 2    
   144   72   74 am   BACKBONE|DICT|INTERRES
   145   74   75 1    
   146   74  195 1    
   147   75   76 1    
   148   75   77 1    
   149   75  196 1    
   150   76  197 1    
   151   76  198 1    
   152   76  199 1    
   153   77   78 2    
   154   77   79 am   BACKBONE|DICT|INTERRES
   155   79   80 1    
   156   79  200 1    
   157   80   81 1    
   158   80   82 1    
   159   80  201 1    
   160   81  202 1    
   161   81  203 1    
   162   81  204 1    
   163   82   83 2    
   164   82   84 am   BACKBONE|DICT|INTERRES
   165   84   85 1    
   166   84  205 1    
   167   85   86 1    
   168   85   87 1    
   169   85  206 1    
   170   86  207 1    
   171   86  208 1    
   172   86  209 1    
   173   87   88 2    
   174   87   89 am   BACKBONE|DICT|INTERRES
   175   89   90 1    
   176   89  210 1    
   177   90   91 1    
   178   90   92 1    
   179   90  211 1    
   180   91  212 1    
   181   91  213 1    
   182   91  214 1    
   183   92   93 2    
   184   92   94 am   BACKBONE|DICT|INTERRES
   185   94   95 1    
   186   94  215 1    
   187   95   96 1    
   188   95   97 1    
   189   95  216 1    
   190   96  217 1    
   191   96  218 1    
   192   96  219 1    
   193   97   98 2    
   194   97   99 am   BACKBONE|DICT|INTERRES
   195   99  100 1    
   196   99  220 1    
   197  100  101 1    
   198  100  102 1    
   199  100  221 1    
   200  101  222 1    
   201  101  223 1    
   202  101  224 1    
   203  102  103 2    
   204  102  104 am   BACKBONE|DICT|INTERRES
   205  104  105 1    
   206  104  225 1    
   207  105  106 1    
   208  105  107 1    
   209  105  226 1    
   210  106  227 1    
   211  106  228 1    
   212  106  229 1    
   213  107  108 2    
   214  107  109 am   BACKBONE|DICT|INTERRES
   215  109  110 1    
   216  109  230 1    
   217  110  111 1    
   218  110  112 1    
   219  110  231 1    
   220  111  232 1    
   221  111  233 1    
   222  111  234 1    
   223  112  113 2    
   224  112  114 am   BACKBONE|DICT|INTERRES
   225  114  115 1    
   226  114  235 1    
   227  115  116 1    
   228  115  117 1    
   229  115  236 1    
   230  116  237 1    
   231  116  238 1    
   232  116  239 1    
   233  117  118 2    
   234  117  119 am   BACKBONE|DICT|INTERRES
   235  119  120 1    
   236  119  240 1    
   237  120  121 1    
   238  120  124 1    
   239  120  241 1    
   240  121  122 am   BACKBONE|DICT|INTERRES
   241  121  123 2    
   242  122  242 1    
   243  122  243 1    
   244  124  125 1    
   245  124  244 1    
   246  124  245 1    
   247  125  126 1    
   248  126  246 1    
   249  126  247 1    
@<TRIPOS>SUBSTRUCTURE
     1 UNK         1 GROUP             0       ****    0 ROOT    
