@<TRIPOS>MOLECULE
3R540
247   249    1
SMALL
USER_CHARGES


@<TRIPOS>ATOM
      1 CA          2.2524  -18.1878  -46.8916 C.3       0 UNK        -0.1800 
      2 C           1.5201  -16.9266  -47.3267 C.2       0 UNK         0.5000 
      3 O           0.5092  -16.5623  -46.7331 O.2       0 UNK        -0.5000 
      4 N           2.0339  -16.2374  -48.3503 N.am      1 UNK        -0.5000 
      5 CA          1.4431  -15.0060  -48.8991 C.3       1 UNK         0.1400 
      6 C6          1.8493  -14.7876  -50.3771 C.3       23 UNK        -0.0398 
      7 S7          1.2786  -16.1654  -51.4276 S.3       23 UNK        -0.2404 
      8 C8          2.8475  -16.9153  -51.9596 C.3       23 UNK        -0.0205 
      9 C9          2.6028  -18.2830  -52.5765 C.ar      23 UNK        -0.0193 
     10 C10         1.9727  -18.3873  -53.8187 C.ar      23 UNK        -0.1150 
     11 C11         1.6900  -19.6400  -54.3689 C.ar      23 UNK        -0.0193 
     12 C12         2.0721  -20.7924  -53.6757 C.ar      23 UNK        -0.1150 
     13 C13         2.7200  -20.7104  -52.4391 C.ar      23 UNK        -0.0193 
     14 C14         2.9852  -19.4442  -51.8984 C.ar      23 UNK        -0.1150 
     15 C15         3.1230  -22.0145  -51.7438 C.3       23 UNK        -0.0205 
     16 S16         3.4823  -21.8928  -49.9557 S.3       23 UNK        -0.2404 
     17 C17         1.8580  -21.4054  -49.2859 C.3       23 UNK        -0.0398 
     18 CA          1.3339  -22.3686  -48.1943 C.3       11 UNK         0.1400 
     19 N           2.2806  -22.5190  -47.0846 N.am      11 UNK        -0.5000 
     20 C           2.1264  -23.3146  -46.0180 C.2       10 UNK         0.5000 
     21 O           1.1361  -24.0255  -45.8375 O.2       10 UNK        -0.5000 
     22 CA          3.2204  -23.2602  -44.9311 C.3       10 UNK         0.1400 
     23 CB          4.5030  -22.5162  -45.3674 C.3       10 UNK        -0.1800 
     24 N           2.7127  -22.6900  -43.6769 N.am      10 UNK        -0.5000 
     25 C           2.0992  -21.5067  -43.5203 C.2       9 UNK         0.5000 
     26 O           1.8296  -20.7549  -44.4612 O.2       9 UNK        -0.5000 
     27 CA          1.6782  -21.1372  -42.0792 C.3       9 UNK         0.1400 
     28 CB          2.7897  -21.4074  -41.0422 C.3       9 UNK        -0.1800 
     29 N           1.1794  -19.7629  -41.9618 N.am      9 UNK        -0.5000 
     30 C           1.8526  -18.6204  -42.1746 C.2       8 UNK         0.5000 
     31 O           3.0612  -18.5632  -42.4066 O.2       8 UNK        -0.5000 
     32 CA          1.0397  -17.3086  -42.1434 C.3       8 UNK         0.1400 
     33 CB          0.8979  -16.7527  -43.5655 C.3       8 UNK        -0.1800 
     34 N          -0.2939  -17.4568  -41.5512 N.am      8 UNK        -0.5000 
     35 C          -0.5106  -17.5562  -40.2323 C.2       7 UNK         0.5000 
     36 O           0.3855  -17.5139  -39.3884 O.2       7 UNK        -0.5000 
     37 CA         -1.9661  -17.7502  -39.7721 C.3       7 UNK         0.1400 
     38 CB         -2.6779  -16.3925  -39.6697 C.3       7 UNK        -0.1800 
     39 N          -2.7604  -18.6404  -40.6200 N.am      7 UNK        -0.5000 
     40 C          -2.4986  -19.9201  -40.9141 C.2       6 UNK         0.5000 
     41 O          -1.4669  -20.5003  -40.5775 O.2       6 UNK        -0.5000 
     42 CA         -3.5562  -20.6889  -41.7349 C.3       6 UNK         0.1400 
     43 CB         -4.6965  -21.2031  -40.8373 C.3       6 UNK        -0.1800 
     44 N          -4.0716  -19.9610  -42.9018 N.am      6 UNK        -0.5000 
     45 C          -4.7724  -18.8209  -42.9397 C.2       5 UNK         0.5000 
     46 O          -5.2227  -18.2503  -41.9428 O.2       5 UNK        -0.5000 
     47 CA         -4.9616  -18.1841  -44.3292 C.3       5 UNK         0.1400 
     48 CB         -6.3662  -18.4862  -44.8719 C.3       5 UNK        -0.1800 
     49 N          -4.7578  -16.7326  -44.3032 N.am      5 UNK        -0.5000 
     50 C          -3.6827  -16.0839  -43.8267 C.2       4 UNK         0.5000 
     51 O          -2.6649  -16.6385  -43.3984 O.2       4 UNK        -0.5000 
     52 CA         -3.8175  -14.5485  -43.7803 C.3       4 UNK         0.1400 
     53 CB         -4.7913  -14.1279  -42.6659 C.3       4 UNK        -0.1800 
     54 N          -2.5464  -13.8609  -43.5564 N.am      4 UNK        -0.5000 
     55 C          -1.5756  -13.7084  -44.4643 C.2       3 UNK         0.5000 
     56 O          -1.6480  -14.1291  -45.6209 O.2       3 UNK        -0.5000 
     57 CA         -0.3385  -12.9078  -44.0162 C.3       3 UNK         0.1400 
     58 CB          0.0359  -13.1121  -42.5293 C.3       3 UNK        -0.1800 
     59 N           0.8003  -13.2118  -44.8820 N.am      3 UNK        -0.5000 
     60 C           1.8362  -12.3906  -45.0973 C.2       2 UNK         0.5000 
     61 O           1.9421  -11.2810  -44.5721 O.2       2 UNK        -0.5000 
     62 CA          2.9569  -12.8733  -46.0404 C.3       2 UNK         0.1400 
     63 CB          4.1530  -13.3867  -45.2232 C.3       2 UNK        -0.1800 
     64 N           2.5484  -13.9223  -46.9742 N.am      2 UNK        -0.5000 
     65 C           1.7453  -13.7572  -48.0350 C.2       1 UNK         0.5000 
     66 O           1.2545  -12.6713  -48.3460 O.2       1 UNK        -0.5000 
     67 C          -0.0689  -21.9130  -47.7399 C.2       11 UNK         0.5000 
     68 O          -1.0499  -22.2663  -48.3934 O.2       11 UNK        -0.5000 
     69 N          -0.1540  -21.1512  -46.6403 N.am      12 UNK        -0.5000 
     70 CA         -1.4163  -20.6730  -46.0780 C.3       12 UNK         0.1400 
     71 CB         -1.1521  -19.4353  -45.2153 C.3       12 UNK        -0.1800 
     72 C          -2.1397  -21.7446  -45.2498 C.2       12 UNK         0.5000 
     73 O          -3.3590  -21.6601  -45.1096 O.2       12 UNK        -0.5000 
     74 N          -1.3914  -22.7158  -44.7097 N.am      13 UNK        -0.5000 
     75 CA         -1.9317  -23.8682  -43.9873 C.3       13 UNK         0.1400 
     76 CB         -0.9059  -24.3529  -42.9519 C.3       13 UNK        -0.1800 
     77 C          -2.3158  -24.9954  -44.9598 C.2       13 UNK         0.5000 
     78 O          -3.3407  -25.6482  -44.7635 O.2       13 UNK        -0.5000 
     79 N          -1.5073  -25.1730  -46.0142 N.am      14 UNK        -0.5000 
     80 CA         -1.7536  -26.1031  -47.1178 C.3       14 UNK         0.1400 
     81 CB         -0.4492  -26.2723  -47.9127 C.3       14 UNK        -0.1800 
     82 C          -2.8906  -25.6542  -48.0591 C.2       14 UNK         0.5000 
     83 O          -3.3950  -26.4788  -48.8217 O.2       14 UNK        -0.5000 
     84 N          -3.2480  -24.3612  -48.0035 N.am      15 UNK        -0.5000 
     85 CA         -4.1961  -23.6554  -48.8728 C.3       15 UNK         0.1400 
     86 CB         -5.6313  -24.1915  -48.6926 C.3       15 UNK        -0.1800 
     87 C          -3.7262  -23.6329  -50.3428 C.2       15 UNK         0.5000 
     88 O          -4.5281  -23.8033  -51.2603 O.2       15 UNK        -0.5000 
     89 N          -2.4175  -23.4243  -50.5204 N.am      16 UNK        -0.5000 
     90 CA         -1.7229  -23.3477  -51.8032 C.3       16 UNK         0.1400 
     91 CB         -0.4414  -24.1913  -51.7043 C.3       16 UNK        -0.1800 
     92 C          -1.3719  -21.8982  -52.1884 C.2       16 UNK         0.5000 
     93 O          -1.0273  -21.6606  -53.3443 O.2       16 UNK        -0.5000 
     94 N          -1.4383  -20.9745  -51.2177 N.am      17 UNK        -0.5000 
     95 CA         -1.0987  -19.5555  -51.3451 C.3       17 UNK         0.1400 
     96 CB         -1.1315  -18.9295  -49.9379 C.3       17 UNK        -0.1800 
     97 C          -2.0078  -18.7672  -52.3114 C.2       17 UNK         0.5000 
     98 O          -3.0324  -19.2750  -52.7795 O.2       17 UNK        -0.5000 
     99 N          -1.6226  -17.5094  -52.5668 N.am      18 UNK        -0.5000 
    100 CA        -2.3583  -16.5491  -53.3881 C.3       18 UNK         0.1400 
    101 CB        -1.5774  -15.2286  -53.4558 C.3       18 UNK        -0.1800 
    102 C         -3.7857  -16.3207  -52.8608 C.2       18 UNK         0.5000 
    103 O         -3.9589  -16.0227  -51.6776 O.2       18 UNK        -0.5000 
    104 N         -4.7671  -16.5152  -53.7488 N.am      19 UNK        -0.5000 
    105 CA        -6.2176  -16.5054  -53.5340 C.3       19 UNK         0.1400 
    106 CB        -6.6990  -15.1925  -52.8833 C.3       19 UNK        -0.1800 
    107 C         -6.7647  -17.7494  -52.8015 C.2       19 UNK         0.5000 
    108 O         -7.9834  -17.9293  -52.7833 O.2       19 UNK        -0.5000 
    109 N         -5.8921  -18.6058  -52.2502 N.am      20 UNK        -0.5000 
    110 CA        -6.2604  -19.9129  -51.7051 C.3       20 UNK         0.1400 
    111 CB        -5.3138  -20.2948  -50.5556 C.3       20 UNK        -0.1800 
    112 C         -6.2601  -20.9773  -52.8170 C.2       20 UNK         0.5000 
    113 O         -7.1625  -21.8152  -52.8451 O.2       20 UNK        -0.5000 
    114 N         -5.2891  -20.8911  -53.7375 N.am      21 UNK        -0.5000 
    115 CA        -5.2167  -21.7089  -54.9451 C.3       21 UNK         0.1400 
    116 CB        -4.2801  -22.9096  -54.7347 C.3       21 UNK        -0.1800 
    117 C         -4.7904  -20.8518  -56.1434 C.2       21 UNK         0.5000 
    118 O         -5.5857  -20.6743  -57.0675 O.2       21 UNK        -0.5000 
    119 N         -3.5502  -20.3461  -56.1212 N.am      22 UNK        -0.5000 
    120 CA        -2.9824  -19.5118  -57.1935 C.3       22 UNK         0.1400 
    121 C         -3.5530  -18.0632  -57.2308 C.2       22 UNK         0.5000 
    122 N         -3.3686  -17.3475  -58.3320 N.am      22 UNK        -0.7600 
    123 O         -4.1481  -17.5706  -56.2748 O.2       22 UNK        -0.5000 
    124 C124       -1.4302  -19.5477  -57.1962 C.3       23 UNK        -0.0398 
    125 S125       -0.6757  -18.9721  -55.6408 S.3       23 UNK        -0.2404 
    126 C126        0.9674  -19.7506  -55.7053 C.3       23 UNK        -0.0205 
    127 H127        3.0923  -18.4184  -47.5472 H         1 UNK         0.0600 
    128 H128        1.5705  -19.0351  -46.9008 H         1 UNK         0.0600 
    129 H129        2.6319  -18.0734  -45.8761 H         1 UNK         0.0600 
    130 H130        2.8704  -16.5677  -48.8084 H         1 UNK         0.3000 
    131 H131        0.3563  -15.1175  -48.8805 H         1 UNK         0.0600 
    132 H132        1.3989  -13.8741  -50.7696 H         1 UNK         0.0800 
    133 H133        2.9289  -14.6605  -50.4712 H         1 UNK         0.0800 
    134 H134        3.3353  -16.2640  -52.6863 H         1 UNK         0.0800 
    135 H135        3.5240  -16.9972  -51.1079 H         1 UNK         0.0800 
    136 H136        1.6719  -17.4914  -54.3438 H         1 UNK         0.1150 
    137 H137        1.8532  -21.7633  -54.0979 H         1 UNK         0.1150 
    138 H138        3.4854  -19.3515  -50.9460 H         1 UNK         0.1150 
    139 H139        2.3410  -22.7616  -51.8859 H         1 UNK         0.0800 
    140 H140        4.0116  -22.4033  -52.2424 H         1 UNK         0.0800 
    141 H141        1.1441  -21.3468  -50.1086 H         1 UNK         0.0800 
    142 H142        1.9517  -20.3910  -48.8969 H         1 UNK         0.0800 
    143 H143        1.2163  -23.3556  -48.6446 H         1 UNK         0.0600 
    144 H144        3.1174  -21.9570  -47.1411 H         1 UNK         0.3000 
    145 H145        3.4912  -24.2958  -44.7210 H         1 UNK         0.0600 
    146 H146        5.2711  -22.5875  -44.5972 H         1 UNK         0.0600 
    147 H147        4.9227  -22.9495  -46.2763 H         1 UNK         0.0600 
    148 H148        4.3245  -21.4559  -45.5513 H         1 UNK         0.0600 
    149 H149        2.8529  -23.2644  -42.8581 H         1 UNK         0.3000 
    150 H150        0.8305  -21.7768  -41.8329 H         1 UNK         0.0600 
    151 H151        3.0023  -22.4729  -40.9536 H         1 UNK         0.0600 
    152 H152        2.4946  -21.0599  -40.0519 H         1 UNK         0.0600 
    153 H153        3.7226  -20.9084  -41.3065 H         1 UNK         0.0600 
    154 H154        0.1958  -19.6877  -41.7360 H         1 UNK         0.3000 
    155 H155        1.5982  -16.5801  -41.5518 H         1 UNK         0.0600 
    156 H156        0.5954  -17.5303  -44.2621 H         1 UNK         0.0600 
    157 H157        0.1556  -15.9607  -43.6279 H         1 UNK         0.0600 
    158 H158        1.8455  -16.3492  -43.9235 H         1 UNK         0.0600 
    159 H159       -1.0882  -17.4443  -42.1832 H         1 UNK         0.3000 
    160 H160       -1.9375  -18.1963  -38.7761 H         1 UNK         0.0600 
    161 H161       -3.6865  -16.5029  -39.2709 H         1 UNK         0.0600 
    162 H162       -2.7535  -15.9077  -40.6434 H         1 UNK         0.0600 
    163 H163       -2.1377  -15.7155  -39.0066 H         1 UNK         0.0600 
    164 H164       -3.6359  -18.2640  -40.9749 H         1 UNK         0.3000 
    165 H165       -3.0481  -21.5638  -42.1412 H         1 UNK         0.0600 
    166 H166       -5.4048  -21.8042  -41.4075 H         1 UNK         0.0600 
    167 H167       -4.3056  -21.8329  -40.0373 H         1 UNK         0.0600 
    168 H168       -5.2488  -20.3888  -40.3678 H         1 UNK         0.0600 
    169 H169       -3.8157  -20.3864  -43.7888 H         1 UNK         0.3000 
    170 H170       -4.2359  -18.6068  -45.0238 H         1 UNK         0.0600 
    171 H171       -6.5388  -19.5619  -44.9285 H         1 UNK         0.0600 
    172 H172       -7.1434  -18.0619  -44.2348 H         1 UNK         0.0600 
    173 H173       -6.4975  -18.0845  -45.8768 H         1 UNK         0.0600 
    174 H174       -5.5491  -16.1810  -44.5993 H         1 UNK         0.3000 
    175 H175       -4.2214  -14.2158  -44.7389 H         1 UNK         0.0600 
    176 H176       -4.9252  -13.0461  -42.6464 H         1 UNK         0.0600 
    177 H177       -4.4374  -14.4395  -41.6826 H         1 UNK         0.0600 
    178 H178       -5.7778  -14.5697  -42.8113 H         1 UNK         0.0600 
    179 H179       -2.3910  -13.5111  -42.6232 H         1 UNK         0.3000 
    180 H180       -0.6016  -11.8575  -44.1576 H         1 UNK         0.0600 
    181 H181        0.2147  -14.1588  -42.2882 H         1 UNK         0.0600 
    182 H182       -0.7514  -12.7520  -41.8666 H         1 UNK         0.0600 
    183 H183        0.9368  -12.5576  -42.2672 H         1 UNK         0.0600 
    184 H184        0.7284  -14.0759  -45.4052 H         1 UNK         0.3000 
    185 H185        3.2869  -12.0105  -46.6229 H         1 UNK         0.0600 
    186 H186        3.8880  -14.2632  -44.6302 H         1 UNK         0.0600 
    187 H187        4.9873  -13.6575  -45.8706 H         1 UNK         0.0600 
    188 H188        4.5139  -12.6218  -44.5343 H         1 UNK         0.0600 
    189 H189        2.8988  -14.8509  -46.7924 H         1 UNK         0.3000 
    190 H190        0.6867  -20.9328  -46.1125 H         1 UNK         0.3000 
    191 H191       -2.0799  -20.3791  -46.8944 H         1 UNK         0.0600 
    192 H192       -0.7024  -18.6442  -45.8104 H         1 UNK         0.0600 
    193 H193       -2.0698  -19.0310  -44.7961 H         1 UNK         0.0600 
    194 H194       -0.4924  -19.6555  -44.3778 H         1 UNK         0.0600 
    195 H195       -0.4011  -22.7359  -44.9149 H         1 UNK         0.3000 
    196 H196       -2.8360  -23.5740  -43.4507 H         1 UNK         0.0600 
    197 H197       -1.2750  -25.2300  -42.4190 H         1 UNK         0.0600 
    198 H198       -0.7096  -23.5826  -42.2067 H         1 UNK         0.0600 
    199 H199        0.0432  -24.6255  -43.4143 H         1 UNK         0.0600 
    200 H200       -0.6355  -24.6516  -46.0503 H         1 UNK         0.3000 
    201 H201       -2.0317  -27.0720  -46.6979 H         1 UNK         0.0600 
    202 H202        0.3626  -26.6186  -47.2727 H         1 UNK         0.0600 
    203 H203       -0.1368  -25.3347  -48.3728 H         1 UNK         0.0600 
    204 H204       -0.5692  -27.0050  -48.7118 H         1 UNK         0.0600 
    205 H205       -2.7327  -23.7750  -47.3628 H         1 UNK         0.3000 
    206 H206       -4.1918  -22.6168  -48.5388 H         1 UNK         0.0600 
    207 H207       -5.9257  -24.1821  -47.6432 H         1 UNK         0.0600 
    208 H208       -6.3484  -23.5757  -49.2366 H         1 UNK         0.0600 
    209 H209       -5.7345  -25.2121  -49.0617 H         1 UNK         0.0600 
    210 H210       -1.8543  -23.2432  -49.6929 H         1 UNK         0.3000 
    211 H211       -2.3467  -23.7647  -52.5953 H         1 UNK         0.0600 
    212 H212        0.2269  -23.8187  -50.9277 H         1 UNK         0.0600 
    213 H213        0.1088  -24.1807  -52.6461 H         1 UNK         0.0600 
    214 H214       -0.6729  -25.2316  -51.4745 H         1 UNK         0.0600 
    215 H215       -1.7383  -21.2788  -50.3027 H         1 UNK         0.3000 
    216 H216       -0.0805  -19.4928  -51.7329 H         1 UNK         0.0600 
    217 H217       -2.1204  -19.0142  -49.4856 H         1 UNK         0.0600 
    218 H218       -0.8736  -17.8702  -49.9594 H         1 UNK         0.0600 
    219 H219       -0.4164  -19.4088  -49.2717 H         1 UNK         0.0600 
    220 H220       -0.7750  -17.1635  -52.1382 H         1 UNK         0.3000 
    221 H221       -2.4134  -16.9583  -54.3967 H         1 UNK         0.0600 
    222 H222       -1.4467  -14.7873  -52.4669 H         1 UNK         0.0600 
    223 H223       -0.5893  -15.3781  -53.8916 H         1 UNK         0.0600 
    224 H224       -2.0990  -14.4990  -54.0762 H         1 UNK         0.0600 
    225 H225       -4.4957  -16.8193  -54.6850 H         1 UNK         0.3000 
    226 H226       -6.6480  -16.5430  -54.5359 H         1 UNK         0.0600 
    227 H227       -6.3114  -14.3224  -53.4132 H         1 UNK         0.0600 
    228 H228       -7.7873  -15.1267  -52.9047 H         1 UNK         0.0600 
    229 H229       -6.3941  -15.1166  -51.8396 H         1 UNK         0.0600 
    230 H230       -4.9001  -18.4182  -52.3337 H         1 UNK         0.3000 
    231 H231       -7.2689  -19.8585  -51.2895 H         1 UNK         0.0600 
    232 H232       -4.3064  -20.5134  -50.9065 H         1 UNK         0.0600 
    233 H233       -5.6799  -21.1853  -50.0453 H         1 UNK         0.0600 
    234 H234       -5.2474  -19.4989  -49.8138 H         1 UNK         0.0600 
    235 H235       -4.5656  -20.1873  -53.6184 H         1 UNK         0.3000 
    236 H236       -6.2086  -22.1001  -55.1815 H         1 UNK         0.0600 
    237 H237       -3.2700  -22.5941  -54.4797 H         1 UNK         0.0600 
    238 H238       -4.6439  -23.5552  -53.9360 H         1 UNK         0.0600 
    239 H239       -4.2157  -23.5166  -55.6384 H         1 UNK         0.0600 
    240 H240       -2.9598  -20.4893  -55.3127 H         1 UNK         0.3000 
    241 H241       -3.2963  -19.9679  -58.1346 H         1 UNK         0.0600 
    242 H242       -2.8909  -17.7210  -59.1374 H         1 UNK         0.3800 
    243 H243       -3.7304  -16.4073  -58.3664 H         1 UNK         0.3800 
    244 H244       -1.1028  -20.5715  -57.3811 H         1 UNK         0.0800 
    245 H245       -1.0265  -18.9562  -58.0192 H         1 UNK         0.0800 
    246 H246        1.5655  -19.2748  -56.4833 H         1 UNK         0.0800 
    247 H247        0.8551  -20.7982  -55.9886 H         1 UNK         0.0800 
@<TRIPOS>BOND
     1    1    2 1    
     2    1  127 1    
     3    1  128 1    
     4    1  129 1    
     5    2    3 2    
     6    2    4 am   BACKBONE|DICT|INTERRES
     7    4    5 1    
     8    4  130 1    
     9    5    6 1    
    10    5   65 1    
    11    5  131 1    
    12    6    7 1    
    13    6  132 1    
    14    6  133 1    
    15    7    8 1    
    16    8    9 1    
    17    8  134 1    
    18    8  135 1    
    19    9   10 ar   
    20    9   14 ar   
    21   10   11 ar   
    22   10  136 1    
    23   11   12 ar   
    24   11  126 1    
    25   12   13 ar   
    26   12  137 1    
    27   13   14 ar   
    28   13   15 1    
    29   14  138 1    
    30   15   16 1    
    31   15  139 1    
    32   15  140 1    
    33   16   17 1    
    34   17   18 1    
    35   17  141 1    
    36   17  142 1    
    37   18   19 1    
    38   18   67 1    
    39   18  143 1    
    40   19   20 am   BACKBONE|DICT|INTERRES
    41   19  144 1    
    42   20   21 2    
    43   20   22 1    
    44   22   23 1    
    45   22   24 1    
    46   22  145 1    
    47   23  146 1    
    48   23  147 1    
    49   23  148 1    
    50   24   25 am   BACKBONE|DICT|INTERRES
    51   24  149 1    
    52   25   26 2    
    53   25   27 1    
    54   27   28 1    
    55   27   29 1    
    56   27  150 1    
    57   28  151 1    
    58   28  152 1    
    59   28  153 1    
    60   29   30 am   BACKBONE|DICT|INTERRES
    61   29  154 1    
    62   30   31 2    
    63   30   32 1    
    64   32   33 1    
    65   32   34 1    
    66   32  155 1    
    67   33  156 1    
    68   33  157 1    
    69   33  158 1    
    70   34   35 am   BACKBONE|DICT|INTERRES
    71   34  159 1    
    72   35   36 2    
    73   35   37 1    
    74   37   38 1    
    75   37   39 1    
    76   37  160 1    
    77   38  161 1    
    78   38  162 1    
    79   38  163 1    
    80   39   40 am   BACKBONE|DICT|INTERRES
    81   39  164 1    
    82   40   41 2    
    83   40   42 1    
    84   42   43 1    
    85   42   44 1    
    86   42  165 1    
    87   43  166 1    
    88   43  167 1    
    89   43  168 1    
    90   44   45 am   BACKBONE|DICT|INTERRES
    91   44  169 1    
    92   45   46 2    
    93   45   47 1    
    94   47   48 1    
    95   47   49 1    
    96   47  170 1    
    97   48  171 1    
    98   48  172 1    
    99   48  173 1    
   100   49   50 am   BACKBONE|DICT|INTERRES
   101   49  174 1    
   102   50   51 2    
   103   50   52 1    
   104   52   53 1    
   105   52   54 1    
   106   52  175 1    
   107   53  176 1    
   108   53  177 1    
   109   53  178 1    
   110   54   55 am   BACKBONE|DICT|INTERRES
   111   54  179 1    
   112   55   56 2    
   113   55   57 1    
   114   57   58 1    
   115   57   59 1    
   116   57  180 1    
   117   58  181 1    
   118   58  182 1    
   119   58  183 1    
   120   59   60 am   BACKBONE|DICT|INTERRES
   121   59  184 1    
   122   60   61 2    
   123   60   62 1    
   124   62   63 1    
   125   62   64 1    
   126   62  185 1    
   127   63  186 1    
   128   63  187 1    
   129   63  188 1    
   130   64   65 am   BACKBONE|DICT|INTERRES
   131   64  189 1    
   132   65   66 2    
   133   67   68 2    
   134   67   69 am   BACKBONE|DICT|INTERRES
   135   69   70 1    
   136   69  190 1    
   137   70   71 1    
   138   70   72 1    
   139   70  191 1    
   140   71  192 1    
   141   71  193 1    
   142   71  194 1    
   143   72   73 2    
   144   72   74 am   BACKBONE|DICT|INTERRES
   145   74   75 1    
   146   74  195 1    
   147   75   76 1    
   148   75   77 1    
   149   75  196 1    
   150   76  197 1    
   151   76  198 1    
   152   76  199 1    
   153   77   78 2    
   154   77   79 am   BACKBONE|DICT|INTERRES
   155   79   80 1    
   156   79  200 1    
   157   80   81 1    
   158   80   82 1    
   159   80  201 1    
   160   81  202 1    
   161   81  203 1    
   162   81  204 1    
   163   82   83 2    
   164   82   84 am   BACKBONE|DICT|INTERRES
   165   84   85 1    
   166   84  205 1    
   167   85   86 1    
   168   85   87 1    
   169   85  206 1    
   170   86  207 1    
   171   86  208 1    
   172   86  209 1    
   173   87   88 2    
   174   87   89 am   BACKBONE|DICT|INTERRES
   175   89   90 1    
   176   89  210 1    
   177   90   91 1    
   178   90   92 1    
   179   90  211 1    
   180   91  212 1    
   181   91  213 1    
   182   91  214 1    
   183   92   93 2    
   184   92   94 am   BACKBONE|DICT|INTERRES
   185   94   95 1    
   186   94  215 1    
   187   95   96 1    
   188   95   97 1    
   189   95  216 1    
   190   96  217 1    
   191   96  218 1    
   192   96  219 1    
   193   97   98 2    
   194   97   99 am   BACKBONE|DICT|INTERRES
   195   99  100 1    
   196   99  220 1    
   197  100  101 1    
   198  100  102 1    
   199  100  221 1    
   200  101  222 1    
   201  101  223 1    
   202  101  224 1    
   203  102  103 2    
   204  102  104 am   BACKBONE|DICT|INTERRES
   205  104  105 1    
   206  104  225 1    
   207  105  106 1    
   208  105  107 1    
   209  105  226 1    
   210  106  227 1    
   211  106  228 1    
   212  106  229 1    
   213  107  108 2    
   214  107  109 am   BACKBONE|DICT|INTERRES
   215  109  110 1    
   216  109  230 1    
   217  110  111 1    
   218  110  112 1    
   219  110  231 1    
   220  111  232 1    
   221  111  233 1    
   222  111  234 1    
   223  112  113 2    
   224  112  114 am   BACKBONE|DICT|INTERRES
   225  114  115 1    
   226  114  235 1    
   227  115  116 1    
   228  115  117 1    
   229  115  236 1    
   230  116  237 1    
   231  116  238 1    
   232  116  239 1    
   233  117  118 2    
   234  117  119 am   BACKBONE|DICT|INTERRES
   235  119  120 1    
   236  119  240 1    
   237  120  121 1    
   238  120  124 1    
   239  120  241 1    
   240  121  122 am   BACKBONE|DICT|INTERRES
   241  121  123 2    
   242  122  242 1    
   243  122  243 1    
   244  124  125 1    
   245  124  244 1    
   246  124  245 1    
   247  125  126 1    
   248  126  246 1    
   249  126  247 1    
@<TRIPOS>SUBSTRUCTURE
     1 UNK         1 GROUP             0       ****    0 ROOT    
