@<TRIPOS>MOLECULE
3R540
247   249    1
SMALL
USER_CHARGES


@<TRIPOS>ATOM
      1 CA         -0.0391  -12.0431  -48.5916 C.3       0 UNK        -0.1800 
      2 C           1.3323  -12.3653  -48.0180 C.2       0 UNK         0.5000 
      3 O           1.4222  -12.8336  -46.8838 O.2       0 UNK        -0.5000 
      4 N           2.3956  -12.1262  -48.7965 N.am      1 UNK        -0.5000 
      5 CA          3.8113  -12.3602  -48.4748 C.3       1 UNK         0.1400 
      6 C6          4.1825  -13.8503  -48.2187 C.3       23 UNK        -0.0398 
      7 S7          3.5598  -15.0253  -49.4717 S.3       23 UNK        -0.2404 
      8 C8          2.3765  -15.9399  -48.4356 C.3       23 UNK        -0.0205 
      9 C9          1.6655  -17.0514  -49.1841 C.ar      23 UNK        -0.0193 
     10 C10         0.4427  -16.8078  -49.8145 C.ar      23 UNK        -0.1150 
     11 C11        -0.2567  -17.8508  -50.4282 C.ar      23 UNK        -0.0193 
     12 C12         0.2692  -19.1460  -50.3915 C.ar      23 UNK        -0.1150 
     13 C13         1.4987  -19.4005  -49.7756 C.ar      23 UNK        -0.0193 
     14 C14         2.2010  -18.3407  -49.1914 C.ar      23 UNK        -0.1150 
     15 C15         2.0480  -20.8247  -49.7517 C.3       23 UNK        -0.0205 
     16 S16         2.8397  -21.3183  -48.1771 S.3       23 UNK        -0.2404 
     17 C17         1.6158  -20.8274  -46.9128 C.3       23 UNK        -0.0398 
     18 CA          0.6063  -21.9421  -46.5588 C.3       11 UNK         0.1400 
     19 N           0.0411  -21.7390  -45.2247 N.am      11 UNK        -0.5000 
     20 C          -0.7685  -22.5936  -44.5862 C.2       10 UNK         0.5000 
     21 O          -1.0909  -23.6963  -45.0265 O.2       10 UNK        -0.5000 
     22 CA         -1.3570  -22.1052  -43.2526 C.3       10 UNK         0.1400 
     23 CB         -0.3630  -22.3204  -42.1016 C.3       10 UNK        -0.1800 
     24 N          -1.7413  -20.6946  -43.3161 N.am      10 UNK        -0.5000 
     25 C          -2.7742  -20.2274  -44.0314 C.2       9 UNK         0.5000 
     26 O          -3.5327  -20.9435  -44.6854 O.2       9 UNK        -0.5000 
     27 CA         -2.9660  -18.6999  -44.0481 C.3       9 UNK         0.1400 
     28 CB         -3.6894  -18.2281  -42.7780 C.3       9 UNK        -0.1800 
     29 N          -1.7041  -17.9706  -44.1892 N.am      9 UNK        -0.5000 
     30 C          -0.9333  -18.0049  -45.2849 C.2       8 UNK         0.5000 
     31 O          -1.2032  -18.6585  -46.2901 O.2       8 UNK        -0.5000 
     32 CA          0.3819  -17.2096  -45.2377 C.3       8 UNK         0.1400 
     33 CB          0.1290  -15.7378  -45.5900 C.3       8 UNK        -0.1800 
     34 N           1.0885  -17.2792  -43.9570 N.am      8 UNK        -0.5000 
     35 C           1.4796  -18.4024  -43.3352 C.2       7 UNK         0.5000 
     36 O           1.1656  -19.5353  -43.7055 O.2       7 UNK        -0.5000 
     37 CA          2.3979  -18.2065  -42.1106 C.3       7 UNK         0.1400 
     38 CB          3.0351  -19.5186  -41.6093 C.3       7 UNK        -0.1800 
     39 N           3.4178  -17.1834  -42.3637 N.am      7 UNK        -0.5000 
     40 C           4.3584  -17.1865  -43.3222 C.2       6 UNK         0.5000 
     41 O           4.5997  -18.1506  -44.0489 O.2       6 UNK        -0.5000 
     42 CA          5.1354  -15.8742  -43.5419 C.3       6 UNK         0.1400 
     43 CB          4.7093  -15.2326  -44.8712 C.3       6 UNK        -0.1800 
     44 N           4.9143  -14.9066  -42.4657 N.am      6 UNK        -0.5000 
     45 C           5.6765  -14.7999  -41.3688 C.2       5 UNK         0.5000 
     46 O           6.7049  -15.4512  -41.1836 O.2       5 UNK        -0.5000 
     47 CA          5.1966  -13.8190  -40.2812 C.3       5 UNK         0.1400 
     48 CB          5.9000  -12.4613  -40.4225 C.3       5 UNK        -0.1800 
     49 N           3.7436  -13.6243  -40.2945 N.am      5 UNK        -0.5000 
     50 C           2.8631  -14.5450  -39.8729 C.2       4 UNK         0.5000 
     51 O           3.1920  -15.6387  -39.4145 O.2       4 UNK        -0.5000 
     52 CA          1.3645  -14.2207  -40.0211 C.3       4 UNK         0.1400 
     53 CB          0.8138  -13.6190  -38.7198 C.3       4 UNK        -0.1800 
     54 N           1.0573  -13.3190  -41.1316 N.am      4 UNK        -0.5000 
     55 C           1.2698  -13.5814  -42.4274 C.2       3 UNK         0.5000 
     56 O           1.7744  -14.6310  -42.8349 O.2       3 UNK        -0.5000 
     57 CA          0.8743  -12.4894  -43.4425 C.3       3 UNK         0.1400 
     58 CB          0.1431  -11.2761  -42.8249 C.3       3 UNK        -0.1800 
     59 N           2.0203  -12.0407  -44.2352 N.am      3 UNK        -0.5000 
     60 C           3.1738  -11.5215  -43.7821 C.2       2 UNK         0.5000 
     61 O           3.4216  -11.3679  -42.5850 O.2       2 UNK        -0.5000 
     62 CA          4.2283  -11.1245  -44.8372 C.3       2 UNK         0.1400 
     63 CB          5.6723  -11.3256  -44.3390 C.3       2 UNK        -0.1800 
     64 N           4.0152  -11.8645  -46.0793 N.am      2 UNK        -0.5000 
     65 C           4.2724  -11.4375  -47.3214 C.2       1 UNK         0.5000 
     66 O           4.8130  -10.3612  -47.5797 O.2       1 UNK        -0.5000 
     67 C          -0.4990  -22.0730  -47.6272 C.2       11 UNK         0.5000 
     68 O          -0.4724  -23.0186  -48.4140 O.2       11 UNK        -0.5000 
     69 N          -1.4765  -21.1549  -47.6048 N.am      12 UNK        -0.5000 
     70 CA         -2.6501  -21.1709  -48.4756 C.3       12 UNK         0.1400 
     71 CB         -3.4747  -19.8931  -48.2652 C.3       12 UNK        -0.1800 
     72 C          -3.5185  -22.4230  -48.2712 C.2       12 UNK         0.5000 
     73 O          -3.9263  -23.0340  -49.2569 O.2       12 UNK        -0.5000 
     74 N          -3.7489  -22.8131  -47.0088 N.am      13 UNK        -0.5000 
     75 CA         -4.4716  -24.0334  -46.6428 C.3       13 UNK         0.1400 
     76 CB         -4.6938  -24.0742  -45.1240 C.3       13 UNK        -0.1800 
     77 C          -3.7691  -25.3135  -47.1336 C.2       13 UNK         0.5000 
     78 O          -4.4314  -26.1903  -47.6895 O.2       13 UNK        -0.5000 
     79 N          -2.4384  -25.3764  -46.9777 N.am      14 UNK        -0.5000 
     80 CA         -1.5874  -26.4551  -47.4907 C.3       14 UNK         0.1400 
     81 CB         -0.1616  -26.2873  -46.9445 C.3       14 UNK        -0.1800 
     82 C          -1.5776  -26.5386  -49.0307 C.2       14 UNK         0.5000 
     83 O          -1.4812  -27.6362  -49.5799 O.2       14 UNK        -0.5000 
     84 N          -1.7280  -25.3857  -49.6954 N.am      15 UNK        -0.5000 
     85 CA         -1.8839  -25.2435  -51.1443 C.3       15 UNK         0.1400 
     86 CB         -1.3802  -23.8506  -51.5575 C.3       15 UNK        -0.1800 
     87 C          -3.3270  -25.5012  -51.6415 C.2       15 UNK         0.5000 
     88 O          -3.5949  -25.2957  -52.8252 O.2       15 UNK        -0.5000 
     89 N          -4.2170  -25.9607  -50.7480 N.am      16 UNK        -0.5000 
     90 CA         -5.6174  -26.3349  -50.9722 C.3       16 UNK         0.1400 
     91 CB         -5.7540  -27.4350  -52.0466 C.3       16 UNK        -0.1800 
     92 C          -6.5653  -25.1371  -51.1884 C.2       16 UNK         0.5000 
     93 O          -7.6171  -25.2961  -51.8104 O.2       16 UNK        -0.5000 
     94 N          -6.2089  -23.9827  -50.6092 N.am      17 UNK        -0.5000 
     95 CA         -6.9788  -22.7398  -50.5439 C.3       17 UNK         0.1400 
     96 CB         -8.2677  -22.9406  -49.7141 C.3       17 UNK        -0.1800 
     97 C          -7.2065  -22.0887  -51.9243 C.2       17 UNK         0.5000 
     98 O          -6.3526  -22.2045  -52.8061 O.2       17 UNK        -0.5000 
     99 N          -8.3141  -21.3480  -52.0592 N.am      18 UNK        -0.5000 
    100 CA        -8.6936  -20.5943  -53.2534 C.3       18 UNK         0.1400 
    101 CB        -9.9334  -19.7475  -52.9269 C.3       18 UNK        -0.1800 
    102 C         -8.9648  -21.4974  -54.4711 C.2       18 UNK         0.5000 
    103 O         -9.3480  -22.6584  -54.3095 O.2       18 UNK        -0.5000 
    104 N         -8.7624  -20.9354  -55.6696 N.am      19 UNK        -0.5000 
    105 CA        -8.8923  -21.5352  -57.0060 C.3       19 UNK         0.1400 
    106 CB       -10.3008  -22.1097  -57.2529 C.3       19 UNK        -0.1800 
    107 C         -7.7925  -22.5631  -57.3351 C.2       19 UNK         0.5000 
    108 O         -7.2574  -22.5343  -58.4442 O.2       19 UNK        -0.5000 
    109 N         -7.4396  -23.4196  -56.3682 N.am      20 UNK        -0.5000 
    110 CA        -6.2662  -24.2932  -56.4146 C.3       20 UNK         0.1400 
    111 CB        -6.3593  -25.3246  -55.2814 C.3       20 UNK        -0.1800 
    112 C         -4.9549  -23.4906  -56.3090 C.2       20 UNK         0.5000 
    113 O         -3.9724  -23.8303  -56.9697 O.2       20 UNK        -0.5000 
    114 N         -4.9861  -22.4223  -55.5069 N.am      21 UNK        -0.5000 
    115 CA        -3.9197  -21.4552  -55.2982 C.3       21 UNK         0.1400 
    116 CB        -2.9104  -22.0136  -54.2745 C.3       21 UNK        -0.1800 
    117 C         -4.5522  -20.1214  -54.8587 C.2       21 UNK         0.5000 
    118 O         -5.7447  -19.8959  -55.0834 O.2       21 UNK        -0.5000 
    119 N         -3.7448  -19.2592  -54.2346 N.am      22 UNK        -0.5000 
    120 CA        -4.1538  -17.9852  -53.6215 C.3       22 UNK         0.1400 
    121 C         -4.9174  -18.1131  -52.2681 C.2       22 UNK         0.5000 
    122 N         -5.1334  -19.3040  -51.7248 N.am      22 UNK        -0.7600 
    123 O         -5.3343  -17.1074  -51.7010 O.2       22 UNK        -0.5000 
    124 C124       -2.9666  -16.9853  -53.5324 C.3       23 UNK        -0.0398 
    125 S125       -1.3919  -17.6980  -52.9336 S.3       23 UNK        -0.2404 
    126 C126       -1.5796  -17.5807  -51.1283 C.3       23 UNK        -0.0205 
    127 H127        0.0277  -11.6398  -49.6022 H         1 UNK         0.0600 
    128 H128       -0.5445  -11.3099  -47.9633 H         1 UNK         0.0600 
    129 H129       -0.6498  -12.9453  -48.6240 H         1 UNK         0.0600 
    130 H130        2.2380  -11.7260  -49.7106 H         1 UNK         0.3000 
    131 H131        4.3648  -12.0455  -49.3610 H         1 UNK         0.0600 
    132 H132        5.2675  -13.9579  -48.1734 H         1 UNK         0.0800 
    133 H133        3.8142  -14.1758  -47.2482 H         1 UNK         0.0800 
    134 H134        2.8964  -16.3573  -47.5716 H         1 UNK         0.0800 
    135 H135        1.6375  -15.2453  -48.0397 H         1 UNK         0.0800 
    136 H136        0.0327  -15.8076  -49.8177 H         1 UNK         0.1150 
    137 H137       -0.2786  -19.9541  -50.8559 H         1 UNK         0.1150 
    138 H138        3.1507  -18.5241  -48.7089 H         1 UNK         0.1150 
    139 H139        1.2564  -21.5401  -49.9780 H         1 UNK         0.0800 
    140 H140        2.7814  -20.9235  -50.5526 H         1 UNK         0.0800 
    141 H141        1.1067  -19.9036  -47.1863 H         1 UNK         0.0800 
    142 H142        2.2001  -20.5748  -46.0268 H         1 UNK         0.0800 
    143 H143        1.1431  -22.8925  -46.5234 H         1 UNK         0.0600 
    144 H144        0.2866  -20.8712  -44.7553 H         1 UNK         0.3000 
    145 H145       -2.2517  -22.6953  -43.0434 H         1 UNK         0.0600 
    146 H146       -0.7897  -22.0095  -41.1479 H         1 UNK         0.0600 
    147 H147       -0.0970  -23.3743  -42.0108 H         1 UNK         0.0600 
    148 H148        0.5609  -21.7625  -42.2545 H         1 UNK         0.0600 
    149 H149       -1.1263  -20.0351  -42.8623 H         1 UNK         0.3000 
    150 H150       -3.5942  -18.4555  -44.9075 H         1 UNK         0.0600 
    151 H151       -4.6417  -18.7462  -42.6567 H         1 UNK         0.0600 
    152 H152       -3.9052  -17.1604  -42.8211 H         1 UNK         0.0600 
    153 H153       -3.0971  -18.4153  -41.8815 H         1 UNK         0.0600 
    154 H154       -1.4000  -17.4169  -43.4022 H         1 UNK         0.3000 
    155 H155        1.0465  -17.6311  -45.9944 H         1 UNK         0.0600 
    156 H156        1.0622  -15.1756  -45.6168 H         1 UNK         0.0600 
    157 H157       -0.5276  -15.2580  -44.8639 H         1 UNK         0.0600 
    158 H158       -0.3394  -15.6425  -46.5705 H         1 UNK         0.0600 
    159 H159        1.3911  -16.3897  -43.5690 H         1 UNK         0.3000 
    160 H160        1.7659  -17.8188  -41.3106 H         1 UNK         0.0600 
    161 H161        3.6215  -20.0103  -42.3860 H         1 UNK         0.0600 
    162 H162        2.2692  -20.2231  -41.2845 H         1 UNK         0.0600 
    163 H163        3.6905  -19.3371  -40.7575 H         1 UNK         0.0600 
    164 H164        3.3102  -16.3307  -41.8335 H         1 UNK         0.3000 
    165 H165        6.1959  -16.1256  -43.6092 H         1 UNK         0.0600 
    166 H166        3.6633  -14.9241  -44.8522 H         1 UNK         0.0600 
    167 H167        5.3193  -14.3600  -45.0995 H         1 UNK         0.0600 
    168 H168        4.8305  -15.9316  -45.7000 H         1 UNK         0.0600 
    169 H169        4.0697  -14.3534  -42.5242 H         1 UNK         0.3000 
    170 H170        5.4759  -14.2404  -39.3130 H         1 UNK         0.0600 
    171 H171        6.9822  -12.5740  -40.3462 H         1 UNK         0.0600 
    172 H172        5.6887  -11.9950  -41.3838 H         1 UNK         0.0600 
    173 H173        5.5889  -11.7709  -39.6384 H         1 UNK         0.0600 
    174 H174        3.4022  -12.7617  -40.7009 H         1 UNK         0.3000 
    175 H175        0.8450  -15.1630  -40.2080 H         1 UNK         0.0600 
    176 H176        1.2760  -12.6570  -38.4944 H         1 UNK         0.0600 
    177 H177       -0.2643  -13.4688  -38.7792 H         1 UNK         0.0600 
    178 H178        1.0019  -14.2802  -37.8727 H         1 UNK         0.0600 
    179 H179        0.6625  -12.4229  -40.8860 H         1 UNK         0.3000 
    180 H180        0.1867  -12.9645  -44.1430 H         1 UNK         0.0600 
    181 H181        0.7699  -10.7296  -42.1194 H         1 UNK         0.0600 
    182 H182       -0.7637  -11.5836  -42.3025 H         1 UNK         0.0600 
    183 H183       -0.1620  -10.5744  -43.6013 H         1 UNK         0.0600 
    184 H184        1.8948  -12.1601  -45.2377 H         1 UNK         0.3000 
    185 H185        4.0765  -10.0613  -45.0332 H         1 UNK         0.0600 
    186 H186        6.3986  -11.0785  -45.1132 H         1 UNK         0.0600 
    187 H187        5.8822  -10.6804  -43.4855 H         1 UNK         0.0600 
    188 H188        5.8525  -12.3532  -44.0243 H         1 UNK         0.0600 
    189 H189        3.4930  -12.7248  -45.9825 H         1 UNK         0.3000 
    190 H190       -1.4059  -20.3683  -46.9630 H         1 UNK         0.3000 
    191 H191       -2.2949  -21.1770  -49.5080 H         1 UNK         0.0600 
    192 H192       -2.8857  -19.0037  -48.4891 H         1 UNK         0.0600 
    193 H193       -4.3478  -19.8788  -48.9177 H         1 UNK         0.0600 
    194 H194       -3.8292  -19.8069  -47.2378 H         1 UNK         0.0600 
    195 H195       -3.4170  -22.2326  -46.2452 H         1 UNK         0.3000 
    196 H196       -5.4509  -23.9913  -47.1246 H         1 UNK         0.0600 
    197 H197       -5.2540  -24.9643  -44.8352 H         1 UNK         0.0600 
    198 H198       -5.2630  -23.2080  -44.7862 H         1 UNK         0.0600 
    199 H199       -3.7510  -24.0880  -44.5777 H         1 UNK         0.0600 
    200 H200       -1.9685  -24.6320  -46.4690 H         1 UNK         0.3000 
    201 H201       -1.9858  -27.3992  -47.1136 H         1 UNK         0.0600 
    202 H202       -0.1529  -26.3042  -45.8545 H         1 UNK         0.0600 
    203 H203        0.2857  -25.3469  -47.2671 H         1 UNK         0.0600 
    204 H204        0.4863  -27.0945  -47.2880 H         1 UNK         0.0600 
    205 H205       -1.7388  -24.5238  -49.1608 H         1 UNK         0.3000 
    206 H206       -1.2454  -25.9827  -51.6318 H         1 UNK         0.0600 
    207 H207       -0.3785  -23.6600  -51.1717 H         1 UNK         0.0600 
    208 H208       -1.3261  -23.7644  -52.6421 H         1 UNK         0.0600 
    209 H209       -2.0356  -23.0595  -51.1936 H         1 UNK         0.0600 
    210 H210       -3.9072  -26.0546  -49.7883 H         1 UNK         0.3000 
    211 H211       -5.9417  -26.7803  -50.0308 H         1 UNK         0.0600 
    212 H212       -5.5202  -27.0631  -53.0433 H         1 UNK         0.0600 
    213 H213       -6.7713  -27.8265  -52.0783 H         1 UNK         0.0600 
    214 H214       -5.0917  -28.2749  -51.8373 H         1 UNK         0.0600 
    215 H215       -5.2918  -23.9256  -50.1727 H         1 UNK         0.3000 
    216 H216       -6.3506  -22.0383  -49.9941 H         1 UNK         0.0600 
    217 H217       -8.0506  -23.4452  -48.7724 H         1 UNK         0.0600 
    218 H218       -9.0061  -23.5395  -50.2485 H         1 UNK         0.0600 
    219 H219       -8.7321  -21.9875  -49.4593 H         1 UNK         0.0600 
    220 H220       -8.9717  -21.3283  -51.2946 H         1 UNK         0.3000 
    221 H221       -7.8685  -19.9214  -53.4938 H         1 UNK         0.0600 
    222 H222      -10.7857  -20.3716  -52.6550 H         1 UNK         0.0600 
    223 H223       -9.7385  -19.0642  -52.1000 H         1 UNK         0.0600 
    224 H224      -10.2312  -19.1410  -53.7832 H         1 UNK         0.0600 
    225 H225       -8.3880  -19.9958  -55.6755 H         1 UNK         0.3000 
    226 H226       -8.7579  -20.7073  -57.7040 H         1 UNK         0.0600 
    227 H227      -11.0717  -21.3675  -57.0459 H         1 UNK         0.0600 
    228 H228      -10.4148  -22.4157  -58.2935 H         1 UNK         0.0600 
    229 H229      -10.5024  -22.9858  -56.6365 H         1 UNK         0.0600 
    230 H230       -7.9571  -23.3814  -55.4952 H         1 UNK         0.3000 
    231 H231       -6.2654  -24.8253  -57.3681 H         1 UNK         0.0600 
    232 H232       -7.2656  -25.9248  -55.3617 H         1 UNK         0.0600 
    233 H233       -6.3607  -24.8427  -54.3027 H         1 UNK         0.0600 
    234 H234       -5.5095  -26.0077  -55.3076 H         1 UNK         0.0600 
    235 H235       -5.8335  -22.2168  -54.9896 H         1 UNK         0.3000 
    236 H236       -3.4104  -21.2752  -56.2468 H         1 UNK         0.0600 
    237 H237       -3.3716  -22.1500  -53.2951 H         1 UNK         0.0600 
    238 H238       -2.5270  -22.9826  -54.5938 H         1 UNK         0.0600 
    239 H239       -2.0479  -21.3580  -54.1527 H         1 UNK         0.0600 
    240 H240       -2.7783  -19.5111  -54.0850 H         1 UNK         0.3000 
    241 H241       -4.8842  -17.5327  -54.2950 H         1 UNK         0.0600 
    242 H242       -4.8565  -20.1477  -52.2008 H         1 UNK         0.3800 
    243 H243       -5.6400  -19.3502  -50.8572 H         1 UNK         0.3800 
    244 H244       -2.7671  -16.6022  -54.5339 H         1 UNK         0.0800 
    245 H245       -3.2203  -16.1031  -52.9420 H         1 UNK         0.0800 
    246 H246       -2.3228  -18.3045  -50.7923 H         1 UNK         0.0800 
    247 H247       -1.9604  -16.5937  -50.8612 H         1 UNK         0.0800 
@<TRIPOS>BOND
     1    1    2 1    
     2    1  127 1    
     3    1  128 1    
     4    1  129 1    
     5    2    3 2    
     6    2    4 am   BACKBONE|DICT|INTERRES
     7    4    5 1    
     8    4  130 1    
     9    5    6 1    
    10    5   65 1    
    11    5  131 1    
    12    6    7 1    
    13    6  132 1    
    14    6  133 1    
    15    7    8 1    
    16    8    9 1    
    17    8  134 1    
    18    8  135 1    
    19    9   10 ar   
    20    9   14 ar   
    21   10   11 ar   
    22   10  136 1    
    23   11   12 ar   
    24   11  126 1    
    25   12   13 ar   
    26   12  137 1    
    27   13   14 ar   
    28   13   15 1    
    29   14  138 1    
    30   15   16 1    
    31   15  139 1    
    32   15  140 1    
    33   16   17 1    
    34   17   18 1    
    35   17  141 1    
    36   17  142 1    
    37   18   19 1    
    38   18   67 1    
    39   18  143 1    
    40   19   20 am   BACKBONE|DICT|INTERRES
    41   19  144 1    
    42   20   21 2    
    43   20   22 1    
    44   22   23 1    
    45   22   24 1    
    46   22  145 1    
    47   23  146 1    
    48   23  147 1    
    49   23  148 1    
    50   24   25 am   BACKBONE|DICT|INTERRES
    51   24  149 1    
    52   25   26 2    
    53   25   27 1    
    54   27   28 1    
    55   27   29 1    
    56   27  150 1    
    57   28  151 1    
    58   28  152 1    
    59   28  153 1    
    60   29   30 am   BACKBONE|DICT|INTERRES
    61   29  154 1    
    62   30   31 2    
    63   30   32 1    
    64   32   33 1    
    65   32   34 1    
    66   32  155 1    
    67   33  156 1    
    68   33  157 1    
    69   33  158 1    
    70   34   35 am   BACKBONE|DICT|INTERRES
    71   34  159 1    
    72   35   36 2    
    73   35   37 1    
    74   37   38 1    
    75   37   39 1    
    76   37  160 1    
    77   38  161 1    
    78   38  162 1    
    79   38  163 1    
    80   39   40 am   BACKBONE|DICT|INTERRES
    81   39  164 1    
    82   40   41 2    
    83   40   42 1    
    84   42   43 1    
    85   42   44 1    
    86   42  165 1    
    87   43  166 1    
    88   43  167 1    
    89   43  168 1    
    90   44   45 am   BACKBONE|DICT|INTERRES
    91   44  169 1    
    92   45   46 2    
    93   45   47 1    
    94   47   48 1    
    95   47   49 1    
    96   47  170 1    
    97   48  171 1    
    98   48  172 1    
    99   48  173 1    
   100   49   50 am   BACKBONE|DICT|INTERRES
   101   49  174 1    
   102   50   51 2    
   103   50   52 1    
   104   52   53 1    
   105   52   54 1    
   106   52  175 1    
   107   53  176 1    
   108   53  177 1    
   109   53  178 1    
   110   54   55 am   BACKBONE|DICT|INTERRES
   111   54  179 1    
   112   55   56 2    
   113   55   57 1    
   114   57   58 1    
   115   57   59 1    
   116   57  180 1    
   117   58  181 1    
   118   58  182 1    
   119   58  183 1    
   120   59   60 am   BACKBONE|DICT|INTERRES
   121   59  184 1    
   122   60   61 2    
   123   60   62 1    
   124   62   63 1    
   125   62   64 1    
   126   62  185 1    
   127   63  186 1    
   128   63  187 1    
   129   63  188 1    
   130   64   65 am   BACKBONE|DICT|INTERRES
   131   64  189 1    
   132   65   66 2    
   133   67   68 2    
   134   67   69 am   BACKBONE|DICT|INTERRES
   135   69   70 1    
   136   69  190 1    
   137   70   71 1    
   138   70   72 1    
   139   70  191 1    
   140   71  192 1    
   141   71  193 1    
   142   71  194 1    
   143   72   73 2    
   144   72   74 am   BACKBONE|DICT|INTERRES
   145   74   75 1    
   146   74  195 1    
   147   75   76 1    
   148   75   77 1    
   149   75  196 1    
   150   76  197 1    
   151   76  198 1    
   152   76  199 1    
   153   77   78 2    
   154   77   79 am   BACKBONE|DICT|INTERRES
   155   79   80 1    
   156   79  200 1    
   157   80   81 1    
   158   80   82 1    
   159   80  201 1    
   160   81  202 1    
   161   81  203 1    
   162   81  204 1    
   163   82   83 2    
   164   82   84 am   BACKBONE|DICT|INTERRES
   165   84   85 1    
   166   84  205 1    
   167   85   86 1    
   168   85   87 1    
   169   85  206 1    
   170   86  207 1    
   171   86  208 1    
   172   86  209 1    
   173   87   88 2    
   174   87   89 am   BACKBONE|DICT|INTERRES
   175   89   90 1    
   176   89  210 1    
   177   90   91 1    
   178   90   92 1    
   179   90  211 1    
   180   91  212 1    
   181   91  213 1    
   182   91  214 1    
   183   92   93 2    
   184   92   94 am   BACKBONE|DICT|INTERRES
   185   94   95 1    
   186   94  215 1    
   187   95   96 1    
   188   95   97 1    
   189   95  216 1    
   190   96  217 1    
   191   96  218 1    
   192   96  219 1    
   193   97   98 2    
   194   97   99 am   BACKBONE|DICT|INTERRES
   195   99  100 1    
   196   99  220 1    
   197  100  101 1    
   198  100  102 1    
   199  100  221 1    
   200  101  222 1    
   201  101  223 1    
   202  101  224 1    
   203  102  103 2    
   204  102  104 am   BACKBONE|DICT|INTERRES
   205  104  105 1    
   206  104  225 1    
   207  105  106 1    
   208  105  107 1    
   209  105  226 1    
   210  106  227 1    
   211  106  228 1    
   212  106  229 1    
   213  107  108 2    
   214  107  109 am   BACKBONE|DICT|INTERRES
   215  109  110 1    
   216  109  230 1    
   217  110  111 1    
   218  110  112 1    
   219  110  231 1    
   220  111  232 1    
   221  111  233 1    
   222  111  234 1    
   223  112  113 2    
   224  112  114 am   BACKBONE|DICT|INTERRES
   225  114  115 1    
   226  114  235 1    
   227  115  116 1    
   228  115  117 1    
   229  115  236 1    
   230  116  237 1    
   231  116  238 1    
   232  116  239 1    
   233  117  118 2    
   234  117  119 am   BACKBONE|DICT|INTERRES
   235  119  120 1    
   236  119  240 1    
   237  120  121 1    
   238  120  124 1    
   239  120  241 1    
   240  121  122 am   BACKBONE|DICT|INTERRES
   241  121  123 2    
   242  122  242 1    
   243  122  243 1    
   244  124  125 1    
   245  124  244 1    
   246  124  245 1    
   247  125  126 1    
   248  126  246 1    
   249  126  247 1    
@<TRIPOS>SUBSTRUCTURE
     1 UNK         1 GROUP             0       ****    0 ROOT    
