@<TRIPOS>MOLECULE
3R540
247   249    1
SMALL
USER_CHARGES


@<TRIPOS>ATOM
      1 CA          4.6357   -9.3478  -51.2767 C.3       0 UNK        -0.1800 
      2 C           4.6073  -10.2326  -50.0383 C.2       0 UNK         0.5000 
      3 O           3.9782   -9.8635  -49.0479 O.2       0 UNK        -0.5000 
      4 N           5.3081  -11.3743  -50.0973 N.am      1 UNK        -0.5000 
      5 CA          5.4529  -12.4738  -49.1234 C.3       1 UNK         0.1400 
      6 C6          4.2219  -13.4177  -49.0347 C.3       23 UNK        -0.0398 
      7 S7          2.7395  -12.7465  -48.2040 S.3       23 UNK        -0.2404 
      8 C8          2.0816  -14.2223  -47.3704 C.3       23 UNK        -0.0205 
      9 C9          1.5875  -15.2779  -48.3488 C.ar      23 UNK        -0.0193 
     10 C10         0.3368  -15.1383  -48.9576 C.ar      23 UNK        -0.1150 
     11 C11        -0.1421  -16.1172  -49.8336 C.ar      23 UNK        -0.0193 
     12 C12         0.6493  -17.2332  -50.1139 C.ar      23 UNK        -0.1150 
     13 C13         1.8961  -17.3915  -49.5015 C.ar      23 UNK        -0.0193 
     14 C14         2.3608  -16.4105  -48.6206 C.ar      23 UNK        -0.1150 
     15 C15         2.7355  -18.6280  -49.7860 C.3       23 UNK        -0.0205 
     16 S16         2.4795  -19.9256  -48.5345 S.3       23 UNK        -0.2404 
     17 C17         0.7199  -20.3273  -48.7972 C.3       23 UNK        -0.0398 
     18 CA          0.3014  -21.6481  -48.1130 C.3       11 UNK         0.1400 
     19 N           0.3479  -21.5696  -46.6508 N.am      11 UNK        -0.5000 
     20 C           0.1564  -22.6015  -45.8174 C.2       10 UNK         0.5000 
     21 O          -0.0403  -23.7578  -46.1912 O.2       10 UNK        -0.5000 
     22 CA          0.1276  -22.2800  -44.3132 C.3       10 UNK         0.1400 
     23 CB          1.5473  -22.1101  -43.7512 C.3       10 UNK        -0.1800 
     24 N          -0.6688  -21.0884  -44.0211 N.am      10 UNK        -0.5000 
     25 C          -2.0000  -21.0185  -44.1632 C.2       9 UNK         0.5000 
     26 O          -2.6990  -21.9630  -44.5301 O.2       9 UNK        -0.5000 
     27 CA         -2.6584  -19.6555  -43.8812 C.3       9 UNK         0.1400 
     28 CB         -2.8687  -19.4586  -42.3727 C.3       9 UNK        -0.1800 
     29 N          -1.8935  -18.5294  -44.4166 N.am      9 UNK        -0.5000 
     30 C          -1.6405  -18.3364  -45.7196 C.2       8 UNK         0.5000 
     31 O          -2.0489  -19.0749  -46.6137 O.2       8 UNK        -0.5000 
     32 CA         -0.7239  -17.1554  -46.0781 C.3       8 UNK         0.1400 
     33 CB         -1.5133  -15.8391  -46.0461 C.3       8 UNK        -0.1800 
     34 N           0.4472  -17.0541  -45.2042 N.am      8 UNK        -0.5000 
     35 C           1.3517  -18.0276  -45.0232 C.2       7 UNK         0.5000 
     36 O           1.2785  -19.1356  -45.5484 O.2       7 UNK        -0.5000 
     37 CA          2.5100  -17.7405  -44.0603 C.3       7 UNK         0.1400 
     38 CB          3.6262  -16.9563  -44.7580 C.3       7 UNK        -0.1800 
     39 N           2.0542  -17.0131  -42.8796 N.am      7 UNK        -0.5000 
     40 C           1.4880  -17.5994  -41.8173 C.2       6 UNK         0.5000 
     41 O           1.3544  -18.8176  -41.6950 O.2       6 UNK        -0.5000 
     42 CA          0.9564  -16.6623  -40.7175 C.3       6 UNK         0.1400 
     43 CB          2.0876  -16.2539  -39.7617 C.3       6 UNK        -0.1800 
     44 N           0.3185  -15.4578  -41.2503 N.am      6 UNK        -0.5000 
     45 C          -0.7941  -15.4523  -41.9971 C.2       5 UNK         0.5000 
     46 O          -1.4076  -16.4682  -42.3258 O.2       5 UNK        -0.5000 
     47 CA         -1.2913  -14.0798  -42.4868 C.3       5 UNK         0.1400 
     48 CB         -2.1952  -13.4332  -41.4264 C.3       5 UNK        -0.1800 
     49 N          -0.2405  -13.1287  -42.8635 N.am      5 UNK        -0.5000 
     50 C           0.7784  -13.3463  -43.7079 C.2       4 UNK         0.5000 
     51 O           1.0405  -14.4477  -44.1956 O.2       4 UNK        -0.5000 
     52 CA          1.6347  -12.1240  -44.1050 C.3       4 UNK         0.1400 
     53 CB          1.3931  -10.8708  -43.2331 C.3       4 UNK        -0.1800 
     54 N           3.0668  -12.4229  -44.1666 N.am      4 UNK        -0.5000 
     55 C           3.8460  -12.8731  -43.1720 C.2       3 UNK         0.5000 
     56 O           3.4257  -13.1980  -42.0601 O.2       3 UNK        -0.5000 
     57 CA          5.3613  -12.9483  -43.4537 C.3       3 UNK         0.1400 
     58 CB          5.8221  -14.4002  -43.6366 C.3       3 UNK        -0.1800 
     59 N           5.7884  -12.1764  -44.6230 N.am      3 UNK        -0.5000 
     60 C           5.8594  -10.8432  -44.7002 C.2       2 UNK         0.5000 
     61 O           5.5623  -10.0943  -43.7690 O.2       2 UNK        -0.5000 
     62 CA          6.3308  -10.2337  -46.0367 C.3       2 UNK         0.1400 
     63 CB          7.8663  -10.1211  -46.0762 C.3       2 UNK        -0.1800 
     64 N           5.8192  -10.8867  -47.2515 N.am      2 UNK        -0.5000 
     65 C           6.0448  -12.1143  -47.7377 C.2       1 UNK         0.5000 
     66 O           6.7141  -12.9624  -47.1459 O.2       1 UNK        -0.5000 
     67 C          -1.0846  -22.0963  -48.6127 C.2       11 UNK         0.5000 
     68 O          -1.1534  -22.9883  -49.4557 O.2       11 UNK        -0.5000 
     69 N          -2.1571  -21.5100  -48.0612 N.am      12 UNK        -0.5000 
     70 CA         -3.5429  -21.8785  -48.3477 C.3       12 UNK         0.1400 
     71 CB         -4.4970  -20.9119  -47.6318 C.3       12 UNK        -0.1800 
     72 C          -3.8598  -23.3338  -47.9657 C.2       12 UNK         0.5000 
     73 O          -4.4629  -24.0464  -48.7670 O.2       12 UNK        -0.5000 
     74 N          -3.4257  -23.7612  -46.7711 N.am      13 UNK        -0.5000 
     75 CA         -3.5707  -25.1344  -46.2851 C.3       13 UNK         0.1400 
     76 CB         -3.1020  -25.2252  -44.8254 C.3       13 UNK        -0.1800 
     77 C          -2.8307  -26.1567  -47.1662 C.2       13 UNK         0.5000 
     78 O          -3.4123  -27.1864  -47.5117 O.2       13 UNK        -0.5000 
     79 N          -1.5852  -25.8333  -47.5458 N.am      14 UNK        -0.5000 
     80 CA         -0.7607  -26.6214  -48.4636 C.3       14 UNK         0.1400 
     81 CB          0.6577  -26.0343  -48.5184 C.3       14 UNK        -0.1800 
     82 C          -1.3692  -26.7175  -49.8745 C.2       14 UNK         0.5000 
     83 O          -1.3727  -27.7990  -50.4637 O.2       14 UNK        -0.5000 
     84 N          -1.9297  -25.6062  -50.3683 N.am      15 UNK        -0.5000 
     85 CA         -2.6561  -25.4957  -51.6338 C.3       15 UNK         0.1400 
     86 CB         -2.6234  -24.0313  -52.1020 C.3       15 UNK        -0.1800 
     87 C          -4.0967  -26.0458  -51.5500 C.2       15 UNK         0.5000 
     88 O          -5.0297  -25.3886  -52.0122 O.2       15 UNK        -0.5000 
     89 N          -4.2498  -27.2438  -50.9676 N.am      16 UNK        -0.5000 
     90 CA         -5.4730  -28.0479  -50.8692 C.3       16 UNK         0.1400 
     91 CB         -5.7758  -28.6982  -52.2344 C.3       16 UNK        -0.1800 
     92 C          -6.6842  -27.2919  -50.2792 C.2       16 UNK         0.5000 
     93 O          -7.8003  -27.4286  -50.7836 O.2       16 UNK        -0.5000 
     94 N          -6.4290  -26.5092  -49.2205 N.am      17 UNK        -0.5000 
     95 CA         -7.3752  -25.6327  -48.5227 C.3       17 UNK         0.1400 
     96 CB         -8.4896  -26.4476  -47.8323 C.3       17 UNK        -0.1800 
     97 C          -7.9085  -24.5114  -49.4397 C.2       17 UNK         0.5000 
     98 O          -9.1170  -24.3955  -49.6531 O.2       17 UNK        -0.5000 
     99 N          -6.9690  -23.7032  -49.9476 N.am      18 UNK        -0.5000 
    100 CA        -7.1537  -22.5186  -50.7885 C.3       18 UNK         0.1400 
    101 CB        -7.9085  -21.4145  -50.0173 C.3       18 UNK        -0.1800 
    102 C         -7.7955  -22.8373  -52.1529 C.2       18 UNK         0.5000 
    103 O         -8.7424  -22.1628  -52.5667 O.2       18 UNK        -0.5000 
    104 N         -7.2625  -23.8508  -52.8480 N.am      19 UNK        -0.5000 
    105 CA        -7.6324  -24.2103  -54.2172 C.3       19 UNK         0.1400 
    106 CB        -7.1754  -25.6496  -54.5075 C.3       19 UNK        -0.1800 
    107 C         -7.0487  -23.1897  -55.2149 C.2       19 UNK         0.5000 
    108 O         -6.0226  -23.4490  -55.8474 O.2       19 UNK        -0.5000 
    109 N         -7.6964  -22.0192  -55.2831 N.am      20 UNK        -0.5000 
    110 CA        -7.3582  -20.8071  -56.0369 C.3       20 UNK         0.1400 
    111 CB        -7.2531  -21.0729  -57.5512 C.3       20 UNK        -0.1800 
    112 C         -6.1135  -20.0819  -55.4935 C.2       20 UNK         0.5000 
    113 O         -6.2061  -18.9020  -55.1494 O.2       20 UNK        -0.5000 
    114 N         -4.9847  -20.7956  -55.3989 N.am      21 UNK        -0.5000 
    115 CA        -3.7151  -20.3174  -54.8536 C.3       21 UNK         0.1400 
    116 CB        -2.6307  -21.3797  -55.0871 C.3       21 UNK        -0.1800 
    117 C         -3.8515  -19.9521  -53.3635 C.2       21 UNK         0.5000 
    118 O         -4.0186  -20.8390  -52.5245 O.2       21 UNK        -0.5000 
    119 N         -3.8304  -18.6431  -53.0850 N.am      22 UNK        -0.5000 
    120 CA        -4.1291  -18.0361  -51.7786 C.3       22 UNK         0.1400 
    121 C         -5.6002  -18.2511  -51.2959 C.2       22 UNK         0.5000 
    122 N         -6.5538  -18.4691  -52.1957 N.am      22 UNK        -0.7600 
    123 O         -5.8955  -18.1970  -50.1060 O.2       22 UNK        -0.5000 
    124 C124       -3.0420  -18.3513  -50.7086 C.3       23 UNK        -0.0398 
    125 S125       -2.7719  -16.9440  -49.5752 S.3       23 UNK        -0.2404 
    126 C126       -1.5158  -15.9713  -50.4685 C.3       23 UNK        -0.0205 
    127 H127        5.0567   -8.3728  -51.0314 H         1 UNK         0.0600 
    128 H128        3.6236   -9.1983  -51.6526 H         1 UNK         0.0600 
    129 H129        5.2339   -9.7851  -52.0764 H         1 UNK         0.0600 
    130 H130        5.8191  -11.5406  -50.9532 H         1 UNK         0.3000 
    131 H131        6.2372  -13.0806  -49.5793 H         1 UNK         0.0600 
    132 H132        3.9260  -13.7260  -50.0383 H         1 UNK         0.0800 
    133 H133        4.5189  -14.3371  -48.5282 H         1 UNK         0.0800 
    134 H134        2.8412  -14.6305  -46.7053 H         1 UNK         0.0800 
    135 H135        1.2518  -13.9141  -46.7363 H         1 UNK         0.0800 
    136 H136       -0.2694  -14.2710  -48.7369 H         1 UNK         0.1150 
    137 H137        0.2841  -17.9900  -50.7930 H         1 UNK         0.1150 
    138 H138        3.3206  -16.5363  -48.1402 H         1 UNK         0.1150 
    139 H139        2.5088  -19.0254  -50.7765 H         1 UNK         0.0800 
    140 H140        3.7923  -18.3577  -49.8023 H         1 UNK         0.0800 
    141 H141        0.5500  -20.3862  -49.8740 H         1 UNK         0.0800 
    142 H142        0.1107  -19.4996  -48.4296 H         1 UNK         0.0800 
    143 H143        1.0107  -22.4218  -48.4148 H         1 UNK         0.0600 
    144 H144        0.5568  -20.6539  -46.2559 H         1 UNK         0.3000 
    145 H145       -0.3356  -23.1265  -43.8019 H         1 UNK         0.0600 
    146 H146        1.5263  -21.9222  -42.6775 H         1 UNK         0.0600 
    147 H147        2.1388  -23.0121  -43.9130 H         1 UNK         0.0600 
    148 H148        2.0774  -21.2834  -44.2238 H         1 UNK         0.0600 
    149 H149       -0.1619  -20.2533  -43.7641 H         1 UNK         0.3000 
    150 H150       -3.6369  -19.6536  -44.3655 H         1 UNK         0.0600 
    151 H151       -3.4383  -20.2846  -41.9450 H         1 UNK         0.0600 
    152 H152       -3.4224  -18.5417  -42.1695 H         1 UNK         0.0600 
    153 H153       -1.9191  -19.3997  -41.8388 H         1 UNK         0.0600 
    154 H154       -1.5395  -17.8574  -43.7419 H         1 UNK         0.3000 
    155 H155       -0.3571  -17.3147  -47.0934 H         1 UNK         0.0600 
    156 H156       -1.9944  -15.6876  -45.0819 H         1 UNK         0.0600 
    157 H157       -0.8738  -14.9802  -46.2442 H         1 UNK         0.0600 
    158 H158       -2.2991  -15.8411  -46.8015 H         1 UNK         0.0600 
    159 H159        0.6008  -16.1573  -44.7499 H         1 UNK         0.3000 
    160 H160        2.9267  -18.7029  -43.7545 H         1 UNK         0.0600 
    161 H161        3.3429  -15.9173  -44.9186 H         1 UNK         0.0600 
    162 H162        3.8720  -17.3916  -45.7277 H         1 UNK         0.0600 
    163 H163        4.5348  -16.9718  -44.1575 H         1 UNK         0.0600 
    164 H164        2.0506  -16.0026  -42.9384 H         1 UNK         0.3000 
    165 H165        0.2070  -17.2140  -40.1461 H         1 UNK         0.0600 
    166 H166        1.7061  -15.6627  -38.9290 H         1 UNK         0.0600 
    167 H167        2.5780  -17.1316  -39.3387 H         1 UNK         0.0600 
    168 H168        2.8510  -15.6634  -40.2706 H         1 UNK         0.0600 
    169 H169        0.7747  -14.5768  -41.0613 H         1 UNK         0.3000 
    170 H170       -1.8981  -14.2490  -43.3758 H         1 UNK         0.0600 
    171 H171       -1.6388  -13.1820  -40.5225 H         1 UNK         0.0600 
    172 H172       -2.6556  -12.5195  -41.8028 H         1 UNK         0.0600 
    173 H173       -3.0037  -14.1065  -41.1379 H         1 UNK         0.0600 
    174 H174       -0.3523  -12.1919  -42.5045 H         1 UNK         0.3000 
    175 H175        1.3378  -11.8742  -45.1245 H         1 UNK         0.0600 
    176 H176        2.0318  -10.0470  -43.5529 H         1 UNK         0.0600 
    177 H177        1.6049  -11.0592  -42.1797 H         1 UNK         0.0600 
    178 H178        0.3637  -10.5196  -43.3128 H         1 UNK         0.0600 
    179 H179        3.5166  -12.2209  -45.0473 H         1 UNK         0.3000 
    180 H180        5.8655  -12.5427  -42.5742 H         1 UNK         0.0600 
    181 H181        5.4468  -15.0414  -42.8378 H         1 UNK         0.0600 
    182 H182        6.9100  -14.4687  -43.6233 H         1 UNK         0.0600 
    183 H183        5.4785  -14.8068  -44.5872 H         1 UNK         0.0600 
    184 H184        6.0889  -12.7009  -45.4414 H         1 UNK         0.3000 
    185 H185        5.9306   -9.2190  -46.0677 H         1 UNK         0.0600 
    186 H186        8.2362   -9.5467  -45.2260 H         1 UNK         0.0600 
    187 H187        8.3480  -11.0987  -46.0419 H         1 UNK         0.0600 
    188 H188        8.2009   -9.6136  -46.9810 H         1 UNK         0.0600 
    189 H189        5.1793  -10.3186  -47.8053 H         1 UNK         0.3000 
    190 H190       -2.0228  -20.7449  -47.4029 H         1 UNK         0.3000 
    191 H191       -3.7002  -21.7768  -49.4238 H         1 UNK         0.0600 
    192 H192       -4.3807  -19.8934  -48.0029 H         1 UNK         0.0600 
    193 H193       -5.5360  -21.1986  -47.7881 H         1 UNK         0.0600 
    194 H194       -4.3222  -20.8967  -46.5559 H         1 UNK         0.0600 
    195 H195       -2.9713  -23.1033  -46.1449 H         1 UNK         0.3000 
    196 H196       -4.6333  -25.3836  -46.3125 H         1 UNK         0.0600 
    197 H197       -3.2054  -26.2416  -44.4437 H         1 UNK         0.0600 
    198 H198       -3.6940  -24.5747  -44.1815 H         1 UNK         0.0600 
    199 H199       -2.0558  -24.9380  -44.7183 H         1 UNK         0.0600 
    200 H200       -1.1691  -24.9794  -47.1833 H         1 UNK         0.3000 
    201 H201       -0.6932  -27.6345  -48.0620 H         1 UNK         0.0600 
    202 H202        1.1234  -26.0379  -47.5328 H         1 UNK         0.0600 
    203 H203        0.6546  -25.0063  -48.8817 H         1 UNK         0.0600 
    204 H204        1.2968  -26.6167  -49.1831 H         1 UNK         0.0600 
    205 H205       -1.8545  -24.7472  -49.8302 H         1 UNK         0.3000 
    206 H206       -2.1351  -26.0920  -52.3853 H         1 UNK         0.0600 
    207 H207       -1.6011  -23.6706  -52.2146 H         1 UNK         0.0600 
    208 H208       -3.1160  -23.9234  -53.0676 H         1 UNK         0.0600 
    209 H209       -3.1365  -23.3740  -51.3987 H         1 UNK         0.0600 
    210 H210       -3.4081  -27.6818  -50.6094 H         1 UNK         0.3000 
    211 H211       -5.2524  -28.8514  -50.1651 H         1 UNK         0.0600 
    212 H212       -6.0010  -27.9504  -52.9942 H         1 UNK         0.0600 
    213 H213       -6.6304  -29.3727  -52.1710 H         1 UNK         0.0600 
    214 H214       -4.9278  -29.2855  -52.5865 H         1 UNK         0.0600 
    215 H215       -5.4647  -26.4317  -48.9230 H         1 UNK         0.3000 
    216 H216       -6.8073  -25.1384  -47.7332 H         1 UNK         0.0600 
    217 H217       -9.1214  -25.7998  -47.2237 H         1 UNK         0.0600 
    218 H218       -8.0705  -27.2062  -47.1714 H         1 UNK         0.0600 
    219 H219       -9.1379  -26.9496  -48.5507 H         1 UNK         0.0600 
    220 H220       -6.0021  -23.9160  -49.7065 H         1 UNK         0.3000 
    221 H221       -6.1526  -22.1413  -51.0041 H         1 UNK         0.0600 
    222 H222       -8.9427  -21.6937  -49.8148 H         1 UNK         0.0600 
    223 H223       -7.4309  -21.1940  -49.0646 H         1 UNK         0.0600 
    224 H224       -7.9288  -20.4864  -50.5882 H         1 UNK         0.0600 
    225 H225       -6.4732  -24.3612  -52.4526 H         1 UNK         0.3000 
    226 H226       -8.7206  -24.1883  -54.3067 H         1 UNK         0.0600 
    227 H227       -7.6284  -26.3510  -53.8066 H         1 UNK         0.0600 
    228 H228       -7.4688  -25.9561  -55.5120 H         1 UNK         0.0600 
    229 H229       -6.0925  -25.7551  -54.4360 H         1 UNK         0.0600 
    230 H230       -8.4567  -21.9018  -54.6212 H         1 UNK         0.3000 
    231 H231       -8.2013  -20.1304  -55.8888 H         1 UNK         0.0600 
    232 H232       -6.4127  -21.7208  -57.8007 H         1 UNK         0.0600 
    233 H233       -7.1139  -20.1395  -58.0978 H         1 UNK         0.0600 
    234 H234       -8.1611  -21.5401  -57.9325 H         1 UNK         0.0600 
    235 H235       -5.0374  -21.7791  -55.6468 H         1 UNK         0.3000 
    236 H236       -3.4266  -19.4228  -55.4094 H         1 UNK         0.0600 
    237 H237       -2.4447  -21.5225  -56.1516 H         1 UNK         0.0600 
    238 H238       -1.6864  -21.0865  -54.6266 H         1 UNK         0.0600 
    239 H239       -2.9179  -22.3432  -54.6696 H         1 UNK         0.0600 
    240 H240       -3.7314  -17.9919  -53.8508 H         1 UNK         0.3000 
    241 H241       -4.0791  -16.9662  -51.9834 H         1 UNK         0.0600 
    242 H242       -6.3393  -18.5110  -53.1862 H         1 UNK         0.3800 
    243 H243       -7.5047  -18.5836  -51.8857 H         1 UNK         0.3800 
    244 H244       -3.3076  -19.2366  -50.1293 H         1 UNK         0.0800 
    245 H245       -2.0900  -18.5909  -51.1830 H         1 UNK         0.0800 
    246 H246       -1.4764  -16.2632  -51.5189 H         1 UNK         0.0800 
    247 H247       -1.8203  -14.9238  -50.4607 H         1 UNK         0.0800 
@<TRIPOS>BOND
     1    1    2 1    
     2    1  127 1    
     3    1  128 1    
     4    1  129 1    
     5    2    3 2    
     6    2    4 am   BACKBONE|DICT|INTERRES
     7    4    5 1    
     8    4  130 1    
     9    5    6 1    
    10    5   65 1    
    11    5  131 1    
    12    6    7 1    
    13    6  132 1    
    14    6  133 1    
    15    7    8 1    
    16    8    9 1    
    17    8  134 1    
    18    8  135 1    
    19    9   10 ar   
    20    9   14 ar   
    21   10   11 ar   
    22   10  136 1    
    23   11   12 ar   
    24   11  126 1    
    25   12   13 ar   
    26   12  137 1    
    27   13   14 ar   
    28   13   15 1    
    29   14  138 1    
    30   15   16 1    
    31   15  139 1    
    32   15  140 1    
    33   16   17 1    
    34   17   18 1    
    35   17  141 1    
    36   17  142 1    
    37   18   19 1    
    38   18   67 1    
    39   18  143 1    
    40   19   20 am   BACKBONE|DICT|INTERRES
    41   19  144 1    
    42   20   21 2    
    43   20   22 1    
    44   22   23 1    
    45   22   24 1    
    46   22  145 1    
    47   23  146 1    
    48   23  147 1    
    49   23  148 1    
    50   24   25 am   BACKBONE|DICT|INTERRES
    51   24  149 1    
    52   25   26 2    
    53   25   27 1    
    54   27   28 1    
    55   27   29 1    
    56   27  150 1    
    57   28  151 1    
    58   28  152 1    
    59   28  153 1    
    60   29   30 am   BACKBONE|DICT|INTERRES
    61   29  154 1    
    62   30   31 2    
    63   30   32 1    
    64   32   33 1    
    65   32   34 1    
    66   32  155 1    
    67   33  156 1    
    68   33  157 1    
    69   33  158 1    
    70   34   35 am   BACKBONE|DICT|INTERRES
    71   34  159 1    
    72   35   36 2    
    73   35   37 1    
    74   37   38 1    
    75   37   39 1    
    76   37  160 1    
    77   38  161 1    
    78   38  162 1    
    79   38  163 1    
    80   39   40 am   BACKBONE|DICT|INTERRES
    81   39  164 1    
    82   40   41 2    
    83   40   42 1    
    84   42   43 1    
    85   42   44 1    
    86   42  165 1    
    87   43  166 1    
    88   43  167 1    
    89   43  168 1    
    90   44   45 am   BACKBONE|DICT|INTERRES
    91   44  169 1    
    92   45   46 2    
    93   45   47 1    
    94   47   48 1    
    95   47   49 1    
    96   47  170 1    
    97   48  171 1    
    98   48  172 1    
    99   48  173 1    
   100   49   50 am   BACKBONE|DICT|INTERRES
   101   49  174 1    
   102   50   51 2    
   103   50   52 1    
   104   52   53 1    
   105   52   54 1    
   106   52  175 1    
   107   53  176 1    
   108   53  177 1    
   109   53  178 1    
   110   54   55 am   BACKBONE|DICT|INTERRES
   111   54  179 1    
   112   55   56 2    
   113   55   57 1    
   114   57   58 1    
   115   57   59 1    
   116   57  180 1    
   117   58  181 1    
   118   58  182 1    
   119   58  183 1    
   120   59   60 am   BACKBONE|DICT|INTERRES
   121   59  184 1    
   122   60   61 2    
   123   60   62 1    
   124   62   63 1    
   125   62   64 1    
   126   62  185 1    
   127   63  186 1    
   128   63  187 1    
   129   63  188 1    
   130   64   65 am   BACKBONE|DICT|INTERRES
   131   64  189 1    
   132   65   66 2    
   133   67   68 2    
   134   67   69 am   BACKBONE|DICT|INTERRES
   135   69   70 1    
   136   69  190 1    
   137   70   71 1    
   138   70   72 1    
   139   70  191 1    
   140   71  192 1    
   141   71  193 1    
   142   71  194 1    
   143   72   73 2    
   144   72   74 am   BACKBONE|DICT|INTERRES
   145   74   75 1    
   146   74  195 1    
   147   75   76 1    
   148   75   77 1    
   149   75  196 1    
   150   76  197 1    
   151   76  198 1    
   152   76  199 1    
   153   77   78 2    
   154   77   79 am   BACKBONE|DICT|INTERRES
   155   79   80 1    
   156   79  200 1    
   157   80   81 1    
   158   80   82 1    
   159   80  201 1    
   160   81  202 1    
   161   81  203 1    
   162   81  204 1    
   163   82   83 2    
   164   82   84 am   BACKBONE|DICT|INTERRES
   165   84   85 1    
   166   84  205 1    
   167   85   86 1    
   168   85   87 1    
   169   85  206 1    
   170   86  207 1    
   171   86  208 1    
   172   86  209 1    
   173   87   88 2    
   174   87   89 am   BACKBONE|DICT|INTERRES
   175   89   90 1    
   176   89  210 1    
   177   90   91 1    
   178   90   92 1    
   179   90  211 1    
   180   91  212 1    
   181   91  213 1    
   182   91  214 1    
   183   92   93 2    
   184   92   94 am   BACKBONE|DICT|INTERRES
   185   94   95 1    
   186   94  215 1    
   187   95   96 1    
   188   95   97 1    
   189   95  216 1    
   190   96  217 1    
   191   96  218 1    
   192   96  219 1    
   193   97   98 2    
   194   97   99 am   BACKBONE|DICT|INTERRES
   195   99  100 1    
   196   99  220 1    
   197  100  101 1    
   198  100  102 1    
   199  100  221 1    
   200  101  222 1    
   201  101  223 1    
   202  101  224 1    
   203  102  103 2    
   204  102  104 am   BACKBONE|DICT|INTERRES
   205  104  105 1    
   206  104  225 1    
   207  105  106 1    
   208  105  107 1    
   209  105  226 1    
   210  106  227 1    
   211  106  228 1    
   212  106  229 1    
   213  107  108 2    
   214  107  109 am   BACKBONE|DICT|INTERRES
   215  109  110 1    
   216  109  230 1    
   217  110  111 1    
   218  110  112 1    
   219  110  231 1    
   220  111  232 1    
   221  111  233 1    
   222  111  234 1    
   223  112  113 2    
   224  112  114 am   BACKBONE|DICT|INTERRES
   225  114  115 1    
   226  114  235 1    
   227  115  116 1    
   228  115  117 1    
   229  115  236 1    
   230  116  237 1    
   231  116  238 1    
   232  116  239 1    
   233  117  118 2    
   234  117  119 am   BACKBONE|DICT|INTERRES
   235  119  120 1    
   236  119  240 1    
   237  120  121 1    
   238  120  124 1    
   239  120  241 1    
   240  121  122 am   BACKBONE|DICT|INTERRES
   241  121  123 2    
   242  122  242 1    
   243  122  243 1    
   244  124  125 1    
   245  124  244 1    
   246  124  245 1    
   247  125  126 1    
   248  126  246 1    
   249  126  247 1    
@<TRIPOS>SUBSTRUCTURE
     1 UNK         1 GROUP             0       ****    0 ROOT    
