@<TRIPOS>MOLECULE
3R540
247   249    1
SMALL
USER_CHARGES


@<TRIPOS>ATOM
      1 CA         -7.1612  -16.9464  -49.9974 C.3       0 UNK        -0.1800 
      2 C          -5.6514  -16.9490  -49.8237 C.2       0 UNK         0.5000 
      3 O          -4.9438  -17.6500  -50.5508 O.2       0 UNK        -0.5000 
      4 N          -5.1620  -16.1502  -48.8706 N.am      1 UNK        -0.5000 
      5 CA         -3.7444  -15.9456  -48.6100 C.3       1 UNK         0.1400 
      6 C6         -3.1448  -16.9915  -47.6373 C.3       23 UNK        -0.0398 
      7 S7         -1.3711  -17.2460  -47.9719 S.3       23 UNK        -0.2404 
      8 C8         -1.4528  -18.8597  -48.8127 C.3       23 UNK        -0.0205 
      9 C9         -0.1812  -19.2289  -49.5682 C.ar      23 UNK        -0.0193 
     10 C10        -0.2867  -19.7918  -50.8430 C.ar      23 UNK        -0.1150 
     11 C11         0.8505  -20.1742  -51.5553 C.ar      23 UNK        -0.0193 
     12 C12         2.1102  -19.9944  -50.9799 C.ar      23 UNK        -0.1150 
     13 C13         2.2389  -19.4336  -49.7055 C.ar      23 UNK        -0.0193 
     14 C14         1.0881  -19.0529  -49.0042 C.ar      23 UNK        -0.1150 
     15 C15         3.6299  -19.2301  -49.1126 C.3       23 UNK        -0.0205 
     16 S16         3.8093  -19.8759  -47.4179 S.3       23 UNK        -0.2404 
     17 C17         3.2022  -21.5883  -47.5856 C.3       23 UNK        -0.0398 
     18 CA          4.0157  -22.6232  -46.7684 C.3       11 UNK         0.1400 
     19 N           4.0943  -22.2720  -45.3435 N.am      11 UNK        -0.5000 
     20 C           4.9269  -22.8305  -44.4535 C.2       10 UNK         0.5000 
     21 O           5.7766  -23.6717  -44.7476 O.2       10 UNK        -0.5000 
     22 CA          4.7573  -22.4073  -42.9829 C.3       10 UNK         0.1400 
     23 CB          5.6116  -21.1706  -42.6636 C.3       10 UNK        -0.1800 
     24 N           3.3560  -22.1378  -42.6538 N.am      10 UNK        -0.5000 
     25 C           2.4489  -23.0860  -42.3789 C.2       9 UNK         0.5000 
     26 O           2.7162  -24.2865  -42.3224 O.2       9 UNK        -0.5000 
     27 CA          0.9929  -22.6294  -42.1531 C.3       9 UNK         0.1400 
     28 CB          0.7612  -22.2904  -40.6731 C.3       9 UNK        -0.1800 
     29 N           0.5990  -21.4833  -42.9725 N.am      9 UNK        -0.5000 
     30 C           0.5689  -21.4727  -44.3122 C.2       8 UNK         0.5000 
     31 O           0.8406  -22.4469  -45.0119 O.2       8 UNK        -0.5000 
     32 CA          0.2449  -20.1290  -44.9893 C.3       8 UNK         0.1400 
     33 CB         -1.2737  -19.9421  -45.0790 C.3       8 UNK        -0.1800 
     34 N           0.8479  -18.9691  -44.3257 N.am      8 UNK        -0.5000 
     35 C           2.1555  -18.8305  -44.0532 C.2       7 UNK         0.5000 
     36 O           2.9967  -19.7022  -44.2629 O.2       7 UNK        -0.5000 
     37 CA          2.5924  -17.5165  -43.3956 C.3       7 UNK         0.1400 
     38 CB          2.5963  -16.3786  -44.4208 C.3       7 UNK        -0.1800 
     39 N           1.7123  -17.1805  -42.2811 N.am      7 UNK        -0.5000 
     40 C           1.8196  -17.7223  -41.0600 C.2       6 UNK         0.5000 
     41 O           2.7308  -18.4787  -40.7221 O.2       6 UNK        -0.5000 
     42 CA          0.7041  -17.3867  -40.0527 C.3       6 UNK         0.1400 
     43 CB          1.0274  -16.0872  -39.3000 C.3       6 UNK        -0.1800 
     44 N          -0.6148  -17.2663  -40.6753 N.am      6 UNK        -0.5000 
     45 C          -1.2603  -18.2610  -41.3001 C.2       5 UNK         0.5000 
     46 O          -0.8206  -19.4057  -41.4097 O.2       5 UNK        -0.5000 
     47 CA         -2.6129  -17.9060  -41.9422 C.3       5 UNK         0.1400 
     48 CB         -3.7577  -18.1346  -40.9445 C.3       5 UNK        -0.1800 
     49 N          -2.6934  -16.5402  -42.4666 N.am      5 UNK        -0.5000 
     50 C          -1.9074  -16.0213  -43.4210 C.2       4 UNK         0.5000 
     51 O          -0.9638  -16.6312  -43.9321 O.2       4 UNK        -0.5000 
     52 CA         -2.2780  -14.5934  -43.8705 C.3       4 UNK         0.1400 
     53 CB         -2.2330  -13.5864  -42.7005 C.3       4 UNK        -0.1800 
     54 N          -1.5021  -14.1131  -45.0179 N.am      4 UNK        -0.5000 
     55 C          -0.2101  -13.7499  -45.0651 C.2       3 UNK         0.5000 
     56 O           0.5400  -13.7458  -44.0886 O.2       3 UNK        -0.5000 
     57 CA          0.3450  -13.2904  -46.4333 C.3       3 UNK         0.1400 
     58 CB          1.4212  -14.2559  -46.9530 C.3       3 UNK        -0.1800 
     59 N          -0.6864  -13.1622  -47.4629 N.am      3 UNK        -0.5000 
     60 C          -1.5252  -12.1258  -47.5968 C.2       2 UNK         0.5000 
     61 O          -1.4792  -11.1120  -46.8999 O.2       2 UNK        -0.5000 
     62 CA         -2.6194  -12.2634  -48.6752 C.3       2 UNK         0.1400 
     63 CB         -2.1914  -11.5568  -49.9704 C.3       2 UNK        -0.1800 
     64 N          -2.9552  -13.6586  -48.9812 N.am      2 UNK        -0.5000 
     65 C          -3.5478  -14.5040  -48.1268 C.2       1 UNK         0.5000 
     66 O          -3.9217  -14.1849  -46.9971 O.2       1 UNK        -0.5000 
     67 C           3.4151  -24.0292  -47.0019 C.2       11 UNK         0.5000 
     68 O           3.6040  -24.5886  -48.0825 O.2       11 UNK        -0.5000 
     69 N           2.6765  -24.5447  -46.0064 N.am      12 UNK        -0.5000 
     70 CA          1.8148  -25.7311  -46.0450 C.3       12 UNK         0.1400 
     71 CB          2.6199  -27.0146  -46.3373 C.3       12 UNK        -0.1800 
     72 C           0.6035  -25.5315  -46.9826 C.2       12 UNK         0.5000 
     73 O           0.1665  -26.4710  -47.6502 O.2       12 UNK        -0.5000 
     74 N           0.0867  -24.2978  -47.0059 N.am      13 UNK        -0.5000 
     75 CA         -1.1115  -23.8816  -47.7248 C.3       13 UNK         0.1400 
     76 CB         -0.8691  -22.4713  -48.2845 C.3       13 UNK        -0.1800 
     77 C          -2.3335  -23.9159  -46.7872 C.2       13 UNK         0.5000 
     78 O          -2.1864  -24.0496  -45.5696 O.2       13 UNK        -0.5000 
     79 N          -3.5297  -23.8046  -47.3758 N.am      14 UNK        -0.5000 
     80 CA         -4.8115  -23.9381  -46.6785 C.3       14 UNK         0.1400 
     81 CB         -5.8939  -24.2905  -47.7113 C.3       14 UNK        -0.1800 
     82 C          -5.2341  -22.6921  -45.8761 C.2       14 UNK         0.5000 
     83 O          -6.1799  -22.7852  -45.0938 O.2       14 UNK        -0.5000 
     84 N          -4.5919  -21.5409  -46.1280 N.am      15 UNK        -0.5000 
     85 CA         -4.8730  -20.1915  -45.6059 C.3       15 UNK         0.1400 
     86 CB         -4.9060  -20.1482  -44.0665 C.3       15 UNK        -0.1800 
     87 C          -6.1405  -19.5607  -46.2127 C.2       15 UNK         0.5000 
     88 O          -6.1232  -18.3841  -46.5695 O.2       15 UNK        -0.5000 
     89 N          -7.1889  -20.3724  -46.3916 N.am      16 UNK        -0.5000 
     90 CA         -8.3582  -20.0829  -47.2237 C.3       16 UNK         0.1400 
     91 CB         -9.4901  -21.0419  -46.8234 C.3       16 UNK        -0.1800 
     92 C          -8.0534  -20.2027  -48.7340 C.2       16 UNK         0.5000 
     93 O          -8.8883  -19.8184  -49.5530 O.2       16 UNK        -0.5000 
     94 N          -6.8719  -20.7311  -49.0725 N.am      17 UNK        -0.5000 
     95 CA         -6.3094  -20.8802  -50.4074 C.3       17 UNK         0.1400 
     96 CB         -6.9445  -22.1097  -51.0886 C.3       17 UNK        -0.1800 
     97 C          -4.7772  -21.0150  -50.2382 C.2       17 UNK         0.5000 
     98 O          -4.3170  -21.2269  -49.1124 O.2       17 UNK        -0.5000 
     99 N          -3.9598  -20.9160  -51.2933 N.am      18 UNK        -0.5000 
    100 CA        -4.2995  -20.7252  -52.7026 C.3       18 UNK         0.1400 
    101 CB        -4.2477  -22.0918  -53.4170 C.3       18 UNK        -0.1800 
    102 C         -3.3299  -19.7087  -53.3314 C.2       18 UNK         0.5000 
    103 O         -2.7435  -19.9846  -54.3801 O.2       18 UNK        -0.5000 
    104 N         -3.1561  -18.5461  -52.6842 N.am      19 UNK        -0.5000 
    105 CA        -2.2172  -17.5032  -53.1234 C.3       19 UNK         0.1400 
    106 CB        -2.1369  -16.3898  -52.0740 C.3       19 UNK        -0.1800 
    107 C         -2.5472  -16.9218  -54.5103 C.2       19 UNK         0.5000 
    108 O         -1.6374  -16.5945  -55.2727 O.2       19 UNK        -0.5000 
    109 N         -3.8462  -16.8584  -54.8304 N.am      20 UNK        -0.5000 
    110 CA        -4.3656  -16.4546  -56.1365 C.3       20 UNK         0.1400 
    111 CB        -5.8824  -16.2389  -56.0196 C.3       20 UNK        -0.1800 
    112 C         -4.0488  -17.4601  -57.2630 C.2       20 UNK         0.5000 
    113 O         -4.0388  -17.0643  -58.4293 O.2       20 UNK        -0.5000 
    114 N         -3.8036  -18.7299  -56.9076 N.am      21 UNK        -0.5000 
    115 CA        -3.4359  -19.7869  -57.8452 C.3       21 UNK         0.1400 
    116 CB        -3.9700  -21.1398  -57.3478 C.3       21 UNK        -0.1800 
    117 C         -1.9146  -19.8390  -58.0510 C.2       21 UNK         0.5000 
    118 O         -1.4705  -19.8965  -59.1989 O.2       21 UNK        -0.5000 
    119 N         -1.1434  -19.8255  -56.9524 N.am      22 UNK        -0.5000 
    120 CA         0.3277  -19.8895  -57.0047 C.3       22 UNK         0.1400 
    121 C          1.0289  -18.5605  -57.4132 C.2       22 UNK         0.5000 
    122 N          0.4131  -17.3980  -57.2339 N.am      22 UNK        -0.7600 
    123 O          2.1464  -18.5883  -57.9223 O.2       22 UNK        -0.5000 
    124 C124        0.9476  -20.5307  -55.7358 C.3       23 UNK        -0.0398 
    125 S125        0.8585  -19.5051  -54.2292 S.3       23 UNK        -0.2404 
    126 C126        0.7205  -20.7818  -52.9434 C.3       23 UNK        -0.0205 
    127 H127       -7.4995  -15.9753  -50.3581 H         1 UNK         0.0600 
    128 H128       -7.6563  -17.1564  -49.0493 H         1 UNK         0.0600 
    129 H129       -7.4695  -17.7015  -50.7201 H         1 UNK         0.0600 
    130 H130       -5.7870  -15.6008  -48.2957 H         1 UNK         0.3000 
    131 H131       -3.2288  -16.0346  -49.5641 H         1 UNK         0.0600 
    132 H132       -3.2837  -16.7148  -46.5907 H         1 UNK         0.0800 
    133 H133       -3.6607  -17.9452  -47.7524 H         1 UNK         0.0800 
    134 H134       -1.6703  -19.6326  -48.0766 H         1 UNK         0.0800 
    135 H135       -2.2986  -18.8447  -49.5026 H         1 UNK         0.0800 
    136 H136       -1.2577  -19.9353  -51.2872 H         1 UNK         0.1150 
    137 H137        2.9921  -20.2855  -51.5331 H         1 UNK         0.1150 
    138 H138        1.1826  -18.6221  -48.0174 H         1 UNK         0.1150 
    139 H139        4.3893  -19.6998  -49.7396 H         1 UNK         0.0800 
    140 H140        3.8539  -18.1628  -49.1060 H         1 UNK         0.0800 
    141 H141        2.1524  -21.6000  -47.2895 H         1 UNK         0.0800 
    142 H142        3.2190  -21.8601  -48.6428 H         1 UNK         0.0800 
    143 H143        5.0341  -22.6386  -47.1620 H         1 UNK         0.0600 
    144 H144        3.4851  -21.5232  -45.0293 H         1 UNK         0.3000 
    145 H145        5.1134  -23.2278  -42.3560 H         1 UNK         0.0600 
    146 H146        5.4988  -20.8715  -41.6214 H         1 UNK         0.0600 
    147 H147        5.3449  -20.3175  -43.2874 H         1 UNK         0.0600 
    148 H148        6.6693  -21.3772  -42.8307 H         1 UNK         0.0600 
    149 H149        3.0469  -21.1792  -42.7632 H         1 UNK         0.3000 
    150 H150        0.3417  -23.4644  -42.4196 H         1 UNK         0.0600 
    151 H151        1.0409  -23.1256  -40.0298 H         1 UNK         0.0600 
    152 H152       -0.2886  -22.0689  -40.4801 H         1 UNK         0.0600 
    153 H153        1.3474  -21.4236  -40.3642 H         1 UNK         0.0600 
    154 H154        0.3151  -20.6450  -42.4736 H         1 UNK         0.3000 
    155 H155        0.6470  -20.1574  -46.0033 H         1 UNK         0.0600 
    156 H156       -1.7268  -20.7145  -45.6997 H         1 UNK         0.0600 
    157 H157       -1.5371  -18.9750  -45.5060 H         1 UNK         0.0600 
    158 H158       -1.7329  -20.0161  -44.0959 H         1 UNK         0.0600 
    159 H159        0.2274  -18.1898  -44.1262 H         1 UNK         0.3000 
    160 H160        3.6131  -17.6403  -43.0268 H         1 UNK         0.0600 
    161 H161        1.6029  -16.2231  -44.8405 H         1 UNK         0.0600 
    162 H162        3.2716  -16.6002  -45.2482 H         1 UNK         0.0600 
    163 H163        2.9226  -15.4408  -43.9711 H         1 UNK         0.0600 
    164 H164        0.9089  -16.6051  -42.4963 H         1 UNK         0.3000 
    165 H165        0.6580  -18.2017  -39.3272 H         1 UNK         0.0600 
    166 H166        0.2860  -15.8837  -38.5270 H         1 UNK         0.0600 
    167 H167        1.9987  -16.1527  -38.8079 H         1 UNK         0.0600 
    168 H168        1.0570  -15.2289  -39.9725 H         1 UNK         0.0600 
    169 H169       -1.0528  -16.3577  -40.6436 H         1 UNK         0.3000 
    170 H170       -2.7626  -18.5796  -42.7834 H         1 UNK         0.0600 
    171 H171       -3.7470  -19.1581  -40.5668 H         1 UNK         0.0600 
    172 H172       -3.6831  -17.4665  -40.0857 H         1 UNK         0.0600 
    173 H173       -4.7292  -17.9739  -41.4119 H         1 UNK         0.0600 
    174 H174       -3.4445  -15.9734  -42.1006 H         1 UNK         0.3000 
    175 H175       -3.3087  -14.6419  -44.2248 H         1 UNK         0.0600 
    176 H176       -1.2650  -13.5854  -42.1986 H         1 UNK         0.0600 
    177 H177       -2.4315  -12.5719  -43.0466 H         1 UNK         0.0600 
    178 H178       -2.9863  -13.8185  -41.9474 H         1 UNK         0.0600 
    179 H179       -2.0248  -14.0758  -45.8830 H         1 UNK         0.3000 
    180 H180        0.8115  -12.3145  -46.2832 H         1 UNK         0.0600 
    181 H181        2.2744  -14.2856  -46.2755 H         1 UNK         0.0600 
    182 H182        1.7990  -13.9416  -47.9260 H         1 UNK         0.0600 
    183 H183        1.0375  -15.2721  -47.0543 H         1 UNK         0.0600 
    184 H184       -0.7948  -13.9487  -48.0862 H         1 UNK         0.3000 
    185 H185       -3.5183  -11.7721  -48.2966 H         1 UNK         0.0600 
    186 H186       -1.9587  -10.5075  -49.7843 H         1 UNK         0.0600 
    187 H187       -1.3040  -12.0173  -50.4066 H         1 UNK         0.0600 
    188 H188       -2.9860  -11.5841  -50.7163 H         1 UNK         0.0600 
    189 H189       -2.6951  -13.9872  -49.8999 H         1 UNK         0.3000 
    190 H190        2.5545  -23.9584  -45.1909 H         1 UNK         0.3000 
    191 H191        1.4015  -25.8290  -45.0401 H         1 UNK         0.0600 
    192 H192        2.0012  -27.9012  -46.1940 H         1 UNK         0.0600 
    193 H193        3.4751  -27.1044  -45.6675 H         1 UNK         0.0600 
    194 H194        2.9903  -27.0411  -47.3622 H         1 UNK         0.0600 
    195 H195        0.4469  -23.6216  -46.3351 H         1 UNK         0.3000 
    196 H196       -1.3019  -24.5594  -48.5594 H         1 UNK         0.0600 
    197 H197       -0.6364  -21.7601  -47.4938 H         1 UNK         0.0600 
    198 H198       -0.0330  -22.4664  -48.9844 H         1 UNK         0.0600 
    199 H199       -1.7402  -22.0991  -48.8236 H         1 UNK         0.0600 
    200 H200       -3.5779  -23.6436  -48.3721 H         1 UNK         0.3000 
    201 H201       -4.7375  -24.7669  -45.9711 H         1 UNK         0.0600 
    202 H202       -6.8601  -24.4509  -47.2309 H         1 UNK         0.0600 
    203 H203       -5.6453  -25.2057  -48.2489 H         1 UNK         0.0600 
    204 H204       -6.0219  -23.4945  -48.4439 H         1 UNK         0.0600 
    205 H205       -3.9071  -21.5731  -46.8728 H         1 UNK         0.3000 
    206 H206       -4.0349  -19.5741  -45.9303 H         1 UNK         0.0600 
    207 H207       -4.0193  -20.6117  -43.6354 H         1 UNK         0.0600 
    208 H208       -4.9460  -19.1170  -43.7152 H         1 UNK         0.0600 
    209 H209       -5.7792  -20.6571  -43.6585 H         1 UNK         0.0600 
    210 H210       -7.1144  -21.3129  -46.0165 H         1 UNK         0.3000 
    211 H211       -8.6844  -19.0588  -47.0313 H         1 UNK         0.0600 
    212 H212       -9.2145  -22.0829  -46.9973 H         1 UNK         0.0600 
    213 H213      -10.3959  -20.8409  -47.3970 H         1 UNK         0.0600 
    214 H214       -9.7441  -20.9335  -45.7688 H         1 UNK         0.0600 
    215 H215       -6.2161  -20.9717  -48.3405 H         1 UNK         0.3000 
    216 H216       -6.5348  -19.9743  -50.9712 H         1 UNK         0.0600 
    217 H217       -8.0168  -22.1681  -50.9023 H         1 UNK         0.0600 
    218 H218       -6.4997  -23.0434  -50.7434 H         1 UNK         0.0600 
    219 H219       -6.8280  -22.0650  -52.1697 H         1 UNK         0.0600 
    220 H220       -2.9716  -21.0009  -51.1157 H         1 UNK         0.3000 
    221 H221       -5.2982  -20.3044  -52.8160 H         1 UNK         0.0600 
    222 H222       -4.6508  -22.0176  -54.4269 H         1 UNK         0.0600 
    223 H223       -3.2258  -22.4656  -53.4956 H         1 UNK         0.0600 
    224 H224       -4.8249  -22.8526  -52.8942 H         1 UNK         0.0600 
    225 H225       -3.7044  -18.3490  -51.8495 H         1 UNK         0.3000 
    226 H226       -1.2295  -17.9566  -53.1897 H         1 UNK         0.0600 
    227 H227       -1.7595  -16.7806  -51.1297 H         1 UNK         0.0600 
    228 H228       -1.4527  -15.6015  -52.3908 H         1 UNK         0.0600 
    229 H229       -3.1113  -15.9321  -51.9020 H         1 UNK         0.0600 
    230 H230       -4.5228  -17.1488  -54.1399 H         1 UNK         0.3000 
    231 H231       -3.9033  -15.5027  -56.4063 H         1 UNK         0.0600 
    232 H232       -6.3041  -15.9055  -56.9688 H         1 UNK         0.0600 
    233 H233       -6.1170  -15.4765  -55.2764 H         1 UNK         0.0600 
    234 H234       -6.3988  -17.1567  -55.7355 H         1 UNK         0.0600 
    235 H235       -3.7587  -18.9676  -55.9251 H         1 UNK         0.3000 
    236 H236       -3.9022  -19.5895  -58.8131 H         1 UNK         0.0600 
    237 H237       -5.0430  -21.0981  -57.1604 H         1 UNK         0.0600 
    238 H238       -3.7995  -21.9181  -58.0925 H         1 UNK         0.0600 
    239 H239       -3.4791  -21.4602  -56.4296 H         1 UNK         0.0600 
    240 H240       -1.5720  -19.7865  -56.0332 H         1 UNK         0.3000 
    241 H241        0.5715  -20.5847  -57.8110 H         1 UNK         0.0600 
    242 H242       -0.4584  -17.3396  -56.7181 H         1 UNK         0.3800 
    243 H243        0.8776  -16.5488  -57.5117 H         1 UNK         0.3800 
    244 H244        1.9978  -20.7665  -55.9155 H         1 UNK         0.0800 
    245 H245        0.4606  -21.4880  -55.5450 H         1 UNK         0.0800 
    246 H246        1.4965  -21.5346  -53.0906 H         1 UNK         0.0800 
    247 H247       -0.2368  -21.2957  -53.0467 H         1 UNK         0.0800 
@<TRIPOS>BOND
     1    1    2 1    
     2    1  127 1    
     3    1  128 1    
     4    1  129 1    
     5    2    3 2    
     6    2    4 am   BACKBONE|DICT|INTERRES
     7    4    5 1    
     8    4  130 1    
     9    5    6 1    
    10    5   65 1    
    11    5  131 1    
    12    6    7 1    
    13    6  132 1    
    14    6  133 1    
    15    7    8 1    
    16    8    9 1    
    17    8  134 1    
    18    8  135 1    
    19    9   10 ar   
    20    9   14 ar   
    21   10   11 ar   
    22   10  136 1    
    23   11   12 ar   
    24   11  126 1    
    25   12   13 ar   
    26   12  137 1    
    27   13   14 ar   
    28   13   15 1    
    29   14  138 1    
    30   15   16 1    
    31   15  139 1    
    32   15  140 1    
    33   16   17 1    
    34   17   18 1    
    35   17  141 1    
    36   17  142 1    
    37   18   19 1    
    38   18   67 1    
    39   18  143 1    
    40   19   20 am   BACKBONE|DICT|INTERRES
    41   19  144 1    
    42   20   21 2    
    43   20   22 1    
    44   22   23 1    
    45   22   24 1    
    46   22  145 1    
    47   23  146 1    
    48   23  147 1    
    49   23  148 1    
    50   24   25 am   BACKBONE|DICT|INTERRES
    51   24  149 1    
    52   25   26 2    
    53   25   27 1    
    54   27   28 1    
    55   27   29 1    
    56   27  150 1    
    57   28  151 1    
    58   28  152 1    
    59   28  153 1    
    60   29   30 am   BACKBONE|DICT|INTERRES
    61   29  154 1    
    62   30   31 2    
    63   30   32 1    
    64   32   33 1    
    65   32   34 1    
    66   32  155 1    
    67   33  156 1    
    68   33  157 1    
    69   33  158 1    
    70   34   35 am   BACKBONE|DICT|INTERRES
    71   34  159 1    
    72   35   36 2    
    73   35   37 1    
    74   37   38 1    
    75   37   39 1    
    76   37  160 1    
    77   38  161 1    
    78   38  162 1    
    79   38  163 1    
    80   39   40 am   BACKBONE|DICT|INTERRES
    81   39  164 1    
    82   40   41 2    
    83   40   42 1    
    84   42   43 1    
    85   42   44 1    
    86   42  165 1    
    87   43  166 1    
    88   43  167 1    
    89   43  168 1    
    90   44   45 am   BACKBONE|DICT|INTERRES
    91   44  169 1    
    92   45   46 2    
    93   45   47 1    
    94   47   48 1    
    95   47   49 1    
    96   47  170 1    
    97   48  171 1    
    98   48  172 1    
    99   48  173 1    
   100   49   50 am   BACKBONE|DICT|INTERRES
   101   49  174 1    
   102   50   51 2    
   103   50   52 1    
   104   52   53 1    
   105   52   54 1    
   106   52  175 1    
   107   53  176 1    
   108   53  177 1    
   109   53  178 1    
   110   54   55 am   BACKBONE|DICT|INTERRES
   111   54  179 1    
   112   55   56 2    
   113   55   57 1    
   114   57   58 1    
   115   57   59 1    
   116   57  180 1    
   117   58  181 1    
   118   58  182 1    
   119   58  183 1    
   120   59   60 am   BACKBONE|DICT|INTERRES
   121   59  184 1    
   122   60   61 2    
   123   60   62 1    
   124   62   63 1    
   125   62   64 1    
   126   62  185 1    
   127   63  186 1    
   128   63  187 1    
   129   63  188 1    
   130   64   65 am   BACKBONE|DICT|INTERRES
   131   64  189 1    
   132   65   66 2    
   133   67   68 2    
   134   67   69 am   BACKBONE|DICT|INTERRES
   135   69   70 1    
   136   69  190 1    
   137   70   71 1    
   138   70   72 1    
   139   70  191 1    
   140   71  192 1    
   141   71  193 1    
   142   71  194 1    
   143   72   73 2    
   144   72   74 am   BACKBONE|DICT|INTERRES
   145   74   75 1    
   146   74  195 1    
   147   75   76 1    
   148   75   77 1    
   149   75  196 1    
   150   76  197 1    
   151   76  198 1    
   152   76  199 1    
   153   77   78 2    
   154   77   79 am   BACKBONE|DICT|INTERRES
   155   79   80 1    
   156   79  200 1    
   157   80   81 1    
   158   80   82 1    
   159   80  201 1    
   160   81  202 1    
   161   81  203 1    
   162   81  204 1    
   163   82   83 2    
   164   82   84 am   BACKBONE|DICT|INTERRES
   165   84   85 1    
   166   84  205 1    
   167   85   86 1    
   168   85   87 1    
   169   85  206 1    
   170   86  207 1    
   171   86  208 1    
   172   86  209 1    
   173   87   88 2    
   174   87   89 am   BACKBONE|DICT|INTERRES
   175   89   90 1    
   176   89  210 1    
   177   90   91 1    
   178   90   92 1    
   179   90  211 1    
   180   91  212 1    
   181   91  213 1    
   182   91  214 1    
   183   92   93 2    
   184   92   94 am   BACKBONE|DICT|INTERRES
   185   94   95 1    
   186   94  215 1    
   187   95   96 1    
   188   95   97 1    
   189   95  216 1    
   190   96  217 1    
   191   96  218 1    
   192   96  219 1    
   193   97   98 2    
   194   97   99 am   BACKBONE|DICT|INTERRES
   195   99  100 1    
   196   99  220 1    
   197  100  101 1    
   198  100  102 1    
   199  100  221 1    
   200  101  222 1    
   201  101  223 1    
   202  101  224 1    
   203  102  103 2    
   204  102  104 am   BACKBONE|DICT|INTERRES
   205  104  105 1    
   206  104  225 1    
   207  105  106 1    
   208  105  107 1    
   209  105  226 1    
   210  106  227 1    
   211  106  228 1    
   212  106  229 1    
   213  107  108 2    
   214  107  109 am   BACKBONE|DICT|INTERRES
   215  109  110 1    
   216  109  230 1    
   217  110  111 1    
   218  110  112 1    
   219  110  231 1    
   220  111  232 1    
   221  111  233 1    
   222  111  234 1    
   223  112  113 2    
   224  112  114 am   BACKBONE|DICT|INTERRES
   225  114  115 1    
   226  114  235 1    
   227  115  116 1    
   228  115  117 1    
   229  115  236 1    
   230  116  237 1    
   231  116  238 1    
   232  116  239 1    
   233  117  118 2    
   234  117  119 am   BACKBONE|DICT|INTERRES
   235  119  120 1    
   236  119  240 1    
   237  120  121 1    
   238  120  124 1    
   239  120  241 1    
   240  121  122 am   BACKBONE|DICT|INTERRES
   241  121  123 2    
   242  122  242 1    
   243  122  243 1    
   244  124  125 1    
   245  124  244 1    
   246  124  245 1    
   247  125  126 1    
   248  126  246 1    
   249  126  247 1    
@<TRIPOS>SUBSTRUCTURE
     1 UNK         1 GROUP             0       ****    0 ROOT    
