@<TRIPOS>MOLECULE
3R540
247   249    1
SMALL
USER_CHARGES


@<TRIPOS>ATOM
      1 CA          0.0230  -11.7290  -45.3462 C.3       0 UNK        -0.1800 
      2 C           1.0656  -12.0534  -46.4064 C.2       0 UNK         0.5000 
      3 O           2.0380  -11.3137  -46.5553 O.2       0 UNK        -0.5000 
      4 N           0.8799  -13.1696  -47.1255 N.am      1 UNK        -0.5000 
      5 CA          1.7549  -13.6717  -48.1987 C.3       1 UNK         0.1400 
      6 C6          1.2062  -14.9730  -48.8342 C.3       23 UNK        -0.0398 
      7 S7         -0.5123  -14.8301  -49.4345 S.3       23 UNK        -0.2404 
      8 C8         -1.2525  -16.3724  -48.8065 C.3       23 UNK        -0.0205 
      9 C9         -0.8940  -17.5766  -49.6667 C.ar      23 UNK        -0.0193 
     10 C10        -1.7789  -18.0225  -50.6515 C.ar      23 UNK        -0.1150 
     11 C11        -1.4717  -19.1445  -51.4253 C.ar      23 UNK        -0.0193 
     12 C12        -0.2769  -19.8302  -51.1921 C.ar      23 UNK        -0.1150 
     13 C13         0.6204  -19.4065  -50.2058 C.ar      23 UNK        -0.0193 
     14 C14         0.3097  -18.2590  -49.4663 C.ar      23 UNK        -0.1150 
     15 C15         1.9016  -20.2238  -50.0061 C.3       23 UNK        -0.0205 
     16 S16         3.0053  -19.7908  -48.6061 S.3       23 UNK        -0.2404 
     17 C17         2.0143  -19.9076  -47.0710 C.3       23 UNK        -0.0398 
     18 CA          1.4806  -21.3023  -46.6562 C.3       11 UNK         0.1400 
     19 N           1.1922  -21.3380  -45.2180 N.am      11 UNK        -0.5000 
     20 C           0.7258  -22.3868  -44.5248 C.2       10 UNK         0.5000 
     21 O           0.5609  -23.5096  -44.9998 O.2       10 UNK        -0.5000 
     22 CA          0.3164  -22.1169  -43.0647 C.3       10 UNK         0.1400 
     23 CB          1.5430  -22.0998  -42.1406 C.3       10 UNK        -0.1800 
     24 N          -0.4380  -20.8700  -42.9139 N.am      10 UNK        -0.5000 
     25 C          -1.6375  -20.6417  -43.4699 C.2       9 UNK         0.5000 
     26 O          -2.2525  -21.4762  -44.1323 O.2       9 UNK        -0.5000 
     27 CA         -2.2362  -19.2351  -43.2958 C.3       9 UNK         0.1400 
     28 CB         -2.8883  -19.0847  -41.9135 C.3       9 UNK        -0.1800 
     29 N          -1.2497  -18.1747  -43.4989 N.am      9 UNK        -0.5000 
     30 C          -0.6223  -17.9329  -44.6584 C.2       8 UNK         0.5000 
     31 O          -0.8490  -18.5459  -45.7006 O.2       8 UNK        -0.5000 
     32 CA          0.4831  -16.8618  -44.6416 C.3       8 UNK         0.1400 
     33 CB         -0.1188  -15.4531  -44.7299 C.3       8 UNK        -0.1800 
     34 N           1.3373  -16.9532  -43.4578 N.am      8 UNK        -0.5000 
     35 C           2.0945  -18.0143  -43.1431 C.2       7 UNK         0.5000 
     36 O           2.1920  -19.0179  -43.8469 O.2       7 UNK        -0.5000 
     37 CA          2.8220  -17.9683  -41.7901 C.3       7 UNK         0.1400 
     38 CB          4.1118  -17.1401  -41.8796 C.3       7 UNK        -0.1800 
     39 N           1.9611  -17.4359  -40.7355 N.am      7 UNK        -0.5000 
     40 C           0.8927  -18.0785  -40.2427 C.2       6 UNK         0.5000 
     41 O           0.5468  -19.2053  -40.5987 O.2       6 UNK        -0.5000 
     42 CA          0.0469  -17.3113  -39.2108 C.3       6 UNK         0.1400 
     43 CB          0.6598  -17.4326  -37.8078 C.3       6 UNK        -0.1800 
     44 N          -0.1051  -15.8963  -39.5553 N.am      6 UNK        -0.5000 
     45 C          -0.7880  -15.4484  -40.6184 C.2       5 UNK         0.5000 
     46 O          -1.3851  -16.1819  -41.4044 O.2       5 UNK        -0.5000 
     47 CA         -0.7608  -13.9305  -40.8714 C.3       5 UNK         0.1400 
     48 CB         -1.8655  -13.2277  -40.0689 C.3       5 UNK        -0.1800 
     49 N           0.5332  -13.3169  -40.5620 N.am      5 UNK        -0.5000 
     50 C           1.6736  -13.5911  -41.2074 C.2       4 UNK         0.5000 
     51 O           1.7680  -14.4291  -42.1077 O.2       4 UNK        -0.5000 
     52 CA          2.9253  -12.8315  -40.7429 C.3       4 UNK         0.1400 
     53 CB          3.7888  -13.7143  -39.8297 C.3       4 UNK        -0.1800 
     54 N           3.7156  -12.4130  -41.8959 N.am      4 UNK        -0.5000 
     55 C           3.4385  -11.3523  -42.6610 C.2       3 UNK         0.5000 
     56 O           2.5314  -10.5554  -42.4176 O.2       3 UNK        -0.5000 
     57 CA          4.3055  -11.1494  -43.9166 C.3       3 UNK         0.1400 
     58 CB          5.7313  -10.6864  -43.5590 C.3       3 UNK        -0.1800 
     59 N           4.3130  -12.3049  -44.8214 N.am      3 UNK        -0.5000 
     60 C           4.8524  -13.5216  -44.6469 C.2       2 UNK         0.5000 
     61 O           5.4647  -13.8584  -43.6320 O.2       2 UNK        -0.5000 
     62 CA          4.6509  -14.5302  -45.7964 C.3       2 UNK         0.1400 
     63 CB          4.6882  -15.9920  -45.3200 C.3       2 UNK        -0.1800 
     64 N           3.3733  -14.2941  -46.4664 N.am      2 UNK        -0.5000 
     65 C           3.2107  -13.9151  -47.7400 C.2       1 UNK         0.5000 
     66 O           4.1367  -13.7501  -48.5345 O.2       1 UNK        -0.5000 
     67 C           0.2338  -21.6980  -47.4712 C.2       11 UNK         0.5000 
     68 O           0.2936  -22.6504  -48.2487 O.2       11 UNK        -0.5000 
     69 N          -0.8803  -20.9890  -47.2390 N.am      12 UNK        -0.5000 
     70 CA         -2.1650  -21.2057  -47.8993 C.3       12 UNK         0.1400 
     71 CB         -3.1690  -20.1474  -47.4164 C.3       12 UNK        -0.1800 
     72 C          -2.7198  -22.6261  -47.6964 C.2       12 UNK         0.5000 
     73 O          -3.1557  -23.2446  -48.6666 O.2       12 UNK        -0.5000 
     74 N          -2.6596  -23.1276  -46.4553 N.am      13 UNK        -0.5000 
     75 CA         -3.0805  -24.4783  -46.0835 C.3       13 UNK         0.1400 
     76 CB         -3.0732  -24.6140  -44.5534 C.3       13 UNK        -0.1800 
     77 C          -2.2225  -25.5822  -46.7281 C.2       13 UNK         0.5000 
     78 O          -2.7691  -26.6078  -47.1357 O.2       13 UNK        -0.5000 
     79 N          -0.9038  -25.3571  -46.8132 N.am      14 UNK        -0.5000 
     80 CA          0.0440  -26.2654  -47.4577 C.3       14 UNK         0.1400 
     81 CB          1.4788  -25.8804  -47.0654 C.3       14 UNK        -0.1800 
     82 C          -0.1143  -26.2926  -48.9881 C.2       14 UNK         0.5000 
     83 O          -0.0422  -27.3685  -49.5834 O.2       14 UNK        -0.5000 
     84 N          -0.3215  -25.1152  -49.5927 N.am      15 UNK        -0.5000 
     85 CA         -0.5211  -24.9418  -51.0286 C.3       15 UNK         0.1400 
     86 CB         -0.3640  -23.4579  -51.3949 C.3       15 UNK        -0.1800 
     87 C          -1.8774  -25.4907  -51.4997 C.2       15 UNK         0.5000 
     88 O          -1.9047  -26.3895  -52.3415 O.2       15 UNK        -0.5000 
     89 N          -2.9675  -24.9285  -50.9532 N.am      16 UNK        -0.5000 
     90 CA         -4.3742  -25.2273  -51.2521 C.3       16 UNK         0.1400 
     91 CB         -4.7668  -26.5789  -50.6226 C.3       16 UNK        -0.1800 
     92 C          -4.7281  -25.1399  -52.7563 C.2       16 UNK         0.5000 
     93 O          -5.5474  -25.9190  -53.2484 O.2       16 UNK        -0.5000 
     94 N          -4.0736  -24.2154  -53.4709 N.am      17 UNK        -0.5000 
     95 CA         -4.1902  -24.0291  -54.9123 C.3       17 UNK         0.1400 
     96 CB         -2.9453  -23.2817  -55.4210 C.3       17 UNK        -0.1800 
     97 C          -5.4822  -23.2722  -55.2509 C.2       17 UNK         0.5000 
     98 O          -5.5213  -22.0509  -55.1148 O.2       17 UNK        -0.5000 
     99 N          -6.5119  -24.0050  -55.6949 N.am      18 UNK        -0.5000 
    100 CA        -7.8539  -23.4961  -56.0082 C.3       18 UNK         0.1400 
    101 CB        -8.7630  -24.6853  -56.3551 C.3       18 UNK        -0.1800 
    102 C         -7.9098  -22.4310  -57.1247 C.2       18 UNK         0.5000 
    103 O         -8.8854  -21.6831  -57.1982 O.2       18 UNK        -0.5000 
    104 N         -6.8681  -22.3723  -57.9650 N.am      19 UNK        -0.5000 
    105 CA        -6.6665  -21.3344  -58.9774 C.3       19 UNK         0.1400 
    106 CB        -5.6371  -21.8415  -59.9999 C.3       19 UNK        -0.1800 
    107 C         -6.2138  -19.9823  -58.3835 C.2       19 UNK         0.5000 
    108 O         -6.3138  -18.9637  -59.0695 O.2       19 UNK        -0.5000 
    109 N         -5.7161  -19.9931  -57.1411 N.am      20 UNK        -0.5000 
    110 CA        -5.2639  -18.8313  -56.3843 C.3       20 UNK         0.1400 
    111 CB        -3.8309  -19.1099  -55.8952 C.3       20 UNK        -0.1800 
    112 C         -6.2130  -18.5702  -55.1999 C.2       20 UNK         0.5000 
    113 O         -7.1739  -19.3141  -54.9829 O.2       20 UNK        -0.5000 
    114 N         -5.9134  -17.5138  -54.4319 N.am      21 UNK        -0.5000 
    115 CA        -6.6820  -17.0617  -53.2657 C.3       21 UNK         0.1400 
    116 CB        -6.0645  -15.7535  -52.7468 C.3       21 UNK        -0.1800 
    117 C         -6.7881  -18.0918  -52.1210 C.2       21 UNK         0.5000 
    118 O         -7.7147  -18.0021  -51.3146 O.2       21 UNK        -0.5000 
    119 N         -5.8496  -19.0447  -52.0739 N.am      22 UNK        -0.5000 
    120 CA        -5.8423  -20.1798  -51.1422 C.3       22 UNK         0.1400 
    121 C         -6.7301  -21.3852  -51.5746 C.2       22 UNK         0.5000 
    122 N         -7.3993  -21.3522  -52.7202 N.am      22 UNK        -0.7600 
    123 O         -6.8403  -22.3618  -50.8388 O.2       22 UNK        -0.5000 
    124 C124       -4.3998  -20.5910  -50.7555 C.3       23 UNK        -0.0398 
    125 S125       -3.3306  -21.1147  -52.1403 S.3       23 UNK        -0.2404 
    126 C126       -2.4100  -19.5918  -52.5381 C.3       23 UNK        -0.0205 
    127 H127       -0.3653  -10.7218  -45.4970 H         1 UNK         0.0600 
    128 H128        0.4721  -11.7777  -44.3537 H         1 UNK         0.0600 
    129 H129       -0.8160  -12.4245  -45.3748 H         1 UNK         0.0600 
    130 H130        0.0329  -13.7009  -46.9875 H         1 UNK         0.3000 
    131 H131        1.7853  -12.9009  -48.9715 H         1 UNK         0.0600 
    132 H132        1.8265  -15.2808  -49.6783 H         1 UNK         0.0800 
    133 H133        1.2631  -15.7792  -48.1025 H         1 UNK         0.0800 
    134 H134       -2.3362  -16.2493  -48.7799 H         1 UNK         0.0800 
    135 H135       -0.9502  -16.5483  -47.7736 H         1 UNK         0.0800 
    136 H136       -2.7043  -17.4899  -50.8206 H         1 UNK         0.1150 
    137 H137       -0.0419  -20.6972  -51.7922 H         1 UNK         0.1150 
    138 H138        1.0004  -17.8851  -48.7313 H         1 UNK         0.1150 
    139 H139        1.6524  -21.2814  -49.9392 H         1 UNK         0.0800 
    140 H140        2.4930  -20.1262  -50.9173 H         1 UNK         0.0800 
    141 H141        1.2185  -19.1687  -47.0664 H         1 UNK         0.0800 
    142 H142        2.7026  -19.5627  -46.2996 H         1 UNK         0.0800 
    143 H143        2.2586  -22.0443  -46.8457 H         1 UNK         0.0600 
    144 H144        1.3393  -20.4669  -44.7144 H         1 UNK         0.3000 
    145 H145       -0.3323  -22.9360  -42.7475 H         1 UNK         0.0600 
    146 H146        1.2483  -21.9798  -41.0979 H         1 UNK         0.0600 
    147 H147        2.1007  -23.0340  -42.2160 H         1 UNK         0.0600 
    148 H148        2.2269  -21.2884  -42.3891 H         1 UNK         0.0600 
    149 H149       -0.0143  -20.1452  -42.3444 H         1 UNK         0.3000 
    150 H150       -3.0155  -19.1114  -44.0503 H         1 UNK         0.0600 
    151 H151       -3.6352  -19.8619  -41.7472 H         1 UNK         0.0600 
    152 H152       -3.3933  -18.1233  -41.8196 H         1 UNK         0.0600 
    153 H153       -2.1546  -19.1562  -41.1104 H         1 UNK         0.0600 
    154 H154       -1.0538  -17.5779  -42.7004 H         1 UNK         0.3000 
    155 H155        1.1156  -17.0190  -45.5178 H         1 UNK         0.0600 
    156 H156       -0.6864  -15.3268  -45.6518 H         1 UNK         0.0600 
    157 H157        0.6597  -14.6918  -44.7083 H         1 UNK         0.0600 
    158 H158       -0.7973  -15.2527  -43.9012 H         1 UNK         0.0600 
    159 H159        1.3527  -16.1435  -42.8433 H         1 UNK         0.3000 
    160 H160        3.0960  -18.9908  -41.5219 H         1 UNK         0.0600 
    161 H161        3.9142  -16.1097  -42.1756 H         1 UNK         0.0600 
    162 H162        4.7947  -17.5659  -42.6157 H         1 UNK         0.0600 
    163 H163        4.6368  -17.1215  -40.9247 H         1 UNK         0.0600 
    164 H164        2.1486  -16.4952  -40.4242 H         1 UNK         0.3000 
    165 H165       -0.9461  -17.7655  -39.1904 H         1 UNK         0.0600 
    166 H166        0.0268  -16.9565  -37.0588 H         1 UNK         0.0600 
    167 H167        0.7706  -18.4791  -37.5203 H         1 UNK         0.0600 
    168 H168        1.6469  -16.9715  -37.7558 H         1 UNK         0.0600 
    169 H169        0.3553  -15.2252  -38.9585 H         1 UNK         0.3000 
    170 H170       -0.9594  -13.7698  -41.9330 H         1 UNK         0.0600 
    171 H171       -2.8437  -13.6539  -40.2960 H         1 UNK         0.0600 
    172 H172       -1.7073  -13.3231  -38.9940 H         1 UNK         0.0600 
    173 H173       -1.9123  -12.1654  -40.3091 H         1 UNK         0.0600 
    174 H174        0.5372  -12.6206  -39.8305 H         1 UNK         0.3000 
    175 H175        2.6210  -11.9475  -40.1784 H         1 UNK         0.0600 
    176 H176        3.2213  -14.0588  -38.9643 H         1 UNK         0.0600 
    177 H177        4.1620  -14.5949  -40.3517 H         1 UNK         0.0600 
    178 H178        4.6504  -13.1626  -39.4537 H         1 UNK         0.0600 
    179 H179        4.4292  -13.0554  -42.2283 H         1 UNK         0.3000 
    180 H180        3.8413  -10.3424  -44.4860 H         1 UNK         0.0600 
    181 H181        6.2702  -11.4265  -42.9672 H         1 UNK         0.0600 
    182 H182        5.7033   -9.7651  -42.9761 H         1 UNK         0.0600 
    183 H183        6.3159  -10.4850  -44.4566 H         1 UNK         0.0600 
    184 H184        3.7834  -12.1542  -45.6730 H         1 UNK         0.3000 
    185 H185        5.4823  -14.3794  -46.4876 H         1 UNK         0.0600 
    186 H186        3.8804  -16.1964  -44.6201 H         1 UNK         0.0600 
    187 H187        4.5841  -16.6819  -46.1577 H         1 UNK         0.0600 
    188 H188        5.6299  -16.2263  -44.8223 H         1 UNK         0.0600 
    189 H189        2.5519  -14.3631  -45.8837 H         1 UNK         0.3000 
    190 H190       -0.8431  -20.2113  -46.5846 H         1 UNK         0.3000 
    191 H191       -2.0069  -21.0648  -48.9703 H         1 UNK         0.0600 
    192 H192       -3.2719  -20.1581  -46.3315 H         1 UNK         0.0600 
    193 H193       -4.1609  -20.3158  -47.8356 H         1 UNK         0.0600 
    194 H194       -2.8535  -19.1463  -47.7111 H         1 UNK         0.0600 
    195 H195       -2.3214  -22.5343  -45.7013 H         1 UNK         0.3000 
    196 H196       -4.1068  -24.6133  -46.4314 H         1 UNK         0.0600 
    197 H197       -3.3930  -25.6105  -44.2464 H         1 UNK         0.0600 
    198 H198       -3.7524  -23.8975  -44.0913 H         1 UNK         0.0600 
    199 H199       -2.0778  -24.4451  -44.1406 H         1 UNK         0.0600 
    200 H200       -0.5193  -24.5065  -46.4141 H         1 UNK         0.3000 
    201 H201       -0.1457  -27.2745  -47.0857 H         1 UNK         0.0600 
    202 H202        1.6224  -25.9463  -45.9869 H         1 UNK         0.0600 
    203 H203        1.7219  -24.8626  -47.3727 H         1 UNK         0.0600 
    204 H204        2.2046  -26.5476  -47.5318 H         1 UNK         0.0600 
    205 H205       -0.3095  -24.2687  -49.0286 H         1 UNK         0.3000 
    206 H206        0.2611  -25.4969  -51.5507 H         1 UNK         0.0600 
    207 H207        0.6526  -23.1166  -51.2021 H         1 UNK         0.0600 
    208 H208       -0.5702  -23.2872  -52.4524 H         1 UNK         0.0600 
    209 H209       -1.0412  -22.8253  -50.8196 H         1 UNK         0.0600 
    210 H210       -2.8357  -24.2272  -50.2271 H         1 UNK         0.3000 
    211 H211       -4.9588  -24.4499  -50.7585 H         1 UNK         0.0600 
    212 H212       -4.2444  -27.4103  -51.0968 H         1 UNK         0.0600 
    213 H213       -5.8373  -26.7625  -50.7205 H         1 UNK         0.0600 
    214 H214       -4.5312  -26.5987  -49.5582 H         1 UNK         0.0600 
    215 H215       -3.4660  -23.5725  -52.9831 H         1 UNK         0.3000 
    216 H216       -4.2132  -25.0072  -55.3975 H         1 UNK         0.0600 
    217 H217       -3.0033  -23.1144  -56.4972 H         1 UNK         0.0600 
    218 H218       -2.0377  -23.8540  -55.2282 H         1 UNK         0.0600 
    219 H219       -2.8315  -22.3074  -54.9445 H         1 UNK         0.0600 
    220 H220       -6.3965  -25.0074  -55.7451 H         1 UNK         0.3000 
    221 H221       -8.2416  -23.0246  -55.1035 H         1 UNK         0.0600 
    222 H222       -8.4071  -25.2181  -57.2377 H         1 UNK         0.0600 
    223 H223       -8.8153  -25.3964  -55.5304 H         1 UNK         0.0600 
    224 H224       -9.7819  -24.3537  -56.5603 H         1 UNK         0.0600 
    225 H225       -6.1172  -23.0341  -57.8375 H         1 UNK         0.3000 
    226 H226       -7.6115  -21.1657  -59.4980 H         1 UNK         0.0600 
    227 H227       -5.9718  -22.7653  -60.4724 H         1 UNK         0.0600 
    228 H228       -5.4815  -21.1101  -60.7941 H         1 UNK         0.0600 
    229 H229       -4.6689  -22.0321  -59.5350 H         1 UNK         0.0600 
    230 H230       -5.7525  -20.8529  -56.6000 H         1 UNK         0.3000 
    231 H231       -5.2561  -17.9387  -57.0128 H         1 UNK         0.0600 
    232 H232       -3.1714  -19.3490  -56.7297 H         1 UNK         0.0600 
    233 H233       -3.8008  -19.9491  -55.1997 H         1 UNK         0.0600 
    234 H234       -3.4036  -18.2442  -55.3887 H         1 UNK         0.0600 
    235 H235       -5.1121  -16.9501  -54.6763 H         1 UNK         0.3000 
    236 H236       -7.6987  -16.8509  -53.6037 H         1 UNK         0.0600 
    237 H237       -6.6268  -15.3649  -51.8965 H         1 UNK         0.0600 
    238 H238       -5.0338  -15.8979  -52.4198 H         1 UNK         0.0600 
    239 H239       -6.0691  -14.9811  -53.5161 H         1 UNK         0.0600 
    240 H240       -5.1555  -19.0727  -52.8043 H         1 UNK         0.3000 
    241 H241       -6.3032  -19.8347  -50.2147 H         1 UNK         0.0600 
    242 H242       -7.9775  -22.1370  -52.9659 H         1 UNK         0.3800 
    243 H243       -7.2782  -20.5925  -53.3813 H         1 UNK         0.3800 
    244 H244       -3.9234  -19.7653  -50.2296 H         1 UNK         0.0800 
    245 H245       -4.4329  -21.4101  -50.0379 H         1 UNK         0.0800 
    246 H246       -3.1105  -18.7954  -52.7894 H         1 UNK         0.0800 
    247 H247       -1.8244  -19.7705  -53.4409 H         1 UNK         0.0800 
@<TRIPOS>BOND
     1    1    2 1    
     2    1  127 1    
     3    1  128 1    
     4    1  129 1    
     5    2    3 2    
     6    2    4 am   BACKBONE|DICT|INTERRES
     7    4    5 1    
     8    4  130 1    
     9    5    6 1    
    10    5   65 1    
    11    5  131 1    
    12    6    7 1    
    13    6  132 1    
    14    6  133 1    
    15    7    8 1    
    16    8    9 1    
    17    8  134 1    
    18    8  135 1    
    19    9   10 ar   
    20    9   14 ar   
    21   10   11 ar   
    22   10  136 1    
    23   11   12 ar   
    24   11  126 1    
    25   12   13 ar   
    26   12  137 1    
    27   13   14 ar   
    28   13   15 1    
    29   14  138 1    
    30   15   16 1    
    31   15  139 1    
    32   15  140 1    
    33   16   17 1    
    34   17   18 1    
    35   17  141 1    
    36   17  142 1    
    37   18   19 1    
    38   18   67 1    
    39   18  143 1    
    40   19   20 am   BACKBONE|DICT|INTERRES
    41   19  144 1    
    42   20   21 2    
    43   20   22 1    
    44   22   23 1    
    45   22   24 1    
    46   22  145 1    
    47   23  146 1    
    48   23  147 1    
    49   23  148 1    
    50   24   25 am   BACKBONE|DICT|INTERRES
    51   24  149 1    
    52   25   26 2    
    53   25   27 1    
    54   27   28 1    
    55   27   29 1    
    56   27  150 1    
    57   28  151 1    
    58   28  152 1    
    59   28  153 1    
    60   29   30 am   BACKBONE|DICT|INTERRES
    61   29  154 1    
    62   30   31 2    
    63   30   32 1    
    64   32   33 1    
    65   32   34 1    
    66   32  155 1    
    67   33  156 1    
    68   33  157 1    
    69   33  158 1    
    70   34   35 am   BACKBONE|DICT|INTERRES
    71   34  159 1    
    72   35   36 2    
    73   35   37 1    
    74   37   38 1    
    75   37   39 1    
    76   37  160 1    
    77   38  161 1    
    78   38  162 1    
    79   38  163 1    
    80   39   40 am   BACKBONE|DICT|INTERRES
    81   39  164 1    
    82   40   41 2    
    83   40   42 1    
    84   42   43 1    
    85   42   44 1    
    86   42  165 1    
    87   43  166 1    
    88   43  167 1    
    89   43  168 1    
    90   44   45 am   BACKBONE|DICT|INTERRES
    91   44  169 1    
    92   45   46 2    
    93   45   47 1    
    94   47   48 1    
    95   47   49 1    
    96   47  170 1    
    97   48  171 1    
    98   48  172 1    
    99   48  173 1    
   100   49   50 am   BACKBONE|DICT|INTERRES
   101   49  174 1    
   102   50   51 2    
   103   50   52 1    
   104   52   53 1    
   105   52   54 1    
   106   52  175 1    
   107   53  176 1    
   108   53  177 1    
   109   53  178 1    
   110   54   55 am   BACKBONE|DICT|INTERRES
   111   54  179 1    
   112   55   56 2    
   113   55   57 1    
   114   57   58 1    
   115   57   59 1    
   116   57  180 1    
   117   58  181 1    
   118   58  182 1    
   119   58  183 1    
   120   59   60 am   BACKBONE|DICT|INTERRES
   121   59  184 1    
   122   60   61 2    
   123   60   62 1    
   124   62   63 1    
   125   62   64 1    
   126   62  185 1    
   127   63  186 1    
   128   63  187 1    
   129   63  188 1    
   130   64   65 am   BACKBONE|DICT|INTERRES
   131   64  189 1    
   132   65   66 2    
   133   67   68 2    
   134   67   69 am   BACKBONE|DICT|INTERRES
   135   69   70 1    
   136   69  190 1    
   137   70   71 1    
   138   70   72 1    
   139   70  191 1    
   140   71  192 1    
   141   71  193 1    
   142   71  194 1    
   143   72   73 2    
   144   72   74 am   BACKBONE|DICT|INTERRES
   145   74   75 1    
   146   74  195 1    
   147   75   76 1    
   148   75   77 1    
   149   75  196 1    
   150   76  197 1    
   151   76  198 1    
   152   76  199 1    
   153   77   78 2    
   154   77   79 am   BACKBONE|DICT|INTERRES
   155   79   80 1    
   156   79  200 1    
   157   80   81 1    
   158   80   82 1    
   159   80  201 1    
   160   81  202 1    
   161   81  203 1    
   162   81  204 1    
   163   82   83 2    
   164   82   84 am   BACKBONE|DICT|INTERRES
   165   84   85 1    
   166   84  205 1    
   167   85   86 1    
   168   85   87 1    
   169   85  206 1    
   170   86  207 1    
   171   86  208 1    
   172   86  209 1    
   173   87   88 2    
   174   87   89 am   BACKBONE|DICT|INTERRES
   175   89   90 1    
   176   89  210 1    
   177   90   91 1    
   178   90   92 1    
   179   90  211 1    
   180   91  212 1    
   181   91  213 1    
   182   91  214 1    
   183   92   93 2    
   184   92   94 am   BACKBONE|DICT|INTERRES
   185   94   95 1    
   186   94  215 1    
   187   95   96 1    
   188   95   97 1    
   189   95  216 1    
   190   96  217 1    
   191   96  218 1    
   192   96  219 1    
   193   97   98 2    
   194   97   99 am   BACKBONE|DICT|INTERRES
   195   99  100 1    
   196   99  220 1    
   197  100  101 1    
   198  100  102 1    
   199  100  221 1    
   200  101  222 1    
   201  101  223 1    
   202  101  224 1    
   203  102  103 2    
   204  102  104 am   BACKBONE|DICT|INTERRES
   205  104  105 1    
   206  104  225 1    
   207  105  106 1    
   208  105  107 1    
   209  105  226 1    
   210  106  227 1    
   211  106  228 1    
   212  106  229 1    
   213  107  108 2    
   214  107  109 am   BACKBONE|DICT|INTERRES
   215  109  110 1    
   216  109  230 1    
   217  110  111 1    
   218  110  112 1    
   219  110  231 1    
   220  111  232 1    
   221  111  233 1    
   222  111  234 1    
   223  112  113 2    
   224  112  114 am   BACKBONE|DICT|INTERRES
   225  114  115 1    
   226  114  235 1    
   227  115  116 1    
   228  115  117 1    
   229  115  236 1    
   230  116  237 1    
   231  116  238 1    
   232  116  239 1    
   233  117  118 2    
   234  117  119 am   BACKBONE|DICT|INTERRES
   235  119  120 1    
   236  119  240 1    
   237  120  121 1    
   238  120  124 1    
   239  120  241 1    
   240  121  122 am   BACKBONE|DICT|INTERRES
   241  121  123 2    
   242  122  242 1    
   243  122  243 1    
   244  124  125 1    
   245  124  244 1    
   246  124  245 1    
   247  125  126 1    
   248  126  246 1    
   249  126  247 1    
@<TRIPOS>SUBSTRUCTURE
     1 UNK         1 GROUP             0       ****    0 ROOT    
