@<TRIPOS>MOLECULE
3R540
247   249    1
SMALL
USER_CHARGES


@<TRIPOS>ATOM
      1 CA          2.9182   -8.3739  -50.7952 C.3       0 UNK        -0.1800 
      2 C           3.5598   -9.0223  -49.5767 C.2       0 UNK         0.5000 
      3 O           4.6970   -8.6954  -49.2368 O.2       0 UNK        -0.5000 
      4 N           2.8361   -9.9392  -48.9214 N.am      1 UNK        -0.5000 
      5 CA          3.2837  -10.6734  -47.7287 C.3       1 UNK         0.1400 
      6 C6          2.3786  -11.8913  -47.4241 C.3       23 UNK        -0.0398 
      7 S7          2.2932  -13.0671  -48.8146 S.3       23 UNK        -0.2404 
      8 C8          1.9834  -14.6209  -47.9215 C.3       23 UNK        -0.0205 
      9 C9          1.3138  -15.6525  -48.8160 C.ar      23 UNK        -0.0193 
     10 C10         0.0269  -15.4146  -49.3082 C.ar      23 UNK        -0.1150 
     11 C11        -0.6019  -16.3475  -50.1351 C.ar      23 UNK        -0.0193 
     12 C12         0.0586  -17.5356  -50.4579 C.ar      23 UNK        -0.1150 
     13 C13         1.3409  -17.7917  -49.9636 C.ar      23 UNK        -0.0193 
     14 C14         1.9659  -16.8450  -49.1453 C.ar      23 UNK        -0.1150 
     15 C15         2.0552  -19.0844  -50.3309 C.3       23 UNK        -0.0205 
     16 S16         1.9839  -20.3170  -48.9939 S.3       23 UNK        -0.2404 
     17 C17         0.1889  -20.6186  -48.8710 C.3       23 UNK        -0.0398 
     18 CA         -0.1425  -21.8362  -47.9781 C.3       11 UNK         0.1400 
     19 N           0.2533  -21.6240  -46.5795 N.am      11 UNK        -0.5000 
     20 C           0.3141  -22.5872  -45.6500 C.2       10 UNK         0.5000 
     21 O           0.0505  -23.7669  -45.8778 O.2       10 UNK        -0.5000 
     22 CA          0.6807  -22.1574  -44.2181 C.3       10 UNK         0.1400 
     23 CB          2.1956  -21.9497  -44.0707 C.3       10 UNK        -0.1800 
     24 N          -0.0353  -20.9489  -43.8080 N.am      10 UNK        -0.5000 
     25 C          -1.3549  -20.9004  -43.5770 C.2       9 UNK         0.5000 
     26 O          -2.0840  -21.8915  -43.6048 O.2       9 UNK        -0.5000 
     27 CA         -1.9758  -19.5176  -43.2964 C.3       9 UNK         0.1400 
     28 CB         -1.9028  -19.1815  -41.7999 C.3       9 UNK        -0.1800 
     29 N          -1.3596  -18.4384  -44.0694 N.am      9 UNK        -0.5000 
     30 C          -1.3936  -18.3398  -45.4065 C.2       8 UNK         0.5000 
     31 O          -1.9858  -19.1334  -46.1358 O.2       8 UNK        -0.5000 
     32 CA         -0.5743  -17.1970  -46.0342 C.3       8 UNK         0.1400 
     33 CB         -1.3477  -15.8705  -45.9681 C.3       8 UNK        -0.1800 
     34 N           0.7419  -17.0498  -45.4044 N.am      8 UNK        -0.5000 
     35 C           1.6842  -18.0053  -45.4194 C.2       7 UNK         0.5000 
     36 O           1.5521  -19.0810  -45.9981 O.2       7 UNK        -0.5000 
     37 CA          2.9495  -17.7594  -44.5817 C.3       7 UNK         0.1400 
     38 CB          3.9632  -16.8848  -45.3328 C.3       7 UNK        -0.1800 
     39 N           2.6285  -17.1635  -43.2855 N.am      7 UNK        -0.5000 
     40 C           2.0234  -17.8299  -42.2903 C.2       6 UNK         0.5000 
     41 O           1.7347  -19.0242  -42.3496 O.2       6 UNK        -0.5000 
     42 CA          1.6390  -17.0242  -41.0346 C.3       6 UNK         0.1400 
     43 CB          2.7879  -17.0345  -40.0157 C.3       6 UNK        -0.1800 
     44 N           1.2738  -15.6399  -41.3344 N.am      6 UNK        -0.5000 
     45 C           0.2244  -15.2661  -42.0813 C.2       5 UNK         0.5000 
     46 O          -0.5952  -16.0577  -42.5458 O.2       5 UNK        -0.5000 
     47 CA          0.1059  -13.7641  -42.4069 C.3       5 UNK         0.1400 
     48 CB         -0.8244  -13.0640  -41.4064 C.3       5 UNK        -0.1800 
     49 N           1.4047  -13.0856  -42.4131 N.am      5 UNK        -0.5000 
     50 C           2.3869  -13.3143  -43.2931 C.2       4 UNK         0.5000 
     51 O           2.2615  -14.0767  -44.2530 O.2       4 UNK        -0.5000 
     52 CA          3.7327  -12.6077  -43.0199 C.3       4 UNK         0.1400 
     53 CB          4.8035  -12.9311  -44.0773 C.3       4 UNK        -0.1800 
     54 N           3.5990  -11.1538  -42.8795 N.am      4 UNK        -0.5000 
     55 C           3.1464  -10.5257  -41.7826 C.2       3 UNK         0.5000 
     56 O           2.7510  -11.1266  -40.7820 O.2       3 UNK        -0.5000 
     57 CA          3.1226   -8.9839  -41.7783 C.3       3 UNK         0.1400 
     58 CB          4.2888   -8.4346  -40.9421 C.3       3 UNK        -0.1800 
     59 N           3.1778   -8.3829  -43.1099 N.am      3 UNK        -0.5000 
     60 C           2.1734   -8.3756  -43.9950 C.2       2 UNK         0.5000 
     61 O           1.0688   -8.8767  -43.7800 O.2       2 UNK        -0.5000 
     62 CA          2.4485   -7.7170  -45.3634 C.3       2 UNK         0.1400 
     63 CB          3.6831   -6.7872  -45.3809 C.3       2 UNK        -0.1800 
     64 N           2.5506   -8.7143  -46.4318 N.am      2 UNK        -0.5000 
     65 C           3.3831   -9.7668  -46.4832 C.2       1 UNK         0.5000 
     66 O           4.2024  -10.0374  -45.6039 O.2       1 UNK        -0.5000 
     67 C          -1.6275  -22.2382  -48.1295 C.2       11 UNK         0.5000 
     68 O          -1.9745  -22.8808  -49.1191 O.2       11 UNK        -0.5000 
     69 N          -2.4737  -21.8819  -47.1518 N.am      12 UNK        -0.5000 
     70 CA         -3.8866  -22.2602  -47.0809 C.3       12 UNK         0.1400 
     71 CB         -4.6012  -21.3846  -46.0409 C.3       12 UNK        -0.1800 
     72 C          -4.1263  -23.7598  -46.7948 C.2       12 UNK         0.5000 
     73 O          -5.2442  -24.2345  -47.0068 O.2       12 UNK        -0.5000 
     74 N          -3.0967  -24.4889  -46.3391 N.am      13 UNK        -0.5000 
     75 CA         -3.1338  -25.9373  -46.1234 C.3       13 UNK         0.1400 
     76 CB         -1.8493  -26.3703  -45.4010 C.3       13 UNK        -0.1800 
     77 C          -3.3049  -26.7292  -47.4363 C.2       13 UNK         0.5000 
     78 O          -3.0183  -26.2103  -48.5180 O.2       13 UNK        -0.5000 
     79 N          -3.7692  -27.9814  -47.3102 N.am      14 UNK        -0.5000 
     80 CA         -4.0402  -28.9279  -48.4022 C.3       14 UNK         0.1400 
     81 CB         -2.7249  -29.3777  -49.0733 C.3       14 UNK        -0.1800 
     82 C          -5.0747  -28.3817  -49.4092 C.2       14 UNK         0.5000 
     83 O          -4.8671  -28.4623  -50.6217 O.2       14 UNK        -0.5000 
     84 N          -6.1532  -27.7921  -48.8686 N.am      15 UNK        -0.5000 
     85 CA         -7.2317  -27.1006  -49.5840 C.3       15 UNK         0.1400 
     86 CB         -8.0848  -28.1064  -50.3859 C.3       15 UNK        -0.1800 
     87 C          -6.6928  -25.9436  -50.4490 C.2       15 UNK         0.5000 
     88 O          -6.9821  -25.8772  -51.6443 O.2       15 UNK        -0.5000 
     89 N          -5.8713  -25.0836  -49.8292 N.am      16 UNK        -0.5000 
     90 CA         -5.1373  -23.9756  -50.4453 C.3       16 UNK         0.1400 
     91 CB         -6.1077  -22.8596  -50.8790 C.3       16 UNK        -0.1800 
     92 C          -4.1976  -24.4443  -51.5709 C.2       16 UNK         0.5000 
     93 O          -4.2247  -23.8866  -52.6692 O.2       16 UNK        -0.5000 
     94 N          -3.4116  -25.4907  -51.2797 N.am      17 UNK        -0.5000 
     95 CA         -2.5006  -26.1872  -52.1924 C.3       17 UNK         0.1400 
     96 CB         -1.2769  -25.2982  -52.4971 C.3       17 UNK        -0.1800 
     97 C          -3.2193  -26.6936  -53.4628 C.2       17 UNK         0.5000 
     98 O          -2.7458  -26.4634  -54.5762 O.2       17 UNK        -0.5000 
     99 N          -4.3765  -27.3407  -53.2582 N.am      18 UNK        -0.5000 
    100 CA        -5.3407  -27.7790  -54.2722 C.3       18 UNK         0.1400 
    101 CB        -4.7519  -28.9105  -55.1406 C.3       18 UNK        -0.1800 
    102 C         -5.9022  -26.5992  -55.0976 C.2       18 UNK         0.5000 
    103 O         -5.8850  -26.6340  -56.3297 O.2       18 UNK        -0.5000 
    104 N         -6.3916  -25.5764  -54.3819 N.am      19 UNK        -0.5000 
    105 CA        -7.0088  -24.3401  -54.8744 C.3       19 UNK         0.1400 
    106 CB        -8.3634  -24.6462  -55.5468 C.3       19 UNK        -0.1800 
    107 C         -6.0808  -23.4726  -55.7537 C.2       19 UNK         0.5000 
    108 O         -6.5550  -22.8063  -56.6765 O.2       19 UNK        -0.5000 
    109 N         -4.7783  -23.4869  -55.4499 N.am      20 UNK        -0.5000 
    110 CA        -3.7546  -22.6899  -56.1248 C.3       20 UNK         0.1400 
    111 CB        -2.4974  -23.5510  -56.3165 C.3       20 UNK        -0.1800 
    112 C         -3.4095  -21.4143  -55.3363 C.2       20 UNK         0.5000 
    113 O         -3.0837  -20.3966  -55.9496 O.2       20 UNK        -0.5000 
    114 N         -3.4712  -21.4896  -54.0014 N.am      21 UNK        -0.5000 
    115 CA        -3.1680  -20.3971  -53.0802 C.3       21 UNK         0.1400 
    116 CB        -2.4459  -20.9860  -51.8554 C.3       21 UNK        -0.1800 
    117 C         -4.4415  -19.6384  -52.6602 C.2       21 UNK         0.5000 
    118 O         -5.5482  -19.9726  -53.0900 O.2       21 UNK        -0.5000 
    119 N         -4.2503  -18.6283  -51.8049 N.am      22 UNK        -0.5000 
    120 CA        -5.3096  -17.8258  -51.1721 C.3       22 UNK         0.1400 
    121 C         -6.1207  -18.5610  -50.0638 C.2       22 UNK         0.5000 
    122 N         -5.6391  -19.6664  -49.5090 N.am      22 UNK        -0.7600 
    123 O         -7.2110  -18.1217  -49.7084 O.2       22 UNK        -0.5000 
    124 C124       -4.7570  -16.4685  -50.6600 C.3       23 UNK        -0.0398 
    125 S125       -3.2911  -16.6357  -49.5749 S.3       23 UNK        -0.2404 
    126 C126       -1.9826  -16.0612  -50.6987 C.3       23 UNK        -0.0205 
    127 H127        3.5245   -8.5595  -51.6818 H         1 UNK         0.0600 
    128 H128        2.8437   -7.2960  -50.6511 H         1 UNK         0.0600 
    129 H129        1.9164   -8.7623  -50.9813 H         1 UNK         0.0600 
    130 H130        1.9209  -10.1886  -49.2692 H         1 UNK         0.3000 
    131 H131        4.2904  -11.0472  -47.9286 H         1 UNK         0.0600 
    132 H132        1.3628  -11.5708  -47.1850 H         1 UNK         0.0800 
    133 H133        2.7436  -12.4237  -46.5449 H         1 UNK         0.0800 
    134 H134        2.9321  -14.9957  -47.5378 H         1 UNK         0.0800 
    135 H135        1.3494  -14.4333  -47.0548 H         1 UNK         0.0800 
    136 H136       -0.4811  -14.4948  -49.0545 H         1 UNK         0.1150 
    137 H137       -0.4238  -18.2599  -51.0983 H         1 UNK         0.1150 
    138 H138        2.9576  -17.0422  -48.7632 H         1 UNK         0.1150 
    139 H139        1.6330  -19.5135  -51.2410 H         1 UNK         0.0800 
    140 H140        3.1009  -18.8687  -50.5545 H         1 UNK         0.0800 
    141 H141       -0.1848  -20.7750  -49.8836 H         1 UNK         0.0800 
    142 H142       -0.2999  -19.7205  -48.4885 H         1 UNK         0.0800 
    143 H143        0.4370  -22.6841  -48.3500 H         1 UNK         0.0600 
    144 H144        0.5448  -20.6812  -46.3320 H         1 UNK         0.3000 
    145 H145        0.3896  -22.9661  -43.5443 H         1 UNK         0.0600 
    146 H146        2.7390  -22.8590  -44.3301 H         1 UNK         0.0600 
    147 H147        2.5632  -21.1544  -44.7184 H         1 UNK         0.0600 
    148 H148        2.4601  -21.6942  -43.0445 H         1 UNK         0.0600 
    149 H149        0.5138  -20.1036  -43.7058 H         1 UNK         0.3000 
    150 H150       -3.0287  -19.5658  -43.5817 H         1 UNK         0.0600 
    151 H151       -2.4106  -19.9413  -41.2047 H         1 UNK         0.0600 
    152 H152       -2.3810  -18.2255  -41.5854 H         1 UNK         0.0600 
    153 H153       -0.8722  -19.1265  -41.4502 H         1 UNK         0.0600 
    154 H154       -0.8944  -17.7055  -43.5416 H         1 UNK         0.3000 
    155 H155       -0.4140  -17.4444  -47.0858 H         1 UNK         0.0600 
    156 H156       -0.7951  -15.0596  -46.4391 H         1 UNK         0.0600 
    157 H157       -1.5655  -15.5744  -44.9426 H         1 UNK         0.0600 
    158 H158       -2.3005  -15.9558  -46.4921 H         1 UNK         0.0600 
    159 H159        0.9154  -16.2005  -44.8857 H         1 UNK         0.3000 
    160 H160        3.4201  -18.7291  -44.4044 H         1 UNK         0.0600 
    161 H161        3.5834  -15.8800  -45.5058 H         1 UNK         0.0600 
    162 H162        4.2046  -17.3163  -46.3051 H         1 UNK         0.0600 
    163 H163        4.8954  -16.7967  -44.7749 H         1 UNK         0.0600 
    164 H164        2.7919  -16.1719  -43.1873 H         1 UNK         0.3000 
    165 H165        0.7731  -17.5091  -40.5797 H         1 UNK         0.0600 
    166 H166        2.5005  -16.5324  -39.0917 H         1 UNK         0.0600 
    167 H167        3.0686  -18.0560  -39.7552 H         1 UNK         0.0600 
    168 H168        3.6778  -16.5388  -40.4057 H         1 UNK         0.0600 
    169 H169        1.8876  -14.9211  -40.9813 H         1 UNK         0.3000 
    170 H170       -0.3298  -13.6752  -43.4043 H         1 UNK         0.0600 
    171 H171       -1.8090  -13.5335  -41.3942 H         1 UNK         0.0600 
    172 H172       -0.4275  -13.1042  -40.3912 H         1 UNK         0.0600 
    173 H173       -0.9676  -12.0158  -41.6694 H         1 UNK         0.0600 
    174 H174        1.5956  -12.4365  -41.6556 H         1 UNK         0.3000 
    175 H175        4.1007  -13.0063  -42.0722 H         1 UNK         0.0600 
    176 H176        5.7515  -12.4492  -43.8381 H         1 UNK         0.0600 
    177 H177        4.9906  -14.0044  -44.1280 H         1 UNK         0.0600 
    178 H178        4.5071  -12.6062  -45.0729 H         1 UNK         0.0600 
    179 H179        3.8657  -10.6002  -43.6879 H         1 UNK         0.3000 
    180 H180        2.1891   -8.6756  -41.3028 H         1 UNK         0.0600 
    181 H181        5.2541   -8.6995  -41.3753 H         1 UNK         0.0600 
    182 H182        4.2644   -8.8326  -39.9266 H         1 UNK         0.0600 
    183 H183        4.2415   -7.3482  -40.8639 H         1 UNK         0.0600 
    184 H184        4.0609   -7.9792  -43.3869 H         1 UNK         0.3000 
    185 H185        1.5739   -7.1050  -45.5885 H         1 UNK         0.0600 
    186 H186        3.6088   -6.0191  -44.6100 H         1 UNK         0.0600 
    187 H187        4.6161   -7.3297  -45.2245 H         1 UNK         0.0600 
    188 H188        3.7639   -6.2718  -46.3381 H         1 UNK         0.0600 
    189 H189        1.9054   -8.5953  -47.1998 H         1 UNK         0.3000 
    190 H190       -2.1283  -21.2786  -46.4149 H         1 UNK         0.3000 
    191 H191       -4.3347  -22.0358  -48.0490 H         1 UNK         0.0600 
    192 H192       -4.4779  -20.3244  -46.2632 H         1 UNK         0.0600 
    193 H193       -5.6724  -21.5895  -46.0296 H         1 UNK         0.0600 
    194 H194       -4.2264  -21.5644  -45.0345 H         1 UNK         0.0600 
    195 H195       -2.1962  -24.0408  -46.2269 H         1 UNK         0.3000 
    196 H196       -3.9866  -26.1546  -45.4771 H         1 UNK         0.0600 
    197 H197       -1.8915  -27.4232  -45.1200 H         1 UNK         0.0600 
    198 H198       -1.6949  -25.7965  -44.4869 H         1 UNK         0.0600 
    199 H199       -0.9709  -26.2375  -46.0336 H         1 UNK         0.0600 
    200 H200       -3.9744  -28.3240  -46.3816 H         1 UNK         0.3000 
    201 H201       -4.4945  -29.8091  -47.9470 H         1 UNK         0.0600 
    202 H202       -2.0279  -29.7830  -48.3401 H         1 UNK         0.0600 
    203 H203       -2.2277  -28.5554  -49.5882 H         1 UNK         0.0600 
    204 H204       -2.9102  -30.1595  -49.8108 H         1 UNK         0.0600 
    205 H205       -6.2111  -27.7610  -47.8605 H         1 UNK         0.3000 
    206 H206       -7.8745  -26.6487  -48.8273 H         1 UNK         0.0600 
    207 H207       -8.4684  -28.8982  -49.7426 H         1 UNK         0.0600 
    208 H208       -8.9444  -27.6123  -50.8401 H         1 UNK         0.0600 
    209 H209       -7.5158  -28.5743  -51.1900 H         1 UNK         0.0600 
    210 H210       -5.6869  -25.2157  -48.8411 H         1 UNK         0.3000 
    211 H211       -4.4844  -23.5692  -49.6785 H         1 UNK         0.0600 
    212 H212       -6.7840  -23.1884  -51.6673 H         1 UNK         0.0600 
    213 H213       -5.5635  -21.9972  -51.2588 H         1 UNK         0.0600 
    214 H214       -6.7129  -22.5165  -50.0402 H         1 UNK         0.0600 
    215 H215       -3.4275  -25.8459  -50.3258 H         1 UNK         0.3000 
    216 H216       -2.1473  -27.0726  -51.6626 H         1 UNK         0.0600 
    217 H217       -0.5471  -25.8307  -53.1078 H         1 UNK         0.0600 
    218 H218       -0.7744  -24.9966  -51.5778 H         1 UNK         0.0600 
    219 H219       -1.5571  -24.3918  -53.0340 H         1 UNK         0.0600 
    220 H220       -4.6535  -27.5156  -52.2950 H         1 UNK         0.3000 
    221 H221       -6.1863  -28.1956  -53.7226 H         1 UNK         0.0600 
    222 H222       -3.9206  -28.5635  -55.7547 H         1 UNK         0.0600 
    223 H223       -4.3925  -29.7335  -54.5230 H         1 UNK         0.0600 
    224 H224       -5.5074  -29.3162  -55.8143 H         1 UNK         0.0600 
    225 H225       -6.3880  -25.6683  -53.3673 H         1 UNK         0.3000 
    226 H226       -7.2157  -23.7409  -53.9873 H         1 UNK         0.0600 
    227 H227       -9.0049  -25.2333  -54.8896 H         1 UNK         0.0600 
    228 H228       -8.9006  -23.7273  -55.7842 H         1 UNK         0.0600 
    229 H229       -8.2367  -25.2012  -56.4767 H         1 UNK         0.0600 
    230 H230       -4.4848  -24.0098  -54.6305 H         1 UNK         0.3000 
    231 H231       -4.1047  -22.3870  -57.1138 H         1 UNK         0.0600 
    232 H232       -2.0742  -23.8628  -55.3613 H         1 UNK         0.0600 
    233 H233       -1.7247  -23.0012  -56.8551 H         1 UNK         0.0600 
    234 H234       -2.7201  -24.4505  -56.8909 H         1 UNK         0.0600 
    235 H235       -3.7955  -22.3538  -53.5733 H         1 UNK         0.3000 
    236 H236       -2.4966  -19.6829  -53.5614 H         1 UNK         0.0600 
    237 H237       -1.5699  -21.5634  -52.1520 H         1 UNK         0.0600 
    238 H238       -2.1007  -20.2034  -51.1804 H         1 UNK         0.0600 
    239 H239       -3.0976  -21.6457  -51.2836 H         1 UNK         0.0600 
    240 H240       -3.3162  -18.4241  -51.4841 H         1 UNK         0.3000 
    241 H241       -6.0380  -17.5940  -51.9516 H         1 UNK         0.0600 
    242 H242       -6.1786  -20.1254  -48.7940 H         1 UNK         0.3800 
    243 H243       -4.7335  -20.0145  -49.7709 H         1 UNK         0.3800 
    244 H244       -4.5008  -15.8405  -51.5142 H         1 UNK         0.0800 
    245 H245       -5.5263  -15.9128  -50.1209 H         1 UNK         0.0800 
    246 H246       -2.1014  -14.9904  -50.8717 H         1 UNK         0.0800 
    247 H247       -2.0894  -16.5414  -51.6724 H         1 UNK         0.0800 
@<TRIPOS>BOND
     1    1    2 1    
     2    1  127 1    
     3    1  128 1    
     4    1  129 1    
     5    2    3 2    
     6    2    4 am   BACKBONE|DICT|INTERRES
     7    4    5 1    
     8    4  130 1    
     9    5    6 1    
    10    5   65 1    
    11    5  131 1    
    12    6    7 1    
    13    6  132 1    
    14    6  133 1    
    15    7    8 1    
    16    8    9 1    
    17    8  134 1    
    18    8  135 1    
    19    9   10 ar   
    20    9   14 ar   
    21   10   11 ar   
    22   10  136 1    
    23   11   12 ar   
    24   11  126 1    
    25   12   13 ar   
    26   12  137 1    
    27   13   14 ar   
    28   13   15 1    
    29   14  138 1    
    30   15   16 1    
    31   15  139 1    
    32   15  140 1    
    33   16   17 1    
    34   17   18 1    
    35   17  141 1    
    36   17  142 1    
    37   18   19 1    
    38   18   67 1    
    39   18  143 1    
    40   19   20 am   BACKBONE|DICT|INTERRES
    41   19  144 1    
    42   20   21 2    
    43   20   22 1    
    44   22   23 1    
    45   22   24 1    
    46   22  145 1    
    47   23  146 1    
    48   23  147 1    
    49   23  148 1    
    50   24   25 am   BACKBONE|DICT|INTERRES
    51   24  149 1    
    52   25   26 2    
    53   25   27 1    
    54   27   28 1    
    55   27   29 1    
    56   27  150 1    
    57   28  151 1    
    58   28  152 1    
    59   28  153 1    
    60   29   30 am   BACKBONE|DICT|INTERRES
    61   29  154 1    
    62   30   31 2    
    63   30   32 1    
    64   32   33 1    
    65   32   34 1    
    66   32  155 1    
    67   33  156 1    
    68   33  157 1    
    69   33  158 1    
    70   34   35 am   BACKBONE|DICT|INTERRES
    71   34  159 1    
    72   35   36 2    
    73   35   37 1    
    74   37   38 1    
    75   37   39 1    
    76   37  160 1    
    77   38  161 1    
    78   38  162 1    
    79   38  163 1    
    80   39   40 am   BACKBONE|DICT|INTERRES
    81   39  164 1    
    82   40   41 2    
    83   40   42 1    
    84   42   43 1    
    85   42   44 1    
    86   42  165 1    
    87   43  166 1    
    88   43  167 1    
    89   43  168 1    
    90   44   45 am   BACKBONE|DICT|INTERRES
    91   44  169 1    
    92   45   46 2    
    93   45   47 1    
    94   47   48 1    
    95   47   49 1    
    96   47  170 1    
    97   48  171 1    
    98   48  172 1    
    99   48  173 1    
   100   49   50 am   BACKBONE|DICT|INTERRES
   101   49  174 1    
   102   50   51 2    
   103   50   52 1    
   104   52   53 1    
   105   52   54 1    
   106   52  175 1    
   107   53  176 1    
   108   53  177 1    
   109   53  178 1    
   110   54   55 am   BACKBONE|DICT|INTERRES
   111   54  179 1    
   112   55   56 2    
   113   55   57 1    
   114   57   58 1    
   115   57   59 1    
   116   57  180 1    
   117   58  181 1    
   118   58  182 1    
   119   58  183 1    
   120   59   60 am   BACKBONE|DICT|INTERRES
   121   59  184 1    
   122   60   61 2    
   123   60   62 1    
   124   62   63 1    
   125   62   64 1    
   126   62  185 1    
   127   63  186 1    
   128   63  187 1    
   129   63  188 1    
   130   64   65 am   BACKBONE|DICT|INTERRES
   131   64  189 1    
   132   65   66 2    
   133   67   68 2    
   134   67   69 am   BACKBONE|DICT|INTERRES
   135   69   70 1    
   136   69  190 1    
   137   70   71 1    
   138   70   72 1    
   139   70  191 1    
   140   71  192 1    
   141   71  193 1    
   142   71  194 1    
   143   72   73 2    
   144   72   74 am   BACKBONE|DICT|INTERRES
   145   74   75 1    
   146   74  195 1    
   147   75   76 1    
   148   75   77 1    
   149   75  196 1    
   150   76  197 1    
   151   76  198 1    
   152   76  199 1    
   153   77   78 2    
   154   77   79 am   BACKBONE|DICT|INTERRES
   155   79   80 1    
   156   79  200 1    
   157   80   81 1    
   158   80   82 1    
   159   80  201 1    
   160   81  202 1    
   161   81  203 1    
   162   81  204 1    
   163   82   83 2    
   164   82   84 am   BACKBONE|DICT|INTERRES
   165   84   85 1    
   166   84  205 1    
   167   85   86 1    
   168   85   87 1    
   169   85  206 1    
   170   86  207 1    
   171   86  208 1    
   172   86  209 1    
   173   87   88 2    
   174   87   89 am   BACKBONE|DICT|INTERRES
   175   89   90 1    
   176   89  210 1    
   177   90   91 1    
   178   90   92 1    
   179   90  211 1    
   180   91  212 1    
   181   91  213 1    
   182   91  214 1    
   183   92   93 2    
   184   92   94 am   BACKBONE|DICT|INTERRES
   185   94   95 1    
   186   94  215 1    
   187   95   96 1    
   188   95   97 1    
   189   95  216 1    
   190   96  217 1    
   191   96  218 1    
   192   96  219 1    
   193   97   98 2    
   194   97   99 am   BACKBONE|DICT|INTERRES
   195   99  100 1    
   196   99  220 1    
   197  100  101 1    
   198  100  102 1    
   199  100  221 1    
   200  101  222 1    
   201  101  223 1    
   202  101  224 1    
   203  102  103 2    
   204  102  104 am   BACKBONE|DICT|INTERRES
   205  104  105 1    
   206  104  225 1    
   207  105  106 1    
   208  105  107 1    
   209  105  226 1    
   210  106  227 1    
   211  106  228 1    
   212  106  229 1    
   213  107  108 2    
   214  107  109 am   BACKBONE|DICT|INTERRES
   215  109  110 1    
   216  109  230 1    
   217  110  111 1    
   218  110  112 1    
   219  110  231 1    
   220  111  232 1    
   221  111  233 1    
   222  111  234 1    
   223  112  113 2    
   224  112  114 am   BACKBONE|DICT|INTERRES
   225  114  115 1    
   226  114  235 1    
   227  115  116 1    
   228  115  117 1    
   229  115  236 1    
   230  116  237 1    
   231  116  238 1    
   232  116  239 1    
   233  117  118 2    
   234  117  119 am   BACKBONE|DICT|INTERRES
   235  119  120 1    
   236  119  240 1    
   237  120  121 1    
   238  120  124 1    
   239  120  241 1    
   240  121  122 am   BACKBONE|DICT|INTERRES
   241  121  123 2    
   242  122  242 1    
   243  122  243 1    
   244  124  125 1    
   245  124  244 1    
   246  124  245 1    
   247  125  126 1    
   248  126  246 1    
   249  126  247 1    
@<TRIPOS>SUBSTRUCTURE
     1 UNK         1 GROUP             0       ****    0 ROOT    
