@<TRIPOS>MOLECULE
3R540
247   249    1
SMALL
USER_CHARGES


@<TRIPOS>ATOM
      1 CA         -2.1702  -16.1097  -45.3703 C.3       0 UNK        -0.1800 
      2 C          -2.7377  -14.8546  -46.0111 C.2       0 UNK         0.5000 
      3 O          -3.1833  -13.9527  -45.3035 O.2       0 UNK        -0.5000 
      4 N          -2.6968  -14.7768  -47.3469 N.am      1 UNK        -0.5000 
      5 CA         -3.1680  -13.6393  -48.1523 C.3       1 UNK         0.1400 
      6 C6         -3.2079  -13.9839  -49.6627 C.3       23 UNK        -0.0398 
      7 S7         -1.5952  -14.5187  -50.3388 S.3       23 UNK        -0.2404 
      8 C8         -1.8481  -16.3121  -50.4974 C.3       23 UNK        -0.0205 
      9 C9         -0.5555  -17.0008  -50.8986 C.ar      23 UNK        -0.0193 
     10 C10        -0.1708  -17.0382  -52.2408 C.ar      23 UNK        -0.1150 
     11 C11         1.0236  -17.6537  -52.6241 C.ar      23 UNK        -0.0193 
     12 C12         1.8342  -18.2403  -51.6458 C.ar      23 UNK        -0.1150 
     13 C13         1.4510  -18.2257  -50.3011 C.ar      23 UNK        -0.0193 
     14 C14         0.2589  -17.5958  -49.9317 C.ar      23 UNK        -0.1150 
     15 C15         2.3248  -18.8929  -49.2491 C.3       23 UNK        -0.0205 
     16 S16         2.0957  -20.6986  -49.2338 S.3       23 UNK        -0.2404 
     17 C17         0.3495  -20.8303  -48.7203 C.3       23 UNK        -0.0398 
     18 CA          0.0617  -22.0658  -47.8337 C.3       11 UNK         0.1400 
     19 N           0.8494  -22.0641  -46.5989 N.am      11 UNK        -0.5000 
     20 C           1.8054  -22.9658  -46.3374 C.2       10 UNK         0.5000 
     21 O           2.0072  -23.9728  -47.0172 O.2       10 UNK        -0.5000 
     22 CA          2.7384  -22.6893  -45.1490 C.3       10 UNK         0.1400 
     23 CB          3.9398  -21.8534  -45.6170 C.3       10 UNK        -0.1800 
     24 N           2.0912  -22.0284  -44.0166 N.am      10 UNK        -0.5000 
     25 C           1.2494  -22.6431  -43.1745 C.2       9 UNK         0.5000 
     26 O           0.8514  -23.7988  -43.3252 O.2       9 UNK        -0.5000 
     27 CA          0.7894  -21.8398  -41.9438 C.3       9 UNK         0.1400 
     28 CB          1.8995  -21.7893  -40.8828 C.3       9 UNK        -0.1800 
     29 N           0.3716  -20.4787  -42.2709 N.am      9 UNK        -0.5000 
     30 C          -0.7083  -20.1817  -43.0037 C.2       8 UNK         0.5000 
     31 O          -1.4678  -21.0234  -43.4781 O.2       8 UNK        -0.5000 
     32 CA         -0.9525  -18.6966  -43.3105 C.3       8 UNK         0.1400 
     33 CB         -1.5127  -17.9541  -42.0891 C.3       8 UNK        -0.1800 
     34 N           0.2495  -18.0322  -43.8027 N.am      8 UNK        -0.5000 
     35 C           0.8909  -18.3732  -44.9295 C.2       7 UNK         0.5000 
     36 O           0.5042  -19.2521  -45.7033 O.2       7 UNK        -0.5000 
     37 CA          2.2027  -17.6253  -45.2160 C.3       7 UNK         0.1400 
     38 CB          1.9166  -16.2892  -45.9201 C.3       7 UNK        -0.1800 
     39 N           2.9815  -17.3879  -43.9976 N.am      7 UNK        -0.5000 
     40 C           3.5506  -18.3568  -43.2641 C.2       6 UNK         0.5000 
     41 O           3.4933  -19.5519  -43.5454 O.2       6 UNK        -0.5000 
     42 CA          4.2551  -17.9222  -41.9679 C.3       6 UNK         0.1400 
     43 CB          5.6136  -17.2727  -42.2723 C.3       6 UNK        -0.1800 
     44 N           3.4385  -17.0026  -41.1780 N.am      6 UNK        -0.5000 
     45 C           2.2601  -17.3167  -40.6206 C.2       5 UNK         0.5000 
     46 O           1.7544  -18.4376  -40.6710 O.2       5 UNK        -0.5000 
     47 CA          1.4993  -16.1698  -39.9295 C.3       5 UNK         0.1400 
     48 CB          1.8984  -16.0728  -38.4497 C.3       5 UNK        -0.1800 
     49 N           1.7060  -14.8700  -40.5753 N.am      5 UNK        -0.5000 
     50 C           1.3304  -14.5764  -41.8266 C.2       4 UNK         0.5000 
     51 O           0.7817  -15.3790  -42.5867 O.2       4 UNK        -0.5000 
     52 CA          1.6781  -13.1705  -42.3344 C.3       4 UNK         0.1400 
     53 CB          2.8923  -13.2271  -43.2750 C.3       4 UNK        -0.1800 
     54 N           0.5434  -12.6124  -43.0597 N.am      4 UNK        -0.5000 
     55 C          -0.4759  -11.9473  -42.5016 C.2       3 UNK         0.5000 
     56 O          -0.5324  -11.6823  -41.2993 O.2       3 UNK        -0.5000 
     57 CA         -1.6361  -11.5279  -43.4318 C.3       3 UNK         0.1400 
     58 CB         -2.1882  -10.1259  -43.0992 C.3       3 UNK        -0.1800 
     59 N          -1.3295  -11.6610  -44.8628 N.am      3 UNK        -0.5000 
     60 C          -0.4569  -10.9482  -45.5952 C.2       2 UNK         0.5000 
     61 O           0.1919  -10.0002  -45.1525 O.2       2 UNK        -0.5000 
     62 CA         -0.2251  -11.3919  -47.0562 C.3       2 UNK         0.1400 
     63 CB          1.2269  -11.8619  -47.2495 C.3       2 UNK        -0.1800 
     64 N          -1.1121  -12.4763  -47.4777 N.am      2 UNK        -0.5000 
     65 C          -2.3818  -12.3342  -47.8819 C.2       1 UNK         0.5000 
     66 O          -2.9415  -11.2446  -48.0084 O.2       1 UNK        -0.5000 
     67 C          -1.4414  -22.1791  -47.5377 C.2       11 UNK         0.5000 
     68 O          -2.0942  -23.0762  -48.0791 O.2       11 UNK        -0.5000 
     69 N          -1.9834  -21.2595  -46.7249 N.am      12 UNK        -0.5000 
     70 CA         -3.4303  -21.1207  -46.5258 C.3       12 UNK         0.1400 
     71 CB         -3.7582  -19.7738  -45.8650 C.3       12 UNK        -0.1800 
     72 C          -4.0377  -22.2941  -45.7394 C.2       12 UNK         0.5000 
     73 O          -4.9811  -22.9250  -46.2151 O.2       12 UNK        -0.5000 
     74 N          -3.4554  -22.5981  -44.5745 N.am      13 UNK        -0.5000 
     75 CA         -3.8439  -23.7238  -43.7245 C.3       13 UNK         0.1400 
     76 CB         -3.1984  -23.5543  -42.3406 C.3       13 UNK        -0.1800 
     77 C          -3.4595  -25.0851  -44.3316 C.2       13 UNK         0.5000 
     78 O          -4.0937  -26.0912  -44.0119 O.2       13 UNK        -0.5000 
     79 N          -2.4284  -25.0905  -45.1870 N.am      14 UNK        -0.5000 
     80 CA         -1.9277  -26.2750  -45.8730 C.3       14 UNK         0.1400 
     81 CB         -0.5180  -25.9997  -46.4148 C.3       14 UNK        -0.1800 
     82 C          -2.8700  -26.7436  -46.9932 C.2       14 UNK         0.5000 
     83 O          -3.2569  -27.9135  -46.9973 O.2       14 UNK        -0.5000 
     84 N          -3.2117  -25.8427  -47.9269 N.am      15 UNK        -0.5000 
     85 CA         -3.9585  -26.1902  -49.1387 C.3       15 UNK         0.1400 
     86 CB         -3.0329  -26.9327  -50.1298 C.3       15 UNK        -0.1800 
     87 C          -4.6428  -24.9747  -49.7901 C.2       15 UNK         0.5000 
     88 O          -4.7667  -24.9478  -51.0149 O.2       15 UNK        -0.5000 
     89 N          -5.0573  -23.9769  -48.9914 N.am      16 UNK        -0.5000 
     90 CA         -5.7538  -22.7490  -49.4188 C.3       16 UNK         0.1400 
     91 CB         -7.1736  -23.0850  -49.9215 C.3       16 UNK        -0.1800 
     92 C          -4.9596  -21.8983  -50.4367 C.2       16 UNK         0.5000 
     93 O          -5.5586  -21.1948  -51.2546 O.2       16 UNK        -0.5000 
     94 N          -3.6217  -22.0132  -50.3892 N.am      17 UNK        -0.5000 
     95 CA         -2.6577  -21.4860  -51.3603 C.3       17 UNK         0.1400 
     96 CB         -2.5241  -19.9582  -51.2119 C.3       17 UNK        -0.1800 
     97 C          -2.9801  -21.9381  -52.8009 C.2       17 UNK         0.5000 
     98 O          -2.9889  -21.1217  -53.7206 O.2       17 UNK        -0.5000 
     99 N          -3.3082  -23.2311  -52.9433 N.am      18 UNK        -0.5000 
    100 CA        -3.8333  -23.9298  -54.1210 C.3       18 UNK         0.1400 
    101 CB        -2.8995  -23.8087  -55.3419 C.3       18 UNK        -0.1800 
    102 C         -5.2777  -23.5115  -54.4519 C.2       18 UNK         0.5000 
    103 O         -6.1731  -24.3569  -54.4470 O.2       18 UNK        -0.5000 
    104 N         -5.4756  -22.2164  -54.7086 N.am      19 UNK        -0.5000 
    105 CA        -6.7520  -21.5643  -54.9806 C.3       19 UNK         0.1400 
    106 CB        -7.3078  -21.9970  -56.3550 C.3       19 UNK        -0.1800 
    107 C         -6.5369  -20.0469  -54.8760 C.2       19 UNK         0.5000 
    108 O         -6.8015  -19.3187  -55.8349 O.2       19 UNK        -0.5000 
    109 N         -5.9845  -19.6046  -53.7361 N.am      20 UNK        -0.5000 
    110 CA        -5.5029  -18.2522  -53.4175 C.3       20 UNK         0.1400 
    111 CB        -6.6231  -17.1984  -53.5102 C.3       20 UNK        -0.1800 
    112 C         -4.2575  -17.8326  -54.2265 C.2       20 UNK         0.5000 
    113 O         -3.2724  -17.3940  -53.6355 O.2       20 UNK        -0.5000 
    114 N         -4.3087  -17.9868  -55.5536 N.am      21 UNK        -0.5000 
    115 CA        -3.1719  -17.8597  -56.4570 C.3       21 UNK         0.1400 
    116 CB        -3.6801  -17.4586  -57.8513 C.3       21 UNK        -0.1800 
    117 C         -2.4247  -19.2026  -56.4920 C.2       21 UNK         0.5000 
    118 O         -2.9627  -20.1817  -57.0140 O.2       21 UNK        -0.5000 
    119 N         -1.2194  -19.2290  -55.9126 N.am      22 UNK        -0.5000 
    120 CA        -0.4052  -20.4434  -55.7404 C.3       22 UNK         0.1400 
    121 C          0.3180  -20.9633  -57.0192 C.2       22 UNK         0.5000 
    122 N          0.3044  -20.2413  -58.1333 N.am      22 UNK        -0.7600 
    123 O          0.8892  -22.0502  -57.0038 O.2       22 UNK        -0.5000 
    124 C124        0.5293  -20.3275  -54.5067 C.3       23 UNK        -0.0398 
    125 S125        1.9950  -19.2547  -54.7302 S.3       23 UNK        -0.2404 
    126 C126        1.4395  -17.6391  -54.0909 C.3       23 UNK        -0.0205 
    127 H127       -1.3883  -15.8398  -44.6605 H         1 UNK         0.0600 
    128 H128       -1.7412  -16.7883  -46.1080 H         1 UNK         0.0600 
    129 H129       -2.9552  -16.6392  -44.8309 H         1 UNK         0.0600 
    130 H130       -2.3002  -15.5401  -47.8735 H         1 UNK         0.3000 
    131 H131       -4.1961  -13.4413  -47.8414 H         1 UNK         0.0600 
    132 H132       -3.9483  -14.7654  -49.8389 H         1 UNK         0.0800 
    133 H133       -3.5548  -13.1252  -50.2404 H         1 UNK         0.0800 
    134 H134       -2.6201  -16.5055  -51.2428 H         1 UNK         0.0800 
    135 H135       -2.2180  -16.7252  -49.5584 H         1 UNK         0.0800 
    136 H136       -0.8023  -16.5722  -52.9843 H         1 UNK         0.1150 
    137 H137        2.7610  -18.7177  -51.9312 H         1 UNK         0.1150 
    138 H138       -0.0363  -17.5699  -48.8924 H         1 UNK         0.1150 
    139 H139        3.3734  -18.6695  -49.4499 H         1 UNK         0.0800 
    140 H140        2.1108  -18.4924  -48.2578 H         1 UNK         0.0800 
    141 H141       -0.2455  -20.8634  -49.6316 H         1 UNK         0.0800 
    142 H142        0.0597  -19.9171  -48.2006 H         1 UNK         0.0800 
    143 H143        0.3073  -22.9430  -48.4361 H         1 UNK         0.0600 
    144 H144        0.7704  -21.2412  -46.0109 H         1 UNK         0.3000 
    145 H145        3.1198  -23.6523  -44.8024 H         1 UNK         0.0600 
    146 H146        4.6639  -21.7173  -44.8137 H         1 UNK         0.0600 
    147 H147        4.4593  -22.3417  -46.4425 H         1 UNK         0.0600 
    148 H148        3.6302  -20.8666  -45.9642 H         1 UNK         0.0600 
    149 H149        2.4024  -21.0827  -43.8085 H         1 UNK         0.3000 
    150 H150       -0.0677  -22.3587  -41.5097 H         1 UNK         0.0600 
    151 H151        2.2294  -22.7930  -40.6120 H         1 UNK         0.0600 
    152 H152        1.5500  -21.3039  -39.9714 H         1 UNK         0.0600 
    153 H153        2.7718  -21.2392  -41.2387 H         1 UNK         0.0600 
    154 H154        0.9381  -19.7235  -41.8950 H         1 UNK         0.3000 
    155 H155       -1.6938  -18.6389  -44.1056 H         1 UNK         0.0600 
    156 H156       -0.8351  -18.0050  -41.2382 H         1 UNK         0.0600 
    157 H157       -2.4629  -18.3878  -41.7754 H         1 UNK         0.0600 
    158 H158       -1.6923  -16.9022  -42.3119 H         1 UNK         0.0600 
    159 H159        0.6051  -17.2571  -43.2520 H         1 UNK         0.3000 
    160 H160        2.8016  -18.2472  -45.8843 H         1 UNK         0.0600 
    161 H161        1.3182  -15.6235  -45.2972 H         1 UNK         0.0600 
    162 H162        1.3669  -16.4471  -46.8488 H         1 UNK         0.0600 
    163 H163        2.8411  -15.7710  -46.1749 H         1 UNK         0.0600 
    164 H164        3.0307  -16.4365  -43.6670 H         1 UNK         0.3000 
    165 H165        4.4313  -18.8177  -41.3680 H         1 UNK         0.0600 
    166 H166        6.1530  -17.0400  -41.3540 H         1 UNK         0.0600 
    167 H167        6.2441  -17.9444  -42.8566 H         1 UNK         0.0600 
    168 H168        5.5038  -16.3481  -42.8403 H         1 UNK         0.0600 
    169 H169        3.7779  -16.0575  -41.0801 H         1 UNK         0.3000 
    170 H170        0.4337  -16.4011  -39.9797 H         1 UNK         0.0600 
    171 H171        1.7339  -17.0225  -37.9385 H         1 UNK         0.0600 
    172 H172        2.9514  -15.8144  -38.3315 H         1 UNK         0.0600 
    173 H173        1.3064  -15.3193  -37.9299 H         1 UNK         0.0600 
    174 H174        2.1548  -14.1578  -40.0173 H         1 UNK         0.3000 
    175 H175        1.9255  -12.5261  -41.4880 H         1 UNK         0.0600 
    176 H176        2.7018  -13.8518  -44.1482 H         1 UNK         0.0600 
    177 H177        3.1587  -12.2316  -43.6309 H         1 UNK         0.0600 
    178 H178        3.7659  -13.6331  -42.7636 H         1 UNK         0.0600 
    179 H179        0.4827  -12.8360  -44.0407 H         1 UNK         0.3000 
    180 H180       -2.4372  -12.2423  -43.2374 H         1 UNK         0.0600 
    181 H181       -1.4187   -9.3568  -43.1688 H         1 UNK         0.0600 
    182 H182       -2.5856  -10.0941  -42.0841 H         1 UNK         0.0600 
    183 H183       -3.0006   -9.8520  -43.7722 H         1 UNK         0.0600 
    184 H184       -1.8325  -12.4128  -45.3218 H         1 UNK         0.3000 
    185 H185       -0.3946  -10.5229  -47.6953 H         1 UNK         0.0600 
    186 H186        1.9338  -11.0712  -46.9945 H         1 UNK         0.0600 
    187 H187        1.4596  -12.7241  -46.6232 H         1 UNK         0.0600 
    188 H188        1.4160  -12.1401  -48.2866 H         1 UNK         0.0600 
    189 H189       -0.7373  -13.4119  -47.4249 H         1 UNK         0.3000 
    190 H190       -1.3876  -20.5754  -46.2769 H         1 UNK         0.3000 
    191 H191       -3.8911  -21.1102  -47.5149 H         1 UNK         0.0600 
    192 H192       -3.4859  -19.7612  -44.8111 H         1 UNK         0.0600 
    193 H193       -4.8288  -19.5732  -45.9179 H         1 UNK         0.0600 
    194 H194       -3.2484  -18.9487  -46.3624 H         1 UNK         0.0600 
    195 H195       -2.6822  -22.0221  -44.2397 H         1 UNK         0.3000 
    196 H196       -4.9290  -23.7057  -43.6031 H         1 UNK         0.0600 
    197 H197       -3.5101  -24.3500  -41.6630 H         1 UNK         0.0600 
    198 H198       -3.4840  -22.6062  -41.8846 H         1 UNK         0.0600 
    199 H199       -2.1097  -23.5818  -42.4017 H         1 UNK         0.0600 
    200 H200       -1.9716  -24.2136  -45.3868 H         1 UNK         0.3000 
    201 H201       -1.8486  -27.0829  -45.1422 H         1 UNK         0.0600 
    202 H202       -0.1067  -26.8853  -46.9006 H         1 UNK         0.0600 
    203 H203        0.1652  -25.7235  -45.6112 H         1 UNK         0.0600 
    204 H204       -0.5138  -25.1941  -47.1488 H         1 UNK         0.0600 
    205 H205       -2.8486  -24.8949  -47.8727 H         1 UNK         0.3000 
    206 H206       -4.7717  -26.8645  -48.8630 H         1 UNK         0.0600 
    207 H207       -2.6086  -27.8345  -49.6890 H         1 UNK         0.0600 
    208 H208       -3.5753  -27.2471  -51.0224 H         1 UNK         0.0600 
    209 H209       -2.2062  -26.2983  -50.4516 H         1 UNK         0.0600 
    210 H210       -4.9098  -24.0520  -47.9906 H         1 UNK         0.3000 
    211 H211       -5.8668  -22.1247  -48.5333 H         1 UNK         0.0600 
    212 H212       -7.1501  -23.6433  -50.8581 H         1 UNK         0.0600 
    213 H213       -7.7526  -22.1777  -50.0976 H         1 UNK         0.0600 
    214 H214       -7.7204  -23.6790  -49.1894 H         1 UNK         0.0600 
    215 H215       -3.2304  -22.6023  -49.6610 H         1 UNK         0.3000 
    216 H216       -1.6939  -21.9332  -51.1165 H         1 UNK         0.0600 
    217 H217       -1.7433  -19.5685  -51.8654 H         1 UNK         0.0600 
    218 H218       -2.2671  -19.6773  -50.1911 H         1 UNK         0.0600 
    219 H219       -3.4485  -19.4462  -51.4704 H         1 UNK         0.0600 
    220 H220       -3.3931  -23.7756  -52.0925 H         1 UNK         0.3000 
    221 H221       -3.8650  -24.9841  -53.8410 H         1 UNK         0.0600 
    222 H222       -2.8856  -22.7994  -55.7529 H         1 UNK         0.0600 
    223 H223       -1.8758  -24.0826  -55.0870 H         1 UNK         0.0600 
    224 H224       -3.2260  -24.4741  -56.1416 H         1 UNK         0.0600 
    225 H225       -4.6676  -21.6011  -54.6428 H         1 UNK         0.3000 
    226 H226       -7.4652  -21.8478  -54.2040 H         1 UNK         0.0600 
    227 H227       -7.5191  -23.0654  -56.3869 H         1 UNK         0.0600 
    228 H228       -8.2426  -21.4816  -56.5786 H         1 UNK         0.0600 
    229 H229       -6.6053  -21.7711  -57.1583 H         1 UNK         0.0600 
    230 H230       -5.8006  -20.2882  -53.0052 H         1 UNK         0.3000 
    231 H231       -5.1992  -18.2937  -52.3713 H         1 UNK         0.0600 
    232 H232       -7.4825  -17.4831  -52.9034 H         1 UNK         0.0600 
    233 H233       -6.9683  -17.0503  -54.5335 H         1 UNK         0.0600 
    234 H234       -6.2731  -16.2320  -53.1455 H         1 UNK         0.0600 
    235 H235       -5.1542  -18.3980  -55.9393 H         1 UNK         0.3000 
    236 H236       -2.5006  -17.0751  -56.1013 H         1 UNK         0.0600 
    237 H237       -2.8536  -17.3743  -58.5579 H         1 UNK         0.0600 
    238 H238       -4.3837  -18.1895  -58.2525 H         1 UNK         0.0600 
    239 H239       -4.1841  -16.4925  -57.8222 H         1 UNK         0.0600 
    240 H240       -0.8557  -18.3884  -55.4921 H         1 UNK         0.3000 
    241 H241       -1.1037  -21.2444  -55.4982 H         1 UNK         0.0600 
    242 H242        0.7696  -20.5890  -58.9570 H         1 UNK         0.3800 
    243 H243       -0.1661  -19.3514  -58.1600 H         1 UNK         0.3800 
    244 H244       -0.0415  -19.9969  -53.6383 H         1 UNK         0.0800 
    245 H245        0.8968  -21.3198  -54.2410 H         1 UNK         0.0800 
    246 H246        0.6281  -17.2725  -54.7203 H         1 UNK         0.0800 
    247 H247        2.2560  -16.9253  -54.2060 H         1 UNK         0.0800 
@<TRIPOS>BOND
     1    1    2 1    
     2    1  127 1    
     3    1  128 1    
     4    1  129 1    
     5    2    3 2    
     6    2    4 am   BACKBONE|DICT|INTERRES
     7    4    5 1    
     8    4  130 1    
     9    5    6 1    
    10    5   65 1    
    11    5  131 1    
    12    6    7 1    
    13    6  132 1    
    14    6  133 1    
    15    7    8 1    
    16    8    9 1    
    17    8  134 1    
    18    8  135 1    
    19    9   10 ar   
    20    9   14 ar   
    21   10   11 ar   
    22   10  136 1    
    23   11   12 ar   
    24   11  126 1    
    25   12   13 ar   
    26   12  137 1    
    27   13   14 ar   
    28   13   15 1    
    29   14  138 1    
    30   15   16 1    
    31   15  139 1    
    32   15  140 1    
    33   16   17 1    
    34   17   18 1    
    35   17  141 1    
    36   17  142 1    
    37   18   19 1    
    38   18   67 1    
    39   18  143 1    
    40   19   20 am   BACKBONE|DICT|INTERRES
    41   19  144 1    
    42   20   21 2    
    43   20   22 1    
    44   22   23 1    
    45   22   24 1    
    46   22  145 1    
    47   23  146 1    
    48   23  147 1    
    49   23  148 1    
    50   24   25 am   BACKBONE|DICT|INTERRES
    51   24  149 1    
    52   25   26 2    
    53   25   27 1    
    54   27   28 1    
    55   27   29 1    
    56   27  150 1    
    57   28  151 1    
    58   28  152 1    
    59   28  153 1    
    60   29   30 am   BACKBONE|DICT|INTERRES
    61   29  154 1    
    62   30   31 2    
    63   30   32 1    
    64   32   33 1    
    65   32   34 1    
    66   32  155 1    
    67   33  156 1    
    68   33  157 1    
    69   33  158 1    
    70   34   35 am   BACKBONE|DICT|INTERRES
    71   34  159 1    
    72   35   36 2    
    73   35   37 1    
    74   37   38 1    
    75   37   39 1    
    76   37  160 1    
    77   38  161 1    
    78   38  162 1    
    79   38  163 1    
    80   39   40 am   BACKBONE|DICT|INTERRES
    81   39  164 1    
    82   40   41 2    
    83   40   42 1    
    84   42   43 1    
    85   42   44 1    
    86   42  165 1    
    87   43  166 1    
    88   43  167 1    
    89   43  168 1    
    90   44   45 am   BACKBONE|DICT|INTERRES
    91   44  169 1    
    92   45   46 2    
    93   45   47 1    
    94   47   48 1    
    95   47   49 1    
    96   47  170 1    
    97   48  171 1    
    98   48  172 1    
    99   48  173 1    
   100   49   50 am   BACKBONE|DICT|INTERRES
   101   49  174 1    
   102   50   51 2    
   103   50   52 1    
   104   52   53 1    
   105   52   54 1    
   106   52  175 1    
   107   53  176 1    
   108   53  177 1    
   109   53  178 1    
   110   54   55 am   BACKBONE|DICT|INTERRES
   111   54  179 1    
   112   55   56 2    
   113   55   57 1    
   114   57   58 1    
   115   57   59 1    
   116   57  180 1    
   117   58  181 1    
   118   58  182 1    
   119   58  183 1    
   120   59   60 am   BACKBONE|DICT|INTERRES
   121   59  184 1    
   122   60   61 2    
   123   60   62 1    
   124   62   63 1    
   125   62   64 1    
   126   62  185 1    
   127   63  186 1    
   128   63  187 1    
   129   63  188 1    
   130   64   65 am   BACKBONE|DICT|INTERRES
   131   64  189 1    
   132   65   66 2    
   133   67   68 2    
   134   67   69 am   BACKBONE|DICT|INTERRES
   135   69   70 1    
   136   69  190 1    
   137   70   71 1    
   138   70   72 1    
   139   70  191 1    
   140   71  192 1    
   141   71  193 1    
   142   71  194 1    
   143   72   73 2    
   144   72   74 am   BACKBONE|DICT|INTERRES
   145   74   75 1    
   146   74  195 1    
   147   75   76 1    
   148   75   77 1    
   149   75  196 1    
   150   76  197 1    
   151   76  198 1    
   152   76  199 1    
   153   77   78 2    
   154   77   79 am   BACKBONE|DICT|INTERRES
   155   79   80 1    
   156   79  200 1    
   157   80   81 1    
   158   80   82 1    
   159   80  201 1    
   160   81  202 1    
   161   81  203 1    
   162   81  204 1    
   163   82   83 2    
   164   82   84 am   BACKBONE|DICT|INTERRES
   165   84   85 1    
   166   84  205 1    
   167   85   86 1    
   168   85   87 1    
   169   85  206 1    
   170   86  207 1    
   171   86  208 1    
   172   86  209 1    
   173   87   88 2    
   174   87   89 am   BACKBONE|DICT|INTERRES
   175   89   90 1    
   176   89  210 1    
   177   90   91 1    
   178   90   92 1    
   179   90  211 1    
   180   91  212 1    
   181   91  213 1    
   182   91  214 1    
   183   92   93 2    
   184   92   94 am   BACKBONE|DICT|INTERRES
   185   94   95 1    
   186   94  215 1    
   187   95   96 1    
   188   95   97 1    
   189   95  216 1    
   190   96  217 1    
   191   96  218 1    
   192   96  219 1    
   193   97   98 2    
   194   97   99 am   BACKBONE|DICT|INTERRES
   195   99  100 1    
   196   99  220 1    
   197  100  101 1    
   198  100  102 1    
   199  100  221 1    
   200  101  222 1    
   201  101  223 1    
   202  101  224 1    
   203  102  103 2    
   204  102  104 am   BACKBONE|DICT|INTERRES
   205  104  105 1    
   206  104  225 1    
   207  105  106 1    
   208  105  107 1    
   209  105  226 1    
   210  106  227 1    
   211  106  228 1    
   212  106  229 1    
   213  107  108 2    
   214  107  109 am   BACKBONE|DICT|INTERRES
   215  109  110 1    
   216  109  230 1    
   217  110  111 1    
   218  110  112 1    
   219  110  231 1    
   220  111  232 1    
   221  111  233 1    
   222  111  234 1    
   223  112  113 2    
   224  112  114 am   BACKBONE|DICT|INTERRES
   225  114  115 1    
   226  114  235 1    
   227  115  116 1    
   228  115  117 1    
   229  115  236 1    
   230  116  237 1    
   231  116  238 1    
   232  116  239 1    
   233  117  118 2    
   234  117  119 am   BACKBONE|DICT|INTERRES
   235  119  120 1    
   236  119  240 1    
   237  120  121 1    
   238  120  124 1    
   239  120  241 1    
   240  121  122 am   BACKBONE|DICT|INTERRES
   241  121  123 2    
   242  122  242 1    
   243  122  243 1    
   244  124  125 1    
   245  124  244 1    
   246  124  245 1    
   247  125  126 1    
   248  126  246 1    
   249  126  247 1    
@<TRIPOS>SUBSTRUCTURE
     1 UNK         1 GROUP             0       ****    0 ROOT    
