@<TRIPOS>MOLECULE
3R540
247   249    1
SMALL
USER_CHARGES


@<TRIPOS>ATOM
      1 CA         -0.9173  -10.2385  -47.6707 C.3       0 UNK        -0.1800 
      2 C          -0.4246  -11.4793  -46.9413 C.2       0 UNK         0.5000 
      3 O          -0.5058  -11.5403  -45.7153 O.2       0 UNK        -0.5000 
      4 N           0.0685  -12.4755  -47.6899 N.am      1 UNK        -0.5000 
      5 CA          0.6383  -13.7356  -47.1862 C.3       1 UNK         0.1400 
      6 C6          1.1999  -14.6101  -48.3323 C.3       23 UNK        -0.0398 
      7 S7          2.5320  -13.7678  -49.2479 S.3       23 UNK        -0.2404 
      8 C8          3.8019  -15.0758  -49.3362 C.3       23 UNK        -0.0205 
      9 C9          3.4909  -16.2334  -50.2880 C.ar      23 UNK        -0.0193 
     10 C10         2.6616  -16.0860  -51.4092 C.ar      23 UNK        -0.1150 
     11 C11         2.4621  -17.1492  -52.2956 C.ar      23 UNK        -0.0193 
     12 C12         3.1044  -18.3675  -52.0627 C.ar      23 UNK        -0.1150 
     13 C13         3.9336  -18.5326  -50.9505 C.ar      23 UNK        -0.0193 
     14 C14         4.1155  -17.4650  -50.0665 C.ar      23 UNK        -0.1150 
     15 C15         4.6742  -19.8455  -50.7297 C.3       23 UNK        -0.0205 
     16 S16         3.5588  -21.2716  -50.5397 S.3       23 UNK        -0.2404 
     17 C17         2.7359  -20.8829  -48.9606 C.3       23 UNK        -0.0398 
     18 CA          1.2892  -21.4286  -48.9025 C.3       11 UNK         0.1400 
     19 N           0.8406  -21.5968  -47.5210 N.am      11 UNK        -0.5000 
     20 C          -0.2127  -22.3390  -47.1569 C.2       10 UNK         0.5000 
     21 O          -0.8369  -23.0616  -47.9318 O.2       10 UNK        -0.5000 
     22 CA         -0.6577  -22.2334  -45.6880 C.3       10 UNK         0.1400 
     23 CB          0.0568  -23.2829  -44.8248 C.3       10 UNK        -0.1800 
     24 N          -0.4408  -20.8993  -45.1222 N.am      10 UNK        -0.5000 
     25 C          -1.0777  -19.7901  -45.5246 C.2       9 UNK         0.5000 
     26 O          -1.9720  -19.7836  -46.3722 O.2       9 UNK        -0.5000 
     27 CA         -0.6151  -18.4581  -44.9146 C.3       9 UNK         0.1400 
     28 CB         -1.2758  -18.2093  -43.5521 C.3       9 UNK        -0.1800 
     29 N           0.8363  -18.3658  -44.7879 N.am      9 UNK        -0.5000 
     30 C           1.6882  -18.3313  -45.8202 C.2       8 UNK         0.5000 
     31 O           1.3390  -18.3822  -46.9970 O.2       8 UNK        -0.5000 
     32 CA          3.1860  -18.2930  -45.4827 C.3       8 UNK         0.1400 
     33 CB          3.6417  -16.8636  -45.1522 C.3       8 UNK        -0.1800 
     34 N           3.5117  -19.1912  -44.3754 N.am      8 UNK        -0.5000 
     35 C           3.4723  -20.5289  -44.4534 C.2       7 UNK         0.5000 
     36 O           3.2051  -21.1460  -45.4848 O.2       7 UNK        -0.5000 
     37 CA          3.7398  -21.3032  -43.1494 C.3       7 UNK         0.1400 
     38 CB          5.2490  -21.4353  -42.8963 C.3       7 UNK        -0.1800 
     39 N           3.1036  -20.6846  -41.9844 N.am      7 UNK        -0.5000 
     40 C           1.7781  -20.6197  -41.7963 C.2       6 UNK         0.5000 
     41 O           0.9532  -21.0919  -42.5774 O.2       6 UNK        -0.5000 
     42 CA          1.2881  -19.8574  -40.5501 C.3       6 UNK         0.1400 
     43 CB          1.2928  -20.7771  -39.3199 C.3       6 UNK        -0.1800 
     44 N           2.0450  -18.6367  -40.2486 N.am      6 UNK        -0.5000 
     45 C           2.2210  -17.6147  -41.0967 C.2       5 UNK         0.5000 
     46 O           1.8542  -17.6353  -42.2721 O.2       5 UNK        -0.5000 
     47 CA          2.9697  -16.3830  -40.5535 C.3       5 UNK         0.1400 
     48 CB          4.4873  -16.6137  -40.6271 C.3       5 UNK        -0.1800 
     49 N           2.6474  -15.1633  -41.2987 N.am      5 UNK        -0.5000 
     50 C           1.4342  -14.5985  -41.3764 C.2       4 UNK         0.5000 
     51 O           0.4610  -14.9995  -40.7323 O.2       4 UNK        -0.5000 
     52 CA          1.2986  -13.3722  -42.3070 C.3       4 UNK         0.1400 
     53 CB          2.2818  -13.3913  -43.4946 C.3       4 UNK        -0.1800 
     54 N          -0.0619  -13.2556  -42.8303 N.am      4 UNK        -0.5000 
     55 C          -1.0647  -12.5970  -42.2321 C.2       3 UNK         0.5000 
     56 O          -0.9324  -11.9806  -41.1728 O.2       3 UNK        -0.5000 
     57 CA         -2.4441  -12.6042  -42.9240 C.3       3 UNK         0.1400 
     58 CB         -2.9551  -11.1707  -43.1509 C.3       3 UNK        -0.1800 
     59 N          -2.4128  -13.2898  -44.2162 N.am      3 UNK        -0.5000 
     60 C          -2.9270  -14.5018  -44.4651 C.2       2 UNK         0.5000 
     61 O          -3.5215  -15.1771  -43.6249 O.2       2 UNK        -0.5000 
     62 CA         -2.7509  -15.0669  -45.8913 C.3       2 UNK         0.1400 
     63 CB         -4.0481  -14.9143  -46.6995 C.3       2 UNK        -0.1800 
     64 N          -1.6515  -14.4601  -46.6465 N.am      2 UNK        -0.5000 
     65 C          -0.3527  -14.5467  -46.3246 C.2       1 UNK         0.5000 
     66 O           0.0645  -15.1808  -45.3580 O.2       1 UNK        -0.5000 
     67 C           0.2976  -20.5612  -49.7119 C.2       11 UNK         0.5000 
     68 O           0.0358  -20.8684  -50.8737 O.2       11 UNK        -0.5000 
     69 N          -0.2454  -19.5133  -49.0749 N.am      12 UNK        -0.5000 
     70 CA         -1.1860  -18.5652  -49.6629 C.3       12 UNK         0.1400 
     71 CB         -1.3497  -17.3468  -48.7411 C.3       12 UNK        -0.1800 
     72 C          -2.5526  -19.1846  -49.9946 C.2       12 UNK         0.5000 
     73 O          -2.9877  -19.0831  -51.1418 O.2       12 UNK        -0.5000 
     74 N          -3.2138  -19.7823  -48.9906 N.am      13 UNK        -0.5000 
     75 CA         -4.5622  -20.3405  -49.1330 C.3       13 UNK         0.1400 
     76 CB         -5.5974  -19.2199  -49.3793 C.3       13 UNK        -0.1800 
     77 C          -5.0379  -21.2125  -47.9592 C.2       13 UNK         0.5000 
     78 O          -5.9561  -22.0104  -48.1673 O.2       13 UNK        -0.5000 
     79 N          -4.4677  -21.0469  -46.7563 N.am      14 UNK        -0.5000 
     80 CA         -4.9028  -21.7450  -45.5416 C.3       14 UNK         0.1400 
     81 CB         -4.2508  -21.0944  -44.3097 C.3       14 UNK        -0.1800 
     82 C          -4.6289  -23.2618  -45.5847 C.2       14 UNK         0.5000 
     83 O          -3.8980  -23.7396  -46.4534 O.2       14 UNK        -0.5000 
     84 N          -5.2502  -23.9967  -44.6510 N.am      15 UNK        -0.5000 
     85 CA         -5.2313  -25.4639  -44.5452 C.3       15 UNK         0.1400 
     86 CB         -3.8160  -25.9763  -44.2005 C.3       15 UNK        -0.1800 
     87 C          -5.8441  -26.1597  -45.7831 C.2       15 UNK         0.5000 
     88 O          -5.4170  -27.2529  -46.1577 O.2       15 UNK        -0.5000 
     89 N          -6.8380  -25.4921  -46.3904 N.am      16 UNK        -0.5000 
     90 CA         -7.5817  -25.8795  -47.5933 C.3       16 UNK         0.1400 
     91 CB         -8.3906  -27.1716  -47.3502 C.3       16 UNK        -0.1800 
     92 C          -6.7239  -25.9396  -48.8768 C.2       16 UNK         0.5000 
     93 O          -7.0911  -26.6470  -49.8168 O.2       16 UNK        -0.5000 
     94 N          -5.6144  -25.1853  -48.9184 N.am      17 UNK        -0.5000 
     95 CA         -4.7625  -25.0515  -50.1035 C.3       17 UNK         0.1400 
     96 CB         -3.4210  -24.4176  -49.7069 C.3       17 UNK        -0.1800 
     97 C          -5.4364  -24.2398  -51.2268 C.2       17 UNK         0.5000 
     98 O          -5.2543  -24.5725  -52.3988 O.2       17 UNK        -0.5000 
     99 N          -6.2157  -23.2190  -50.8316 N.am      18 UNK        -0.5000 
    100 CA        -6.9429  -22.2468  -51.6567 C.3       18 UNK         0.1400 
    101 CB        -7.9548  -22.9519  -52.5829 C.3       18 UNK        -0.1800 
    102 C         -6.0216  -21.2967  -52.4496 C.2       18 UNK         0.5000 
    103 O         -4.8267  -21.5519  -52.6030 O.2       18 UNK        -0.5000 
    104 N         -6.6044  -20.2018  -52.9593 N.am      19 UNK        -0.5000 
    105 CA        -5.9078  -19.1492  -53.7138 C.3       19 UNK         0.1400 
    106 CB        -6.8946  -18.0117  -54.0142 C.3       19 UNK        -0.1800 
    107 C         -5.2343  -19.6375  -55.0135 C.2       19 UNK         0.5000 
    108 O         -4.2941  -19.0007  -55.4917 O.2       19 UNK        -0.5000 
    109 N         -5.6870  -20.7887  -55.5301 N.am      20 UNK        -0.5000 
    110 CA        -5.0933  -21.5322  -56.6425 C.3       20 UNK         0.1400 
    111 CB        -5.9910  -22.7385  -56.9587 C.3       20 UNK        -0.1800 
    112 C         -3.6396  -21.9918  -56.3948 C.2       20 UNK         0.5000 
    113 O         -2.9367  -22.2866  -57.3620 O.2       20 UNK        -0.5000 
    114 N         -3.2016  -22.0264  -55.1260 N.am      21 UNK        -0.5000 
    115 CA        -1.8119  -22.2654  -54.7345 C.3       21 UNK         0.1400 
    116 CB        -1.7440  -22.4766  -53.2155 C.3       21 UNK        -0.1800 
    117 C         -0.8587  -21.1341  -55.1757 C.2       21 UNK         0.5000 
    118 O          0.3010  -21.4162  -55.4816 O.2       21 UNK        -0.5000 
    119 N         -1.3665  -19.8952  -55.2356 N.am      22 UNK        -0.5000 
    120 CA        -0.6653  -18.7282  -55.7944 C.3       22 UNK         0.1400 
    121 C         -1.1286  -18.4175  -57.2427 C.2       22 UNK         0.5000 
    122 N         -2.4107  -18.5444  -57.5633 N.am      22 UNK        -0.7600 
    123 O         -0.3136  -18.0600  -58.0887 O.2       22 UNK        -0.5000 
    124 C124       -0.8169  -17.4679  -54.9068 C.3       23 UNK        -0.0398 
    125 S125       -0.0722  -17.6813  -53.2576 S.3       23 UNK        -0.2404 
    126 C126        1.5825  -16.9783  -53.5249 C.3       23 UNK        -0.0205 
    127 H127       -1.9729  -10.0725  -47.4561 H         1 UNK         0.0600 
    128 H128       -0.7988  -10.3286  -48.7507 H         1 UNK         0.0600 
    129 H129       -0.3591   -9.3633  -47.3386 H         1 UNK         0.0600 
    130 H130        0.1205  -12.3529  -48.6914 H         1 UNK         0.3000 
    131 H131        1.4697  -13.4674  -46.5311 H         1 UNK         0.0600 
    132 H132        1.5784  -15.5571  -47.9414 H         1 UNK         0.0800 
    133 H133        0.4143  -14.8609  -49.0463 H         1 UNK         0.0800 
    134 H134        3.9846  -15.4545  -48.3294 H         1 UNK         0.0800 
    135 H135        4.7361  -14.6173  -49.6626 H         1 UNK         0.0800 
    136 H136        2.1822  -15.1394  -51.6114 H         1 UNK         0.1150 
    137 H137        2.9613  -19.1889  -52.7512 H         1 UNK         0.1150 
    138 H138        4.7709  -17.5838  -49.2149 H         1 UNK         0.1150 
    139 H139        5.3244  -19.7864  -49.8554 H         1 UNK         0.0800 
    140 H140        5.3277  -20.0249  -51.5844 H         1 UNK         0.0800 
    141 H141        2.7576  -19.8096  -48.7680 H         1 UNK         0.0800 
    142 H142        3.3403  -21.3396  -48.1760 H         1 UNK         0.0800 
    143 H143        1.2908  -22.4233  -49.3544 H         1 UNK         0.0600 
    144 H144        1.3302  -21.0643  -46.8135 H         1 UNK         0.3000 
    145 H145       -1.7261  -22.4434  -45.6597 H         1 UNK         0.0600 
    146 H146       -0.3259  -23.2783  -43.8041 H         1 UNK         0.0600 
    147 H147       -0.0959  -24.2864  -45.2240 H         1 UNK         0.0600 
    148 H148        1.1317  -23.1031  -44.7816 H         1 UNK         0.0600 
    149 H149        0.2351  -20.8326  -44.3662 H         1 UNK         0.3000 
    150 H150       -0.9276  -17.6673  -45.5949 H         1 UNK         0.0600 
    151 H151       -0.9864  -18.9642  -42.8211 H         1 UNK         0.0600 
    152 H152       -2.3632  -18.2280  -43.6357 H         1 UNK         0.0600 
    153 H153       -0.9969  -17.2325  -43.1548 H         1 UNK         0.0600 
    154 H154        1.2089  -18.2515  -43.8471 H         1 UNK         0.3000 
    155 H155        3.7338  -18.6257  -46.3671 H         1 UNK         0.0600 
    156 H156        3.1685  -16.4886  -44.2454 H         1 UNK         0.0600 
    157 H157        3.3878  -16.1760  -45.9598 H         1 UNK         0.0600 
    158 H158        4.7214  -16.8169  -45.0103 H         1 UNK         0.0600 
    159 H159        3.6618  -18.7625  -43.4741 H         1 UNK         0.3000 
    160 H160        3.3256  -22.3067  -43.2693 H         1 UNK         0.0600 
    161 H161        5.7194  -20.4639  -42.7390 H         1 UNK         0.0600 
    162 H162        5.7465  -21.9079  -43.7442 H         1 UNK         0.0600 
    163 H163        5.4489  -22.0513  -42.0193 H         1 UNK         0.0600 
    164 H164        3.7105  -20.2638  -41.2966 H         1 UNK         0.3000 
    165 H165        0.2562  -19.5568  -40.7414 H         1 UNK         0.0600 
    166 H166        0.8411  -20.2859  -38.4578 H         1 UNK         0.0600 
    167 H167        2.3047  -21.0769  -39.0444 H         1 UNK         0.0600 
    168 H168        0.7209  -21.6865  -39.5097 H         1 UNK         0.0600 
    169 H169        2.3965  -18.5523  -39.3057 H         1 UNK         0.3000 
    170 H170        2.6811  -16.2314  -39.5115 H         1 UNK         0.0600 
    171 H171        4.7804  -17.4959  -40.0565 H         1 UNK         0.0600 
    172 H172        4.8223  -16.7615  -41.6549 H         1 UNK         0.0600 
    173 H173        5.0357  -15.7668  -40.2142 H         1 UNK         0.0600 
    174 H174        3.3868  -14.7853  -41.8713 H         1 UNK         0.3000 
    175 H175        1.5287  -12.4903  -41.7060 H         1 UNK         0.0600 
    176 H176        2.1997  -14.3121  -44.0712 H         1 UNK         0.0600 
    177 H177        2.0917  -12.5585  -44.1724 H         1 UNK         0.0600 
    178 H178        3.3156  -13.2968  -43.1615 H         1 UNK         0.0600 
    179 H179       -0.2610  -13.7872  -43.6682 H         1 UNK         0.3000 
    180 H180       -3.1366  -13.1043  -42.2442 H         1 UNK         0.0600 
    181 H181       -2.2786  -10.5988  -43.7871 H         1 UNK         0.0600 
    182 H182       -3.0522  -10.6326  -42.2072 H         1 UNK         0.0600 
    183 H183       -3.9375  -11.1731  -43.6233 H         1 UNK         0.0600 
    184 H184       -1.8985  -12.8088  -44.9473 H         1 UNK         0.3000 
    185 H185       -2.5465  -16.1326  -45.7906 H         1 UNK         0.0600 
    186 H186       -3.9641  -15.3942  -47.6749 H         1 UNK         0.0600 
    187 H187       -4.8883  -15.3798  -46.1825 H         1 UNK         0.0600 
    188 H188       -4.3009  -13.8654  -46.8594 H         1 UNK         0.0600 
    189 H189       -1.9098  -13.8892  -47.4382 H         1 UNK         0.3000 
    190 H190        0.0904  -19.2909  -48.1433 H         1 UNK         0.3000 
    191 H191       -0.7399  -18.2125  -50.5914 H         1 UNK         0.0600 
    192 H192       -1.9003  -16.5509  -49.2436 H         1 UNK         0.0600 
    193 H193       -0.3813  -16.9462  -48.4525 H         1 UNK         0.0600 
    194 H194       -1.8912  -17.5891  -47.8281 H         1 UNK         0.0600 
    195 H195       -2.7642  -19.8485  -48.0815 H         1 UNK         0.3000 
    196 H196       -4.5409  -20.9996  -50.0003 H         1 UNK         0.0600 
    197 H197       -5.5626  -18.4675  -48.5907 H         1 UNK         0.0600 
    198 H198       -5.4346  -18.7149  -50.3308 H         1 UNK         0.0600 
    199 H199       -6.6132  -19.6163  -49.4086 H         1 UNK         0.0600 
    200 H200       -3.6671  -20.4324  -46.6488 H         1 UNK         0.3000 
    201 H201       -5.9831  -21.6071  -45.4611 H         1 UNK         0.0600 
    202 H202       -3.1893  -21.3244  -44.2390 H         1 UNK         0.0600 
    203 H203       -4.7152  -21.4490  -43.3892 H         1 UNK         0.0600 
    204 H204       -4.3601  -20.0098  -44.3269 H         1 UNK         0.0600 
    205 H205       -5.8286  -23.5223  -43.9711 H         1 UNK         0.3000 
    206 H206       -5.8822  -25.7175  -43.7072 H         1 UNK         0.0600 
    207 H207       -3.4115  -25.4613  -43.3292 H         1 UNK         0.0600 
    208 H208       -3.8327  -27.0416  -43.9680 H         1 UNK         0.0600 
    209 H209       -3.1186  -25.8352  -45.0267 H         1 UNK         0.0600 
    210 H210       -7.0944  -24.5969  -45.9994 H         1 UNK         0.3000 
    211 H211       -8.3012  -25.0775  -47.7645 H         1 UNK         0.0600 
    212 H212       -9.0748  -27.3673  -48.1766 H         1 UNK         0.0600 
    213 H213       -8.9933  -27.0958  -46.4452 H         1 UNK         0.0600 
    214 H214       -7.7432  -28.0432  -47.2509 H         1 UNK         0.0600 
    215 H215       -5.3568  -24.6356  -48.1082 H         1 UNK         0.3000 
    216 H216       -4.5584  -26.0518  -50.4914 H         1 UNK         0.0600 
    217 H217       -3.5484  -23.4119  -49.3068 H         1 UNK         0.0600 
    218 H218       -2.7532  -24.3434  -50.5658 H         1 UNK         0.0600 
    219 H219       -2.9111  -25.0122  -48.9485 H         1 UNK         0.0600 
    220 H220       -6.2453  -23.0281  -49.8345 H         1 UNK         0.3000 
    221 H221       -7.5034  -21.6304  -50.9523 H         1 UNK         0.0600 
    222 H222       -8.5804  -23.6486  -52.0246 H         1 UNK         0.0600 
    223 H223       -7.4607  -23.5100  -53.3787 H         1 UNK         0.0600 
    224 H224       -8.6211  -22.2323  -53.0594 H         1 UNK         0.0600 
    225 H225       -7.5914  -20.0555  -52.8035 H         1 UNK         0.3000 
    226 H226       -5.1156  -18.7555  -53.0733 H         1 UNK         0.0600 
    227 H227       -7.7282  -18.3542  -54.6285 H         1 UNK         0.0600 
    228 H228       -7.3030  -17.5905  -53.0953 H         1 UNK         0.0600 
    229 H229       -6.4028  -17.1992  -54.5510 H         1 UNK         0.0600 
    230 H230       -6.4577  -21.2367  -55.0580 H         1 UNK         0.3000 
    231 H231       -5.0808  -20.8725  -57.5123 H         1 UNK         0.0600 
    232 H232       -6.0591  -23.4206  -56.1099 H         1 UNK         0.0600 
    233 H233       -5.6015  -23.3056  -57.8053 H         1 UNK         0.0600 
    234 H234       -7.0013  -22.4225  -57.2191 H         1 UNK         0.0600 
    235 H235       -3.8446  -21.8034  -54.3719 H         1 UNK         0.3000 
    236 H236       -1.4812  -23.1862  -55.2192 H         1 UNK         0.0600 
    237 H237       -2.3891  -23.2968  -52.9000 H         1 UNK         0.0600 
    238 H238       -0.7284  -22.7174  -52.8992 H         1 UNK         0.0600 
    239 H239       -2.0519  -21.5817  -52.6722 H         1 UNK         0.0600 
    240 H240       -2.3403  -19.7552  -54.9999 H         1 UNK         0.3000 
    241 H241        0.4030  -18.9445  -55.8559 H         1 UNK         0.0600 
    242 H242       -2.7058  -18.3456  -58.5057 H         1 UNK         0.3800 
    243 H243       -3.1060  -18.7658  -56.8543 H         1 UNK         0.3800 
    244 H244       -1.8724  -17.2244  -54.7731 H         1 UNK         0.0800 
    245 H245       -0.3638  -16.5974  -55.3850 H         1 UNK         0.0800 
    246 H246        1.4906  -15.9224  -53.7840 H         1 UNK         0.0800 
    247 H247        2.0514  -17.4681  -54.3798 H         1 UNK         0.0800 
@<TRIPOS>BOND
     1    1    2 1    
     2    1  127 1    
     3    1  128 1    
     4    1  129 1    
     5    2    3 2    
     6    2    4 am   BACKBONE|DICT|INTERRES
     7    4    5 1    
     8    4  130 1    
     9    5    6 1    
    10    5   65 1    
    11    5  131 1    
    12    6    7 1    
    13    6  132 1    
    14    6  133 1    
    15    7    8 1    
    16    8    9 1    
    17    8  134 1    
    18    8  135 1    
    19    9   10 ar   
    20    9   14 ar   
    21   10   11 ar   
    22   10  136 1    
    23   11   12 ar   
    24   11  126 1    
    25   12   13 ar   
    26   12  137 1    
    27   13   14 ar   
    28   13   15 1    
    29   14  138 1    
    30   15   16 1    
    31   15  139 1    
    32   15  140 1    
    33   16   17 1    
    34   17   18 1    
    35   17  141 1    
    36   17  142 1    
    37   18   19 1    
    38   18   67 1    
    39   18  143 1    
    40   19   20 am   BACKBONE|DICT|INTERRES
    41   19  144 1    
    42   20   21 2    
    43   20   22 1    
    44   22   23 1    
    45   22   24 1    
    46   22  145 1    
    47   23  146 1    
    48   23  147 1    
    49   23  148 1    
    50   24   25 am   BACKBONE|DICT|INTERRES
    51   24  149 1    
    52   25   26 2    
    53   25   27 1    
    54   27   28 1    
    55   27   29 1    
    56   27  150 1    
    57   28  151 1    
    58   28  152 1    
    59   28  153 1    
    60   29   30 am   BACKBONE|DICT|INTERRES
    61   29  154 1    
    62   30   31 2    
    63   30   32 1    
    64   32   33 1    
    65   32   34 1    
    66   32  155 1    
    67   33  156 1    
    68   33  157 1    
    69   33  158 1    
    70   34   35 am   BACKBONE|DICT|INTERRES
    71   34  159 1    
    72   35   36 2    
    73   35   37 1    
    74   37   38 1    
    75   37   39 1    
    76   37  160 1    
    77   38  161 1    
    78   38  162 1    
    79   38  163 1    
    80   39   40 am   BACKBONE|DICT|INTERRES
    81   39  164 1    
    82   40   41 2    
    83   40   42 1    
    84   42   43 1    
    85   42   44 1    
    86   42  165 1    
    87   43  166 1    
    88   43  167 1    
    89   43  168 1    
    90   44   45 am   BACKBONE|DICT|INTERRES
    91   44  169 1    
    92   45   46 2    
    93   45   47 1    
    94   47   48 1    
    95   47   49 1    
    96   47  170 1    
    97   48  171 1    
    98   48  172 1    
    99   48  173 1    
   100   49   50 am   BACKBONE|DICT|INTERRES
   101   49  174 1    
   102   50   51 2    
   103   50   52 1    
   104   52   53 1    
   105   52   54 1    
   106   52  175 1    
   107   53  176 1    
   108   53  177 1    
   109   53  178 1    
   110   54   55 am   BACKBONE|DICT|INTERRES
   111   54  179 1    
   112   55   56 2    
   113   55   57 1    
   114   57   58 1    
   115   57   59 1    
   116   57  180 1    
   117   58  181 1    
   118   58  182 1    
   119   58  183 1    
   120   59   60 am   BACKBONE|DICT|INTERRES
   121   59  184 1    
   122   60   61 2    
   123   60   62 1    
   124   62   63 1    
   125   62   64 1    
   126   62  185 1    
   127   63  186 1    
   128   63  187 1    
   129   63  188 1    
   130   64   65 am   BACKBONE|DICT|INTERRES
   131   64  189 1    
   132   65   66 2    
   133   67   68 2    
   134   67   69 am   BACKBONE|DICT|INTERRES
   135   69   70 1    
   136   69  190 1    
   137   70   71 1    
   138   70   72 1    
   139   70  191 1    
   140   71  192 1    
   141   71  193 1    
   142   71  194 1    
   143   72   73 2    
   144   72   74 am   BACKBONE|DICT|INTERRES
   145   74   75 1    
   146   74  195 1    
   147   75   76 1    
   148   75   77 1    
   149   75  196 1    
   150   76  197 1    
   151   76  198 1    
   152   76  199 1    
   153   77   78 2    
   154   77   79 am   BACKBONE|DICT|INTERRES
   155   79   80 1    
   156   79  200 1    
   157   80   81 1    
   158   80   82 1    
   159   80  201 1    
   160   81  202 1    
   161   81  203 1    
   162   81  204 1    
   163   82   83 2    
   164   82   84 am   BACKBONE|DICT|INTERRES
   165   84   85 1    
   166   84  205 1    
   167   85   86 1    
   168   85   87 1    
   169   85  206 1    
   170   86  207 1    
   171   86  208 1    
   172   86  209 1    
   173   87   88 2    
   174   87   89 am   BACKBONE|DICT|INTERRES
   175   89   90 1    
   176   89  210 1    
   177   90   91 1    
   178   90   92 1    
   179   90  211 1    
   180   91  212 1    
   181   91  213 1    
   182   91  214 1    
   183   92   93 2    
   184   92   94 am   BACKBONE|DICT|INTERRES
   185   94   95 1    
   186   94  215 1    
   187   95   96 1    
   188   95   97 1    
   189   95  216 1    
   190   96  217 1    
   191   96  218 1    
   192   96  219 1    
   193   97   98 2    
   194   97   99 am   BACKBONE|DICT|INTERRES
   195   99  100 1    
   196   99  220 1    
   197  100  101 1    
   198  100  102 1    
   199  100  221 1    
   200  101  222 1    
   201  101  223 1    
   202  101  224 1    
   203  102  103 2    
   204  102  104 am   BACKBONE|DICT|INTERRES
   205  104  105 1    
   206  104  225 1    
   207  105  106 1    
   208  105  107 1    
   209  105  226 1    
   210  106  227 1    
   211  106  228 1    
   212  106  229 1    
   213  107  108 2    
   214  107  109 am   BACKBONE|DICT|INTERRES
   215  109  110 1    
   216  109  230 1    
   217  110  111 1    
   218  110  112 1    
   219  110  231 1    
   220  111  232 1    
   221  111  233 1    
   222  111  234 1    
   223  112  113 2    
   224  112  114 am   BACKBONE|DICT|INTERRES
   225  114  115 1    
   226  114  235 1    
   227  115  116 1    
   228  115  117 1    
   229  115  236 1    
   230  116  237 1    
   231  116  238 1    
   232  116  239 1    
   233  117  118 2    
   234  117  119 am   BACKBONE|DICT|INTERRES
   235  119  120 1    
   236  119  240 1    
   237  120  121 1    
   238  120  124 1    
   239  120  241 1    
   240  121  122 am   BACKBONE|DICT|INTERRES
   241  121  123 2    
   242  122  242 1    
   243  122  243 1    
   244  124  125 1    
   245  124  244 1    
   246  124  245 1    
   247  125  126 1    
   248  126  246 1    
   249  126  247 1    
@<TRIPOS>SUBSTRUCTURE
     1 UNK         1 GROUP             0       ****    0 ROOT    
