@<TRIPOS>MOLECULE
3R540
247   249    1
SMALL
USER_CHARGES


@<TRIPOS>ATOM
      1 CA          1.2360  -10.1413  -50.3771 C.3       0 UNK        -0.1800 
      2 C           0.6221  -11.5084  -50.1087 C.2       0 UNK         0.5000 
      3 O          -0.0073  -12.0811  -50.9975 O.2       0 UNK        -0.5000 
      4 N           0.7963  -12.0259  -48.8863 N.am      1 UNK        -0.5000 
      5 CA          0.3415  -13.3516  -48.4598 C.3       1 UNK         0.1400 
      6 C6          0.3834  -13.4649  -46.9142 C.3       23 UNK        -0.0398 
      7 S7         -0.1678  -15.0609  -46.2158 S.3       23 UNK        -0.2404 
      8 C8         -1.9787  -14.8748  -46.2072 C.3       23 UNK        -0.0205 
      9 C9         -2.5879  -15.5783  -47.4072 C.ar      23 UNK        -0.0193 
     10 C10        -2.9943  -14.8616  -48.5342 C.ar      23 UNK        -0.1150 
     11 C11        -3.4875  -15.5325  -49.6559 C.ar      23 UNK        -0.0193 
     12 C12        -3.5974  -16.9269  -49.6364 C.ar      23 UNK        -0.1150 
     13 C13        -3.2167  -17.6539  -48.5044 C.ar      23 UNK        -0.0193 
     14 C14        -2.7196  -16.9673  -47.3938 C.ar      23 UNK        -0.1150 
     15 C15        -3.3432  -19.1728  -48.4839 C.3       23 UNK        -0.0205 
     16 S16        -1.7295  -19.9995  -48.2860 S.3       23 UNK        -0.2404 
     17 C17        -1.5707  -20.0641  -46.4674 C.3       23 UNK        -0.0398 
     18 CA         -1.0460  -21.4246  -45.9610 C.3       11 UNK         0.1400 
     19 N          -0.4976  -21.3284  -44.6021 N.am      11 UNK        -0.5000 
     20 C           0.0452  -22.3429  -43.9107 C.2       10 UNK         0.5000 
     21 O           0.1194  -23.4972  -44.3298 O.2       10 UNK        -0.5000 
     22 CA          0.5537  -22.0270  -42.4987 C.3       10 UNK         0.1400 
     23 CB          1.9191  -21.3362  -42.5595 C.3       10 UNK        -0.1800 
     24 N          -0.3960  -21.1877  -41.7738 N.am      10 UNK        -0.5000 
     25 C          -1.5010  -21.6598  -41.1797 C.2       9 UNK         0.5000 
     26 O          -1.7810  -22.8567  -41.1046 O.2       9 UNK        -0.5000 
     27 CA         -2.4759  -20.6192  -40.5977 C.3       9 UNK         0.1400 
     28 CB         -2.0591  -20.2250  -39.1728 C.3       9 UNK        -0.1800 
     29 N          -2.5848  -19.4122  -41.4176 N.am      9 UNK        -0.5000 
     30 C          -3.0323  -19.3793  -42.6804 C.2       8 UNK         0.5000 
     31 O          -3.4293  -20.3680  -43.2970 O.2       8 UNK        -0.5000 
     32 CA         -2.9840  -18.0173  -43.3946 C.3       8 UNK         0.1400 
     33 CB         -4.3060  -17.2597  -43.2085 C.3       8 UNK        -0.1800 
     34 N          -1.8713  -17.1578  -42.9830 N.am      8 UNK        -0.5000 
     35 C          -0.5683  -17.4634  -43.0685 C.2       7 UNK         0.5000 
     36 O          -0.1554  -18.5519  -43.4791 O.2       7 UNK        -0.5000 
     37 CA          0.4040  -16.3417  -42.6402 C.3       7 UNK         0.1400 
     38 CB         -0.0023  -15.6938  -41.2978 C.3       7 UNK        -0.1800 
     39 N           1.8166  -16.7290  -42.6048 N.am      7 UNK        -0.5000 
     40 C           2.4065  -17.6163  -41.7878 C.2       6 UNK         0.5000 
     41 O           1.7972  -18.3313  -40.9910 O.2       6 UNK        -0.5000 
     42 CA          3.9505  -17.6784  -41.8220 C.3       6 UNK         0.1400 
     43 CB          4.4569  -18.9356  -42.5423 C.3       6 UNK        -0.1800 
     44 N           4.5571  -16.4964  -42.4403 N.am      6 UNK        -0.5000 
     45 C           4.6589  -15.3022  -41.8370 C.2       5 UNK         0.5000 
     46 O           4.3004  -15.0975  -40.6766 O.2       5 UNK        -0.5000 
     47 CA          5.2517  -14.1329  -42.6504 C.3       5 UNK         0.1400 
     48 CB          6.6917  -13.8415  -42.1995 C.3       5 UNK        -0.1800 
     49 N           5.2465  -14.3318  -44.1015 N.am      5 UNK        -0.5000 
     50 C           4.1551  -14.4331  -44.8711 C.2       4 UNK         0.5000 
     51 O           3.0061  -14.4028  -44.4261 O.2       4 UNK        -0.5000 
     52 CA          4.3744  -14.6205  -46.3888 C.3       4 UNK         0.1400 
     53 CB          5.8575  -14.7053  -46.8152 C.3       4 UNK        -0.1800 
     54 N           3.6354  -15.7722  -46.9099 N.am      4 UNK        -0.5000 
     55 C           3.7049  -17.0413  -46.4787 C.2       3 UNK         0.5000 
     56 O           4.4529  -17.4070  -45.5705 O.2       3 UNK        -0.5000 
     57 CA          2.7890  -18.0778  -47.1619 C.3       3 UNK         0.1400 
     58 CB          1.9417  -18.8310  -46.1279 C.3       3 UNK        -0.1800 
     59 N           1.8885  -17.4709  -48.1457 N.am      3 UNK        -0.5000 
     60 C           2.0960  -17.4541  -49.4688 C.2       2 UNK         0.5000 
     61 O           3.0472  -18.0080  -50.0207 O.2       2 UNK        -0.5000 
     62 CA          1.0901  -16.6534  -50.3214 C.3       2 UNK         0.1400 
     63 CB         -0.0257  -17.5688  -50.8462 C.3       2 UNK        -0.1800 
     64 N           0.4871  -15.5138  -49.6227 N.am      2 UNK        -0.5000 
     65 C           1.1638  -14.4535  -49.1595 C.2       1 UNK         0.5000 
     66 O           2.3895  -14.3395  -49.2319 O.2       1 UNK        -0.5000 
     67 C          -2.1239  -22.5184  -46.1019 C.2       11 UNK         0.5000 
     68 O          -2.1021  -23.2616  -47.0824 O.2       11 UNK        -0.5000 
     69 N          -3.0037  -22.6343  -45.0975 N.am      12 UNK        -0.5000 
     70 CA         -4.0599  -23.6447  -45.0072 C.3       12 UNK         0.1400 
     71 CB         -4.9124  -23.3573  -43.7621 C.3       12 UNK        -0.1800 
     72 C          -3.5558  -25.1032  -44.9869 C.2       12 UNK         0.5000 
     73 O          -4.3145  -25.9998  -45.3553 O.2       12 UNK        -0.5000 
     74 N          -2.3022  -25.3186  -44.5684 N.am      13 UNK        -0.5000 
     75 CA         -1.6315  -26.6161  -44.6054 C.3       13 UNK         0.1400 
     76 CB         -0.8253  -26.8021  -43.3100 C.3       13 UNK        -0.1800 
     77 C          -0.7134  -26.7317  -45.8343 C.2       13 UNK         0.5000 
     78 O          -0.6777  -27.7868  -46.4682 O.2       13 UNK        -0.5000 
     79 N           0.0279  -25.6570  -46.1343 N.am      14 UNK        -0.5000 
     80 CA          1.0710  -25.6198  -47.1572 C.3       14 UNK         0.1400 
     81 CB          1.9618  -24.3908  -46.9164 C.3       14 UNK        -0.1800 
     82 C           0.5496  -25.6197  -48.6047 C.2       14 UNK         0.5000 
     83 O           1.2333  -26.1584  -49.4770 O.2       14 UNK        -0.5000 
     84 N          -0.6144  -25.0040  -48.8491 N.am      15 UNK        -0.5000 
     85 CA         -1.1554  -24.8041  -50.1942 C.3       15 UNK         0.1400 
     86 CB         -0.7198  -23.4255  -50.7233 C.3       15 UNK        -0.1800 
     87 C          -2.6811  -24.9448  -50.2436 C.2       15 UNK         0.5000 
     88 O          -3.1946  -25.6121  -51.1429 O.2       15 UNK        -0.5000 
     89 N          -3.3825  -24.2964  -49.3036 N.am      16 UNK        -0.5000 
     90 CA         -4.8378  -24.1410  -49.2502 C.3       16 UNK         0.1400 
     91 CB         -5.5081  -25.4734  -48.8476 C.3       16 UNK        -0.1800 
     92 C          -5.3764  -23.5316  -50.5633 C.2       16 UNK         0.5000 
     93 O          -5.0587  -22.3812  -50.8695 O.2       16 UNK        -0.5000 
     94 N          -6.1347  -24.3193  -51.3369 N.am      17 UNK        -0.5000 
     95 CA         -6.6782  -23.9511  -52.6446 C.3       17 UNK         0.1400 
     96 CB         -7.6669  -25.0361  -53.0964 C.3       17 UNK        -0.1800 
     97 C          -5.6074  -23.7157  -53.7291 C.2       17 UNK         0.5000 
     98 O          -5.8718  -22.9705  -54.6736 O.2       17 UNK        -0.5000 
     99 N          -4.4134  -24.3125  -53.5776 N.am      18 UNK        -0.5000 
    100 CA        -3.2962  -24.1805  -54.5218 C.3       18 UNK         0.1400 
    101 CB        -2.2215  -25.2330  -54.2097 C.3       18 UNK        -0.1800 
    102 C         -2.6803  -22.7668  -54.5696 C.2       18 UNK         0.5000 
    103 O         -1.9673  -22.4550  -55.5237 O.2       18 UNK        -0.5000 
    104 N         -2.9885  -21.9250  -53.5713 N.am      19 UNK        -0.5000 
    105 CA        -2.6621  -20.4977  -53.5577 C.3       19 UNK         0.1400 
    106 CB        -2.8166  -19.9668  -52.1251 C.3       19 UNK        -0.1800 
    107 C         -3.5258  -19.6691  -54.5339 C.2       19 UNK         0.5000 
    108 O         -3.1924  -18.5109  -54.7877 O.2       19 UNK        -0.5000 
    109 N         -4.6265  -20.2539  -55.0410 N.am      20 UNK        -0.5000 
    110 CA        -5.5652  -19.6967  -56.0252 C.3       20 UNK         0.1400 
    111 CB        -4.8868  -19.5965  -57.4067 C.3       20 UNK        -0.1800 
    112 C         -6.2057  -18.3644  -55.5806 C.2       20 UNK         0.5000 
    113 O         -6.4677  -17.4927  -56.4128 O.2       20 UNK        -0.5000 
    114 N         -6.3893  -18.2125  -54.2590 N.am      21 UNK        -0.5000 
    115 CA        -6.8478  -17.0072  -53.5563 C.3       21 UNK         0.1400 
    116 CB        -8.3429  -16.7573  -53.8425 C.3       21 UNK        -0.1800 
    117 C         -5.9748  -15.7595  -53.8292 C.2       21 UNK         0.5000 
    118 O         -6.4663  -14.6355  -53.7154 O.2       21 UNK        -0.5000 
    119 N         -4.7013  -15.9801  -54.1905 N.am      22 UNK        -0.5000 
    120 CA        -3.7345  -14.9677  -54.6475 C.3       22 UNK         0.1400 
    121 C         -4.1117  -14.2917  -56.0039 C.2       22 UNK         0.5000 
    122 N         -4.9949  -14.8684  -56.8128 N.am      22 UNK        -0.7600 
    123 O         -3.5749  -13.2430  -56.3515 O.2       22 UNK        -0.5000 
    124 C124       -3.3420  -13.9467  -53.5406 C.3       23 UNK        -0.0398 
    125 S125       -2.5387  -14.7490  -52.1118 S.3       23 UNK        -0.2404 
    126 C126       -3.8884  -14.7542  -50.8953 C.3       23 UNK        -0.0205 
    127 H127        0.4598   -9.4305  -50.6605 H         1 UNK         0.0600 
    128 H128        1.9543  -10.2071  -51.1943 H         1 UNK         0.0600 
    129 H129        1.7529   -9.7490  -49.5009 H         1 UNK         0.0600 
    130 H130        1.3478  -11.5132  -48.2136 H         1 UNK         0.3000 
    131 H131       -0.6941  -13.4477  -48.7812 H         1 UNK         0.0600 
    132 H132        1.4009  -13.2960  -46.5581 H         1 UNK         0.0800 
    133 H133       -0.2147  -12.6690  -46.4686 H         1 UNK         0.0800 
    134 H134       -2.3736  -15.3160  -45.2914 H         1 UNK         0.0800 
    135 H135       -2.2627  -13.8219  -46.1839 H         1 UNK         0.0800 
    136 H136       -2.9141  -13.7839  -48.5472 H         1 UNK         0.1150 
    137 H137       -3.9745  -17.4431  -50.5079 H         1 UNK         0.1150 
    138 H138       -2.4065  -17.5101  -46.5186 H         1 UNK         0.1150 
    139 H139       -4.0302  -19.4750  -47.6929 H         1 UNK         0.0800 
    140 H140       -3.7912  -19.5265  -49.4126 H         1 UNK         0.0800 
    141 H141       -0.8954  -19.2624  -46.1711 H         1 UNK         0.0800 
    142 H142       -2.5280  -19.8373  -45.9990 H         1 UNK         0.0800 
    143 H143       -0.2091  -21.7179  -46.5974 H         1 UNK         0.0600 
    144 H144       -0.4918  -20.4059  -44.1778 H         1 UNK         0.3000 
    145 H145        0.6798  -22.9714  -41.9646 H         1 UNK         0.0600 
    146 H146        2.6512  -21.9572  -43.0772 H         1 UNK         0.0600 
    147 H147        1.8643  -20.3831  -43.0859 H         1 UNK         0.0600 
    148 H148        2.3001  -21.1469  -41.5562 H         1 UNK         0.0600 
    149 H149       -0.2485  -20.1875  -41.8248 H         1 UNK         0.3000 
    150 H150       -3.4644  -21.0812  -40.5518 H         1 UNK         0.0600 
    151 H151       -1.9861  -21.1036  -38.5304 H         1 UNK         0.0600 
    152 H152       -2.7877  -19.5524  -38.7199 H         1 UNK         0.0600 
    153 H153       -1.0883  -19.7275  -39.1606 H         1 UNK         0.0600 
    154 H154       -2.2648  -18.5501  -41.0020 H         1 UNK         0.3000 
    155 H155       -2.8621  -18.2164  -44.4568 H         1 UNK         0.0600 
    156 H156       -4.3251  -16.3461  -43.8030 H         1 UNK         0.0600 
    157 H157       -4.4707  -16.9871  -42.1654 H         1 UNK         0.0600 
    158 H158       -5.1533  -17.8688  -43.5268 H         1 UNK         0.0600 
    159 H159       -2.1259  -16.2472  -42.6294 H         1 UNK         0.3000 
    160 H160        0.3389  -15.5700  -43.4064 H         1 UNK         0.0600 
    161 H161       -0.0846  -16.4321  -40.4993 H         1 UNK         0.0600 
    162 H162       -0.9614  -15.1809  -41.3716 H         1 UNK         0.0600 
    163 H163        0.7294  -14.9481  -40.9858 H         1 UNK         0.0600 
    164 H164        2.4138  -16.1980  -43.2268 H         1 UNK         0.3000 
    165 H165        4.2953  -17.7331  -40.7872 H         1 UNK         0.0600 
    166 H166        4.0143  -19.0427  -43.5315 H         1 UNK         0.0600 
    167 H167        5.5405  -18.9181  -42.6597 H         1 UNK         0.0600 
    168 H168        4.2144  -19.8301  -41.9706 H         1 UNK         0.0600 
    169 H169        4.8473  -16.5885  -43.4060 H         1 UNK         0.3000 
    170 H170        4.6425  -13.2526  -42.4352 H         1 UNK         0.0600 
    171 H171        6.7357  -13.6507  -41.1263 H         1 UNK         0.0600 
    172 H172        7.3560  -14.6804  -42.4109 H         1 UNK         0.0600 
    173 H173        7.0922  -12.9598  -42.7001 H         1 UNK         0.0600 
    174 H174        6.1506  -14.3942  -44.5466 H         1 UNK         0.3000 
    175 H175        3.9449  -13.7390  -46.8663 H         1 UNK         0.0600 
    176 H176        6.3667  -15.5599  -46.3681 H         1 UNK         0.0600 
    177 H177        5.9422  -14.8040  -47.8976 H         1 UNK         0.0600 
    178 H178        6.4037  -13.8031  -46.5371 H         1 UNK         0.0600 
    179 H179        3.0142  -15.5634  -47.6820 H         1 UNK         0.3000 
    180 H180        3.4436  -18.8045  -47.6468 H         1 UNK         0.0600 
    181 H181        1.2480  -18.1590  -45.6239 H         1 UNK         0.0600 
    182 H182        2.5612  -19.3012  -45.3648 H         1 UNK         0.0600 
    183 H183        1.3692  -19.6255  -46.6042 H         1 UNK         0.0600 
    184 H184        1.0831  -16.9829  -47.7791 H         1 UNK         0.3000 
    185 H185        1.6372  -16.2606  -51.1809 H         1 UNK         0.0600 
    186 H186       -0.6519  -17.0525  -51.5731 H         1 UNK         0.0600 
    187 H187        0.3840  -18.4502  -51.3412 H         1 UNK         0.0600 
    188 H188       -0.6696  -17.9149  -50.0390 H         1 UNK         0.0600 
    189 H189       -0.5181  -15.5389  -49.5187 H         1 UNK         0.3000 
    190 H190       -2.9746  -21.9512  -44.3453 H         1 UNK         0.3000 
    191 H191       -4.6943  -23.5361  -45.8889 H         1 UNK         0.0600 
    192 H192       -5.7186  -24.0847  -43.6596 H         1 UNK         0.0600 
    193 H193       -5.3719  -22.3703  -43.8187 H         1 UNK         0.0600 
    194 H194       -4.3140  -23.3957  -42.8506 H         1 UNK         0.0600 
    195 H195       -1.7324  -24.5237  -44.3055 H         1 UNK         0.3000 
    196 H196       -2.3649  -27.4234  -44.6587 H         1 UNK         0.0600 
    197 H197       -0.3149  -27.7661  -43.3031 H         1 UNK         0.0600 
    198 H198       -1.4756  -26.7719  -42.4357 H         1 UNK         0.0600 
    199 H199       -0.0670  -26.0278  -43.1880 H         1 UNK         0.0600 
    200 H200       -0.0323  -24.8394  -45.5318 H         1 UNK         0.3000 
    201 H201        1.6906  -26.5107  -47.0340 H         1 UNK         0.0600 
    202 H202        2.4043  -24.4125  -45.9203 H         1 UNK         0.0600 
    203 H203        1.3987  -23.4624  -47.0122 H         1 UNK         0.0600 
    204 H204        2.7813  -24.3535  -47.6353 H         1 UNK         0.0600 
    205 H205       -1.1249  -24.5808  -48.0793 H         1 UNK         0.3000 
    206 H206       -0.7603  -25.5660  -50.8695 H         1 UNK         0.0600 
    207 H207        0.3648  -23.3619  -50.8097 H         1 UNK         0.0600 
    208 H208       -1.1354  -23.2304  -51.7119 H         1 UNK         0.0600 
    209 H209       -1.0494  -22.6205  -50.0651 H         1 UNK         0.0600 
    210 H210       -2.8718  -23.7795  -48.5904 H         1 UNK         0.3000 
    211 H211       -5.0445  -23.4124  -48.4653 H         1 UNK         0.0600 
    212 H212       -5.3201  -26.2698  -49.5683 H         1 UNK         0.0600 
    213 H213       -6.5881  -25.3574  -48.7488 H         1 UNK         0.0600 
    214 H214       -5.1352  -25.8165  -47.8837 H         1 UNK         0.0600 
    215 H215       -6.3129  -25.2629  -51.0249 H         1 UNK         0.3000 
    216 H216       -7.2289  -23.0158  -52.5249 H         1 UNK         0.0600 
    217 H217       -8.1163  -24.7804  -54.0570 H         1 UNK         0.0600 
    218 H218       -8.4803  -25.1525  -52.3800 H         1 UNK         0.0600 
    219 H219       -7.1771  -26.0040  -53.2103 H         1 UNK         0.0600 
    220 H220       -4.2435  -24.8805  -52.7534 H         1 UNK         0.3000 
    221 H221       -3.6862  -24.3917  -55.5197 H         1 UNK         0.0600 
    222 H222       -1.7174  -25.0299  -53.2661 H         1 UNK         0.0600 
    223 H223       -2.6489  -26.2343  -54.1554 H         1 UNK         0.0600 
    224 H224       -1.4566  -25.2480  -54.9870 H         1 UNK         0.0600 
    225 H225       -3.5805  -22.2586  -52.8219 H         1 UNK         0.3000 
    226 H226       -1.6189  -20.3760  -53.8565 H         1 UNK         0.0600 
    227 H227       -2.1847  -20.5173  -51.4278 H         1 UNK         0.0600 
    228 H228       -2.5290  -18.9165  -52.0620 H         1 UNK         0.0600 
    229 H229       -3.8475  -20.0465  -51.7794 H         1 UNK         0.0600 
    230 H230       -4.8329  -21.2064  -54.7591 H         1 UNK         0.3000 
    231 H231       -6.3832  -20.4137  -56.1085 H         1 UNK         0.0600 
    232 H232       -5.6047  -19.3148  -58.1779 H         1 UNK         0.0600 
    233 H233       -4.4537  -20.5521  -57.7024 H         1 UNK         0.0600 
    234 H234       -4.0904  -18.8515  -57.4122 H         1 UNK         0.0600 
    235 H235       -6.1225  -18.9862  -53.6670 H         1 UNK         0.3000 
    236 H236       -6.7449  -17.2170  -52.4907 H         1 UNK         0.0600 
    237 H237       -8.9383  -17.6460  -53.6335 H         1 UNK         0.0600 
    238 H238       -8.7340  -15.9535  -53.2177 H         1 UNK         0.0600 
    239 H239       -8.5135  -16.4759  -54.8821 H         1 UNK         0.0600 
    240 H240       -4.3772  -16.9374  -54.2779 H         1 UNK         0.3000 
    241 H241       -2.8330  -15.5332  -54.8857 H         1 UNK         0.0600 
    242 H242       -5.4483  -15.7407  -56.5617 H         1 UNK         0.3800 
    243 H243       -5.2208  -14.4273  -57.6900 H         1 UNK         0.3800 
    244 H244       -2.6255  -13.2212  -53.9286 H         1 UNK         0.0800 
    245 H245       -4.2050  -13.3659  -53.2139 H         1 UNK         0.0800 
    246 H246       -4.1488  -13.7266  -50.6372 H         1 UNK         0.0800 
    247 H247       -4.7825  -15.2009  -51.3272 H         1 UNK         0.0800 
@<TRIPOS>BOND
     1    1    2 1    
     2    1  127 1    
     3    1  128 1    
     4    1  129 1    
     5    2    3 2    
     6    2    4 am   BACKBONE|DICT|INTERRES
     7    4    5 1    
     8    4  130 1    
     9    5    6 1    
    10    5   65 1    
    11    5  131 1    
    12    6    7 1    
    13    6  132 1    
    14    6  133 1    
    15    7    8 1    
    16    8    9 1    
    17    8  134 1    
    18    8  135 1    
    19    9   10 ar   
    20    9   14 ar   
    21   10   11 ar   
    22   10  136 1    
    23   11   12 ar   
    24   11  126 1    
    25   12   13 ar   
    26   12  137 1    
    27   13   14 ar   
    28   13   15 1    
    29   14  138 1    
    30   15   16 1    
    31   15  139 1    
    32   15  140 1    
    33   16   17 1    
    34   17   18 1    
    35   17  141 1    
    36   17  142 1    
    37   18   19 1    
    38   18   67 1    
    39   18  143 1    
    40   19   20 am   BACKBONE|DICT|INTERRES
    41   19  144 1    
    42   20   21 2    
    43   20   22 1    
    44   22   23 1    
    45   22   24 1    
    46   22  145 1    
    47   23  146 1    
    48   23  147 1    
    49   23  148 1    
    50   24   25 am   BACKBONE|DICT|INTERRES
    51   24  149 1    
    52   25   26 2    
    53   25   27 1    
    54   27   28 1    
    55   27   29 1    
    56   27  150 1    
    57   28  151 1    
    58   28  152 1    
    59   28  153 1    
    60   29   30 am   BACKBONE|DICT|INTERRES
    61   29  154 1    
    62   30   31 2    
    63   30   32 1    
    64   32   33 1    
    65   32   34 1    
    66   32  155 1    
    67   33  156 1    
    68   33  157 1    
    69   33  158 1    
    70   34   35 am   BACKBONE|DICT|INTERRES
    71   34  159 1    
    72   35   36 2    
    73   35   37 1    
    74   37   38 1    
    75   37   39 1    
    76   37  160 1    
    77   38  161 1    
    78   38  162 1    
    79   38  163 1    
    80   39   40 am   BACKBONE|DICT|INTERRES
    81   39  164 1    
    82   40   41 2    
    83   40   42 1    
    84   42   43 1    
    85   42   44 1    
    86   42  165 1    
    87   43  166 1    
    88   43  167 1    
    89   43  168 1    
    90   44   45 am   BACKBONE|DICT|INTERRES
    91   44  169 1    
    92   45   46 2    
    93   45   47 1    
    94   47   48 1    
    95   47   49 1    
    96   47  170 1    
    97   48  171 1    
    98   48  172 1    
    99   48  173 1    
   100   49   50 am   BACKBONE|DICT|INTERRES
   101   49  174 1    
   102   50   51 2    
   103   50   52 1    
   104   52   53 1    
   105   52   54 1    
   106   52  175 1    
   107   53  176 1    
   108   53  177 1    
   109   53  178 1    
   110   54   55 am   BACKBONE|DICT|INTERRES
   111   54  179 1    
   112   55   56 2    
   113   55   57 1    
   114   57   58 1    
   115   57   59 1    
   116   57  180 1    
   117   58  181 1    
   118   58  182 1    
   119   58  183 1    
   120   59   60 am   BACKBONE|DICT|INTERRES
   121   59  184 1    
   122   60   61 2    
   123   60   62 1    
   124   62   63 1    
   125   62   64 1    
   126   62  185 1    
   127   63  186 1    
   128   63  187 1    
   129   63  188 1    
   130   64   65 am   BACKBONE|DICT|INTERRES
   131   64  189 1    
   132   65   66 2    
   133   67   68 2    
   134   67   69 am   BACKBONE|DICT|INTERRES
   135   69   70 1    
   136   69  190 1    
   137   70   71 1    
   138   70   72 1    
   139   70  191 1    
   140   71  192 1    
   141   71  193 1    
   142   71  194 1    
   143   72   73 2    
   144   72   74 am   BACKBONE|DICT|INTERRES
   145   74   75 1    
   146   74  195 1    
   147   75   76 1    
   148   75   77 1    
   149   75  196 1    
   150   76  197 1    
   151   76  198 1    
   152   76  199 1    
   153   77   78 2    
   154   77   79 am   BACKBONE|DICT|INTERRES
   155   79   80 1    
   156   79  200 1    
   157   80   81 1    
   158   80   82 1    
   159   80  201 1    
   160   81  202 1    
   161   81  203 1    
   162   81  204 1    
   163   82   83 2    
   164   82   84 am   BACKBONE|DICT|INTERRES
   165   84   85 1    
   166   84  205 1    
   167   85   86 1    
   168   85   87 1    
   169   85  206 1    
   170   86  207 1    
   171   86  208 1    
   172   86  209 1    
   173   87   88 2    
   174   87   89 am   BACKBONE|DICT|INTERRES
   175   89   90 1    
   176   89  210 1    
   177   90   91 1    
   178   90   92 1    
   179   90  211 1    
   180   91  212 1    
   181   91  213 1    
   182   91  214 1    
   183   92   93 2    
   184   92   94 am   BACKBONE|DICT|INTERRES
   185   94   95 1    
   186   94  215 1    
   187   95   96 1    
   188   95   97 1    
   189   95  216 1    
   190   96  217 1    
   191   96  218 1    
   192   96  219 1    
   193   97   98 2    
   194   97   99 am   BACKBONE|DICT|INTERRES
   195   99  100 1    
   196   99  220 1    
   197  100  101 1    
   198  100  102 1    
   199  100  221 1    
   200  101  222 1    
   201  101  223 1    
   202  101  224 1    
   203  102  103 2    
   204  102  104 am   BACKBONE|DICT|INTERRES
   205  104  105 1    
   206  104  225 1    
   207  105  106 1    
   208  105  107 1    
   209  105  226 1    
   210  106  227 1    
   211  106  228 1    
   212  106  229 1    
   213  107  108 2    
   214  107  109 am   BACKBONE|DICT|INTERRES
   215  109  110 1    
   216  109  230 1    
   217  110  111 1    
   218  110  112 1    
   219  110  231 1    
   220  111  232 1    
   221  111  233 1    
   222  111  234 1    
   223  112  113 2    
   224  112  114 am   BACKBONE|DICT|INTERRES
   225  114  115 1    
   226  114  235 1    
   227  115  116 1    
   228  115  117 1    
   229  115  236 1    
   230  116  237 1    
   231  116  238 1    
   232  116  239 1    
   233  117  118 2    
   234  117  119 am   BACKBONE|DICT|INTERRES
   235  119  120 1    
   236  119  240 1    
   237  120  121 1    
   238  120  124 1    
   239  120  241 1    
   240  121  122 am   BACKBONE|DICT|INTERRES
   241  121  123 2    
   242  122  242 1    
   243  122  243 1    
   244  124  125 1    
   245  124  244 1    
   246  124  245 1    
   247  125  126 1    
   248  126  246 1    
   249  126  247 1    
@<TRIPOS>SUBSTRUCTURE
     1 UNK         1 GROUP             0       ****    0 ROOT    
