@<TRIPOS>MOLECULE
3R540
247   249    1
SMALL
USER_CHARGES


@<TRIPOS>ATOM
      1 CA         -0.7089   -9.3993  -50.8880 C.3       0 UNK        -0.1800 
      2 C          -0.5886  -10.8978  -50.6507 C.2       0 UNK         0.5000 
      3 O           0.1815  -11.5691  -51.3391 O.2       0 UNK        -0.5000 
      4 N          -1.3440  -11.4273  -49.6805 N.am      1 UNK        -0.5000 
      5 CA         -1.3560  -12.8404  -49.2919 C.3       1 UNK         0.1400 
      6 C6         -2.6748  -13.2410  -48.5821 C.3       23 UNK        -0.0398 
      7 S7         -4.0738  -13.2793  -49.7494 S.3       23 UNK        -0.2404 
      8 C8         -3.9261  -14.9749  -50.3981 C.3       23 UNK        -0.0205 
      9 C9         -4.8325  -15.9561  -49.6705 C.ar      23 UNK        -0.0193 
     10 C10        -6.0644  -16.3019  -50.2298 C.ar      23 UNK        -0.1150 
     11 C11        -6.8878  -17.2448  -49.6123 C.ar      23 UNK        -0.0193 
     12 C12        -6.4786  -17.8266  -48.4089 C.ar      23 UNK        -0.1150 
     13 C13        -5.2553  -17.4827  -47.8217 C.ar      23 UNK        -0.0193 
     14 C14        -4.4356  -16.5445  -48.4651 C.ar      23 UNK        -0.1150 
     15 C15        -4.8799  -18.1350  -46.4889 C.3       23 UNK        -0.0205 
     16 S16        -3.0948  -18.1511  -46.0938 S.3       23 UNK        -0.2404 
     17 C17        -3.0262  -19.4061  -44.7635 C.3       23 UNK        -0.0398 
     18 CA         -1.9238  -20.4783  -44.9912 C.3       11 UNK         0.1400 
     19 N          -1.7062  -21.3063  -43.8016 N.am      11 UNK        -0.5000 
     20 C          -2.4610  -22.3344  -43.3835 C.2       10 UNK         0.5000 
     21 O          -3.5260  -22.6635  -43.9088 O.2       10 UNK        -0.5000 
     22 CA         -1.9198  -23.1571  -42.2023 C.3       10 UNK         0.1400 
     23 CB         -0.9006  -24.1936  -42.7011 C.3       10 UNK        -0.1800 
     24 N          -1.2839  -22.3329  -41.1759 N.am      10 UNK        -0.5000 
     25 C          -1.9406  -21.6990  -40.1948 C.2       9 UNK         0.5000 
     26 O          -3.1653  -21.7038  -40.0687 O.2       9 UNK        -0.5000 
     27 CA         -1.0730  -20.9201  -39.1970 C.3       9 UNK         0.1400 
     28 CB         -0.2964  -21.8810  -38.2746 C.3       9 UNK        -0.1800 
     29 N          -0.1732  -20.0458  -39.9410 N.am      9 UNK        -0.5000 
     30 C           0.5914  -19.0639  -39.4612 C.2       8 UNK         0.5000 
     31 O           0.7015  -18.8126  -38.2597 O.2       8 UNK        -0.5000 
     32 CA          1.3350  -18.2070  -40.5138 C.3       8 UNK         0.1400 
     33 CB          2.2329  -17.1347  -39.8702 C.3       8 UNK        -0.1800 
     34 N           2.1383  -18.9654  -41.4819 N.am      8 UNK        -0.5000 
     35 C           1.6877  -19.7836  -42.4426 C.2       7 UNK         0.5000 
     36 O           0.4987  -20.0661  -42.5993 O.2       7 UNK        -0.5000 
     37 CA          2.7461  -20.3497  -43.3983 C.3       7 UNK         0.1400 
     38 CB          2.1628  -21.3403  -44.4235 C.3       7 UNK        -0.1800 
     39 N           3.3562  -19.2310  -44.1050 N.am      7 UNK        -0.5000 
     40 C           4.6693  -19.0031  -44.2137 C.2       6 UNK         0.5000 
     41 O           5.5365  -19.7433  -43.7478 O.2       6 UNK        -0.5000 
     42 CA          5.0874  -17.7209  -44.9556 C.3       6 UNK         0.1400 
     43 CB          5.1243  -17.9654  -46.4720 C.3       6 UNK        -0.1800 
     44 N           4.2171  -16.5777  -44.6760 N.am      6 UNK        -0.5000 
     45 C           4.1075  -15.9619  -43.4896 C.2       5 UNK         0.5000 
     46 O           4.7209  -16.3086  -42.4801 O.2       5 UNK        -0.5000 
     47 CA          3.1450  -14.7647  -43.4169 C.3       5 UNK         0.1400 
     48 CB          3.7906  -13.5070  -44.0200 C.3       5 UNK        -0.1800 
     49 N           1.9033  -15.0623  -44.1281 N.am      5 UNK        -0.5000 
     50 C           0.7590  -15.4387  -43.5413 C.2       4 UNK         0.5000 
     51 O           0.5904  -15.4455  -42.3228 O.2       4 UNK        -0.5000 
     52 CA         -0.4016  -15.8845  -44.4535 C.3       4 UNK         0.1400 
     53 CB         -1.5388  -14.8514  -44.4395 C.3       4 UNK        -0.1800 
     54 N           0.0069  -16.1236  -45.8375 N.am      4 UNK        -0.5000 
     55 C           0.6843  -17.2043  -46.2497 C.2       3 UNK         0.5000 
     56 O           1.0582  -18.1035  -45.4986 O.2       3 UNK        -0.5000 
     57 CA          1.0496  -17.2680  -47.7450 C.3       3 UNK         0.1400 
     58 CB         -0.1140  -17.8827  -48.5351 C.3       3 UNK        -0.1800 
     59 N           1.3807  -15.9676  -48.3315 N.am      3 UNK        -0.5000 
     60 C           2.2931  -15.0995  -47.8699 C.2       2 UNK         0.5000 
     61 O           3.0374  -15.3353  -46.9191 O.2       2 UNK        -0.5000 
     62 CA          2.3273  -13.7074  -48.5314 C.3       2 UNK         0.1400 
     63 CB          3.4111  -13.6564  -49.6174 C.3       2 UNK        -0.1800 
     64 N           1.0428  -13.2981  -49.1112 N.am      2 UNK        -0.5000 
     65 C          -0.1154  -13.1871  -48.4456 C.2       1 UNK         0.5000 
     66 O          -0.2242  -13.3772  -47.2333 O.2       1 UNK        -0.5000 
     67 C          -2.1016  -21.3745  -46.2406 C.2       11 UNK         0.5000 
     68 O          -1.1894  -22.1362  -46.5690 O.2       11 UNK        -0.5000 
     69 N          -3.2794  -21.3179  -46.8743 N.am      12 UNK        -0.5000 
     70 CA         -3.6731  -22.0662  -48.0660 C.3       12 UNK         0.1400 
     71 CB         -5.1005  -21.6532  -48.4503 C.3       12 UNK        -0.1800 
     72 C          -3.5702  -23.5956  -47.9428 C.2       12 UNK         0.5000 
     73 O          -3.3537  -24.2560  -48.9581 O.2       12 UNK        -0.5000 
     74 N          -3.6768  -24.1331  -46.7191 N.am      13 UNK        -0.5000 
     75 CA         -3.5120  -25.5623  -46.4430 C.3       13 UNK         0.1400 
     76 CB         -4.0175  -25.8712  -45.0257 C.3       13 UNK        -0.1800 
     77 C          -2.0657  -26.0654  -46.6389 C.2       13 UNK         0.5000 
     78 O          -1.8761  -27.2661  -46.8371 O.2       13 UNK        -0.5000 
     79 N          -1.0840  -25.1535  -46.5952 N.am      14 UNK        -0.5000 
     80 CA          0.3260  -25.4334  -46.8632 C.3       14 UNK         0.1400 
     81 CB          1.1728  -24.9086  -45.6939 C.3       14 UNK        -0.1800 
     82 C           0.7804  -24.7895  -48.1835 C.2       14 UNK         0.5000 
     83 O           1.4891  -25.4317  -48.9590 O.2       14 UNK        -0.5000 
     84 N           0.3818  -23.5305  -48.4095 N.am      15 UNK        -0.5000 
     85 CA          0.8136  -22.7063  -49.5380 C.3       15 UNK         0.1400 
     86 CB          0.5271  -21.2381  -49.2010 C.3       15 UNK        -0.1800 
     87 C           0.1666  -23.0878  -50.8815 C.2       15 UNK         0.5000 
     88 O           0.7867  -22.8629  -51.9222 O.2       15 UNK        -0.5000 
     89 N          -1.0523  -23.6499  -50.8392 N.am      16 UNK        -0.5000 
     90 CA         -1.8472  -24.1380  -51.9703 C.3       16 UNK         0.1400 
     91 CB         -1.2635  -25.4728  -52.4828 C.3       16 UNK        -0.1800 
     92 C          -2.0325  -23.0748  -53.0742 C.2       16 UNK         0.5000 
     93 O          -2.8392  -22.1568  -52.9063 O.2       16 UNK        -0.5000 
     94 N          -1.2742  -23.2104  -54.1706 N.am      17 UNK        -0.5000 
     95 CA         -1.2490  -22.3000  -55.3136 C.3       17 UNK         0.1400 
     96 CB         -0.3331  -22.8815  -56.4005 C.3       17 UNK        -0.1800 
     97 C          -0.8096  -20.8702  -54.9503 C.2       17 UNK         0.5000 
     98 O          -1.3609  -19.9129  -55.4948 O.2       17 UNK        -0.5000 
     99 N           0.1509  -20.7493  -54.0215 N.am      18 UNK        -0.5000 
    100 CA         0.7293  -19.4735  -53.5913 C.3       18 UNK         0.1400 
    101 CB         2.0466  -19.7333  -52.8453 C.3       18 UNK        -0.1800 
    102 C         -0.2297  -18.6084  -52.7511 C.2       18 UNK         0.5000 
    103 O         -0.0331  -17.3959  -52.6715 O.2       18 UNK        -0.5000 
    104 N         -1.2770  -19.2203  -52.1834 N.am      19 UNK        -0.5000 
    105 CA        -2.3734  -18.5384  -51.4979 C.3       19 UNK         0.1400 
    106 CB        -2.8919  -19.4417  -50.3684 C.3       19 UNK        -0.1800 
    107 C         -3.4873  -18.1654  -52.4935 C.2       19 UNK         0.5000 
    108 O         -4.6440  -18.5060  -52.2635 O.2       19 UNK        -0.5000 
    109 N         -3.1211  -17.5201  -53.6118 N.am      20 UNK        -0.5000 
    110 CA        -4.0052  -17.0738  -54.7008 C.3       20 UNK         0.1400 
    111 CB        -4.8002  -15.8299  -54.2548 C.3       20 UNK        -0.1800 
    112 C         -4.9179  -18.1892  -55.2658 C.2       20 UNK         0.5000 
    113 O         -6.0673  -17.9285  -55.6254 O.2       20 UNK        -0.5000 
    114 N         -4.3824  -19.4175  -55.3069 N.am      21 UNK        -0.5000 
    115 CA        -5.0461  -20.6685  -55.6827 C.3       21 UNK         0.1400 
    116 CB        -5.4742  -20.6470  -57.1652 C.3       21 UNK        -0.1800 
    117 C         -6.1778  -21.1243  -54.7330 C.2       21 UNK         0.5000 
    118 O         -6.9818  -21.9702  -55.1305 O.2       21 UNK        -0.5000 
    119 N         -6.2158  -20.6121  -53.4937 N.am      22 UNK        -0.5000 
    120 CA        -7.1334  -21.0848  -52.4406 C.3       22 UNK         0.1400 
    121 C         -6.7729  -22.4874  -51.8698 C.2       22 UNK         0.5000 
    122 N         -5.5498  -22.9833  -52.0206 N.am      22 UNK        -0.7600 
    123 O         -7.6262  -23.1437  -51.2793 O.2       22 UNK        -0.5000 
    124 C124       -7.2963  -20.0637  -51.2849 C.3       23 UNK        -0.0398 
    125 S125       -8.0354  -18.4883  -51.8308 S.3       23 UNK        -0.2404 
    126 C126       -8.2250  -17.6174  -50.2401 C.3       23 UNK        -0.0205 
    127 H127       -1.4288   -8.9380  -50.2114 H         1 UNK         0.0600 
    128 H128       -1.0319   -9.2066  -51.9110 H         1 UNK         0.0600 
    129 H129        0.2570   -8.9173  -50.7375 H         1 UNK         0.0600 
    130 H130       -1.9483  -10.8229  -49.1422 H         1 UNK         0.3000 
    131 H131       -1.2806  -13.4436  -50.1995 H         1 UNK         0.0600 
    132 H132       -2.5895  -14.2204  -48.1114 H         1 UNK         0.0800 
    133 H133       -2.9064  -12.5442  -47.7749 H         1 UNK         0.0800 
    134 H134       -4.1800  -14.9566  -51.4582 H         1 UNK         0.0800 
    135 H135       -2.8918  -15.3168  -50.3492 H         1 UNK         0.0800 
    136 H136       -6.3772  -15.8552  -51.1628 H         1 UNK         0.1150 
    137 H137       -7.1195  -18.5491  -47.9233 H         1 UNK         0.1150 
    138 H138       -3.4849  -16.2726  -48.0342 H         1 UNK         0.1150 
    139 H139       -5.4067  -17.6141  -45.6884 H         1 UNK         0.0800 
    140 H140       -5.2520  -19.1596  -46.4868 H         1 UNK         0.0800 
    141 H141       -2.8158  -18.8712  -43.8364 H         1 UNK         0.0800 
    142 H142       -4.0007  -19.8728  -44.6129 H         1 UNK         0.0800 
    143 H143       -0.9843  -19.9459  -45.1468 H         1 UNK         0.0600 
    144 H144       -0.8548  -21.0839  -43.2925 H         1 UNK         0.3000 
    145 H145       -2.7603  -23.6965  -41.7597 H         1 UNK         0.0600 
    146 H146       -0.5893  -24.8583  -41.8951 H         1 UNK         0.0600 
    147 H147       -1.3191  -24.8174  -43.4907 H         1 UNK         0.0600 
    148 H148       -0.0074  -23.7164  -43.1039 H         1 UNK         0.0600 
    149 H149       -0.2763  -22.2807  -41.1991 H         1 UNK         0.3000 
    150 H150       -1.7333  -20.2994  -38.5880 H         1 UNK         0.0600 
    151 H151       -0.9719  -22.5882  -37.7915 H         1 UNK         0.0600 
    152 H152        0.2221  -21.3429  -37.4815 H         1 UNK         0.0600 
    153 H153        0.4463  -22.4589  -38.8255 H         1 UNK         0.0600 
    154 H154       -0.1925  -20.1461  -40.9544 H         1 UNK         0.3000 
    155 H155        0.5546  -17.6917  -41.0745 H         1 UNK         0.0600 
    156 H156        1.6631  -16.4989  -39.1914 H         1 UNK         0.0600 
    157 H157        2.6682  -16.4810  -40.6252 H         1 UNK         0.0600 
    158 H158        3.0488  -17.5814  -39.3009 H         1 UNK         0.0600 
    159 H159        3.1337  -18.7995  -41.4404 H         1 UNK         0.3000 
    160 H160        3.4811  -20.8778  -42.7878 H         1 UNK         0.0600 
    161 H161        1.4103  -20.8723  -45.0597 H         1 UNK         0.0600 
    162 H162        1.6920  -22.1842  -43.9201 H         1 UNK         0.0600 
    163 H163        2.9423  -21.7413  -45.0710 H         1 UNK         0.0600 
    164 H164        2.6981  -18.5814  -44.5274 H         1 UNK         0.3000 
    165 H165        6.0960  -17.4610  -44.6277 H         1 UNK         0.0600 
    166 H166        4.1372  -18.2147  -46.8621 H         1 UNK         0.0600 
    167 H167        5.4815  -17.0841  -47.0053 H         1 UNK         0.0600 
    168 H168        5.7940  -18.7899  -46.7194 H         1 UNK         0.0600 
    169 H169        3.7201  -16.1900  -45.4744 H         1 UNK         0.3000 
    170 H170        2.9417  -14.5614  -42.3634 H         1 UNK         0.0600 
    171 H171        3.1240  -12.6481  -43.9412 H         1 UNK         0.0600 
    172 H172        4.7119  -13.2530  -43.4944 H         1 UNK         0.0600 
    173 H173        4.0404  -13.6396  -45.0730 H         1 UNK         0.0600 
    174 H174        1.9620  -15.0941  -45.1381 H         1 UNK         0.3000 
    175 H175       -0.7919  -16.8201  -44.0464 H         1 UNK         0.0600 
    176 H176       -1.9311  -14.7177  -43.4307 H         1 UNK         0.0600 
    177 H177       -1.2013  -13.8760  -44.7906 H         1 UNK         0.0600 
    178 H178       -2.3691  -15.1682  -45.0710 H         1 UNK         0.0600 
    179 H179       -0.2030  -15.3851  -46.4984 H         1 UNK         0.3000 
    180 H180        1.9214  -17.9164  -47.8473 H         1 UNK         0.0600 
    181 H181       -0.9801  -17.2201  -48.5614 H         1 UNK         0.0600 
    182 H182       -0.4405  -18.8176  -48.0789 H         1 UNK         0.0600 
    183 H183        0.1761  -18.1002  -49.5630 H         1 UNK         0.0600 
    184 H184        0.8320  -15.6851  -49.1293 H         1 UNK         0.3000 
    185 H185        2.5837  -12.9850  -47.7538 H         1 UNK         0.0600 
    186 H186        3.5055  -12.6532  -50.0335 H         1 UNK         0.0600 
    187 H187        4.3853  -13.9317  -49.2108 H         1 UNK         0.0600 
    188 H188        3.1913  -14.3411  -50.4375 H         1 UNK         0.0600 
    189 H189        1.0444  -13.0474  -50.0939 H         1 UNK         0.3000 
    190 H190       -3.9694  -20.6772  -46.5154 H         1 UNK         0.3000 
    191 H191       -2.9962  -21.7786  -48.8699 H         1 UNK         0.0600 
    192 H192       -5.4396  -22.1997  -49.3285 H         1 UNK         0.0600 
    193 H193       -5.1576  -20.5914  -48.6875 H         1 UNK         0.0600 
    194 H194       -5.8090  -21.8575  -47.6467 H         1 UNK         0.0600 
    195 H195       -3.8208  -23.5253  -45.9206 H         1 UNK         0.3000 
    196 H196       -4.1400  -26.1128  -47.1467 H         1 UNK         0.0600 
    197 H197       -3.9466  -26.9379  -44.8093 H         1 UNK         0.0600 
    198 H198       -5.0631  -25.5856  -44.9097 H         1 UNK         0.0600 
    199 H199       -3.4423  -25.3448  -44.2658 H         1 UNK         0.0600 
    200 H200       -1.3307  -24.1810  -46.4519 H         1 UNK         0.3000 
    201 H201        0.5002  -26.5082  -46.9461 H         1 UNK         0.0600 
    202 H202        0.9342  -25.4359  -44.7705 H         1 UNK         0.0600 
    203 H203        1.0067  -23.8443  -45.5270 H         1 UNK         0.0600 
    204 H204        2.2375  -25.0514  -45.8832 H         1 UNK         0.0600 
    205 H205       -0.1804  -23.0563  -47.7055 H         1 UNK         0.3000 
    206 H206        1.8935  -22.8214  -49.6534 H         1 UNK         0.0600 
    207 H207        1.0784  -20.9226  -48.3147 H         1 UNK         0.0600 
    208 H208        0.8100  -20.5729  -50.0151 H         1 UNK         0.0600 
    209 H209       -0.5323  -21.0847  -49.0059 H         1 UNK         0.0600 
    210 H210       -1.4874  -23.7826  -49.9348 H         1 UNK         0.3000 
    211 H211       -2.8452  -24.3466  -51.5844 H         1 UNK         0.0600 
    212 H212       -0.2272  -25.3755  -52.8082 H         1 UNK         0.0600 
    213 H213       -1.8437  -25.8622  -53.3205 H         1 UNK         0.0600 
    214 H214       -1.2880  -26.2293  -51.6982 H         1 UNK         0.0600 
    215 H215       -0.6184  -23.9776  -54.1955 H         1 UNK         0.3000 
    216 H216       -2.2567  -22.2505  -55.7225 H         1 UNK         0.0600 
    217 H217        0.6928  -22.9922  -56.0466 H         1 UNK         0.0600 
    218 H218       -0.6827  -23.8604  -56.7292 H         1 UNK         0.0600 
    219 H219       -0.3097  -22.2347  -57.2787 H         1 UNK         0.0600 
    220 H220        0.5017  -21.5855  -53.5653 H         1 UNK         0.3000 
    221 H221        0.9669  -18.8961  -54.4873 H         1 UNK         0.0600 
    222 H222        2.7764  -20.2132  -53.4974 H         1 UNK         0.0600 
    223 H223        2.4907  -18.8012  -52.4931 H         1 UNK         0.0600 
    224 H224        1.9042  -20.3775  -51.9799 H         1 UNK         0.0600 
    225 H225       -1.4053  -20.2086  -52.3542 H         1 UNK         0.3000 
    226 H226       -2.0168  -17.6110  -51.0459 H         1 UNK         0.0600 
    227 H227       -3.2452  -20.3982  -50.7549 H         1 UNK         0.0600 
    228 H228       -2.1188  -19.6331  -49.6295 H         1 UNK         0.0600 
    229 H229       -3.7229  -18.9738  -49.8412 H         1 UNK         0.0600 
    230 H230       -2.1384  -17.3110  -53.7291 H         1 UNK         0.3000 
    231 H231       -3.3533  -16.7739  -55.5223 H         1 UNK         0.0600 
    232 H232       -5.3796  -15.4154  -55.0804 H         1 UNK         0.0600 
    233 H233       -4.1347  -15.0420  -53.9032 H         1 UNK         0.0600 
    234 H234       -5.4982  -16.0684  -53.4517 H         1 UNK         0.0600 
    235 H235       -3.4138  -19.5103  -55.0230 H         1 UNK         0.3000 
    236 H236       -4.2855  -21.4393  -55.5837 H         1 UNK         0.0600 
    237 H237       -4.6470  -20.3501  -57.8100 H         1 UNK         0.0600 
    238 H238       -5.7998  -21.6344  -57.4944 H         1 UNK         0.0600 
    239 H239       -6.3010  -19.9580  -57.3390 H         1 UNK         0.0600 
    240 H240       -5.5609  -19.8848  -53.2177 H         1 UNK         0.3000 
    241 H241       -8.1172  -21.2007  -52.8996 H         1 UNK         0.0600 
    242 H242       -4.8118  -22.4524  -52.4679 H         1 UNK         0.3800 
    243 H243       -5.3504  -23.8940  -51.6413 H         1 UNK         0.3800 
    244 H244       -7.9378  -20.4710  -50.5012 H         1 UNK         0.0800 
    245 H245       -6.3326  -19.8624  -50.8153 H         1 UNK         0.0800 
    246 H246       -8.8177  -18.2322  -49.5612 H         1 UNK         0.0800 
    247 H247       -8.8009  -16.7063  -50.4071 H         1 UNK         0.0800 
@<TRIPOS>BOND
     1    1    2 1    
     2    1  127 1    
     3    1  128 1    
     4    1  129 1    
     5    2    3 2    
     6    2    4 am   BACKBONE|DICT|INTERRES
     7    4    5 1    
     8    4  130 1    
     9    5    6 1    
    10    5   65 1    
    11    5  131 1    
    12    6    7 1    
    13    6  132 1    
    14    6  133 1    
    15    7    8 1    
    16    8    9 1    
    17    8  134 1    
    18    8  135 1    
    19    9   10 ar   
    20    9   14 ar   
    21   10   11 ar   
    22   10  136 1    
    23   11   12 ar   
    24   11  126 1    
    25   12   13 ar   
    26   12  137 1    
    27   13   14 ar   
    28   13   15 1    
    29   14  138 1    
    30   15   16 1    
    31   15  139 1    
    32   15  140 1    
    33   16   17 1    
    34   17   18 1    
    35   17  141 1    
    36   17  142 1    
    37   18   19 1    
    38   18   67 1    
    39   18  143 1    
    40   19   20 am   BACKBONE|DICT|INTERRES
    41   19  144 1    
    42   20   21 2    
    43   20   22 1    
    44   22   23 1    
    45   22   24 1    
    46   22  145 1    
    47   23  146 1    
    48   23  147 1    
    49   23  148 1    
    50   24   25 am   BACKBONE|DICT|INTERRES
    51   24  149 1    
    52   25   26 2    
    53   25   27 1    
    54   27   28 1    
    55   27   29 1    
    56   27  150 1    
    57   28  151 1    
    58   28  152 1    
    59   28  153 1    
    60   29   30 am   BACKBONE|DICT|INTERRES
    61   29  154 1    
    62   30   31 2    
    63   30   32 1    
    64   32   33 1    
    65   32   34 1    
    66   32  155 1    
    67   33  156 1    
    68   33  157 1    
    69   33  158 1    
    70   34   35 am   BACKBONE|DICT|INTERRES
    71   34  159 1    
    72   35   36 2    
    73   35   37 1    
    74   37   38 1    
    75   37   39 1    
    76   37  160 1    
    77   38  161 1    
    78   38  162 1    
    79   38  163 1    
    80   39   40 am   BACKBONE|DICT|INTERRES
    81   39  164 1    
    82   40   41 2    
    83   40   42 1    
    84   42   43 1    
    85   42   44 1    
    86   42  165 1    
    87   43  166 1    
    88   43  167 1    
    89   43  168 1    
    90   44   45 am   BACKBONE|DICT|INTERRES
    91   44  169 1    
    92   45   46 2    
    93   45   47 1    
    94   47   48 1    
    95   47   49 1    
    96   47  170 1    
    97   48  171 1    
    98   48  172 1    
    99   48  173 1    
   100   49   50 am   BACKBONE|DICT|INTERRES
   101   49  174 1    
   102   50   51 2    
   103   50   52 1    
   104   52   53 1    
   105   52   54 1    
   106   52  175 1    
   107   53  176 1    
   108   53  177 1    
   109   53  178 1    
   110   54   55 am   BACKBONE|DICT|INTERRES
   111   54  179 1    
   112   55   56 2    
   113   55   57 1    
   114   57   58 1    
   115   57   59 1    
   116   57  180 1    
   117   58  181 1    
   118   58  182 1    
   119   58  183 1    
   120   59   60 am   BACKBONE|DICT|INTERRES
   121   59  184 1    
   122   60   61 2    
   123   60   62 1    
   124   62   63 1    
   125   62   64 1    
   126   62  185 1    
   127   63  186 1    
   128   63  187 1    
   129   63  188 1    
   130   64   65 am   BACKBONE|DICT|INTERRES
   131   64  189 1    
   132   65   66 2    
   133   67   68 2    
   134   67   69 am   BACKBONE|DICT|INTERRES
   135   69   70 1    
   136   69  190 1    
   137   70   71 1    
   138   70   72 1    
   139   70  191 1    
   140   71  192 1    
   141   71  193 1    
   142   71  194 1    
   143   72   73 2    
   144   72   74 am   BACKBONE|DICT|INTERRES
   145   74   75 1    
   146   74  195 1    
   147   75   76 1    
   148   75   77 1    
   149   75  196 1    
   150   76  197 1    
   151   76  198 1    
   152   76  199 1    
   153   77   78 2    
   154   77   79 am   BACKBONE|DICT|INTERRES
   155   79   80 1    
   156   79  200 1    
   157   80   81 1    
   158   80   82 1    
   159   80  201 1    
   160   81  202 1    
   161   81  203 1    
   162   81  204 1    
   163   82   83 2    
   164   82   84 am   BACKBONE|DICT|INTERRES
   165   84   85 1    
   166   84  205 1    
   167   85   86 1    
   168   85   87 1    
   169   85  206 1    
   170   86  207 1    
   171   86  208 1    
   172   86  209 1    
   173   87   88 2    
   174   87   89 am   BACKBONE|DICT|INTERRES
   175   89   90 1    
   176   89  210 1    
   177   90   91 1    
   178   90   92 1    
   179   90  211 1    
   180   91  212 1    
   181   91  213 1    
   182   91  214 1    
   183   92   93 2    
   184   92   94 am   BACKBONE|DICT|INTERRES
   185   94   95 1    
   186   94  215 1    
   187   95   96 1    
   188   95   97 1    
   189   95  216 1    
   190   96  217 1    
   191   96  218 1    
   192   96  219 1    
   193   97   98 2    
   194   97   99 am   BACKBONE|DICT|INTERRES
   195   99  100 1    
   196   99  220 1    
   197  100  101 1    
   198  100  102 1    
   199  100  221 1    
   200  101  222 1    
   201  101  223 1    
   202  101  224 1    
   203  102  103 2    
   204  102  104 am   BACKBONE|DICT|INTERRES
   205  104  105 1    
   206  104  225 1    
   207  105  106 1    
   208  105  107 1    
   209  105  226 1    
   210  106  227 1    
   211  106  228 1    
   212  106  229 1    
   213  107  108 2    
   214  107  109 am   BACKBONE|DICT|INTERRES
   215  109  110 1    
   216  109  230 1    
   217  110  111 1    
   218  110  112 1    
   219  110  231 1    
   220  111  232 1    
   221  111  233 1    
   222  111  234 1    
   223  112  113 2    
   224  112  114 am   BACKBONE|DICT|INTERRES
   225  114  115 1    
   226  114  235 1    
   227  115  116 1    
   228  115  117 1    
   229  115  236 1    
   230  116  237 1    
   231  116  238 1    
   232  116  239 1    
   233  117  118 2    
   234  117  119 am   BACKBONE|DICT|INTERRES
   235  119  120 1    
   236  119  240 1    
   237  120  121 1    
   238  120  124 1    
   239  120  241 1    
   240  121  122 am   BACKBONE|DICT|INTERRES
   241  121  123 2    
   242  122  242 1    
   243  122  243 1    
   244  124  125 1    
   245  124  244 1    
   246  124  245 1    
   247  125  126 1    
   248  126  246 1    
   249  126  247 1    
@<TRIPOS>SUBSTRUCTURE
     1 UNK         1 GROUP             0       ****    0 ROOT    
