@<TRIPOS>MOLECULE
3R540
247   249    1
SMALL
USER_CHARGES


@<TRIPOS>ATOM
      1 CA         -1.1077  -16.7939  -42.0628 C.3       0 UNK        -0.1800 
      2 C          -1.6433  -15.3681  -42.0371 C.2       0 UNK         0.5000 
      3 O          -1.4772  -14.6684  -41.0378 O.2       0 UNK        -0.5000 
      4 N          -2.2959  -14.9421  -43.1251 N.am      1 UNK        -0.5000 
      5 CA         -2.8056  -13.5823  -43.3315 C.3       1 UNK         0.1400 
      6 C6         -3.8404  -13.5325  -44.4878 C.3       23 UNK        -0.0398 
      7 S7         -3.2047  -14.1581  -46.0851 S.3       23 UNK        -0.2404 
      8 C8         -4.2891  -15.5965  -46.3814 C.3       23 UNK        -0.0205 
      9 C9         -3.7880  -16.5386  -47.4759 C.ar      23 UNK        -0.0193 
     10 C10        -3.1523  -16.0587  -48.6280 C.ar      23 UNK        -0.1150 
     11 C11        -2.7178  -16.9410  -49.6197 C.ar      23 UNK        -0.0193 
     12 C12        -2.9254  -18.3108  -49.4584 C.ar      23 UNK        -0.1150 
     13 C13        -3.5766  -18.8135  -48.3262 C.ar      23 UNK        -0.0193 
     14 C14        -3.9982  -17.9159  -47.3404 C.ar      23 UNK        -0.1150 
     15 C15        -3.8874  -20.3005  -48.1425 C.3       23 UNK        -0.0205 
     16 S16        -3.0991  -21.4361  -49.3420 S.3       23 UNK        -0.2404 
     17 C17        -1.3752  -21.4407  -48.7326 C.3       23 UNK        -0.0398 
     18 CA         -0.8843  -22.7546  -48.0659 C.3       11 UNK         0.1400 
     19 N           0.3699  -22.5372  -47.3442 N.am      11 UNK        -0.5000 
     20 C           1.0959  -23.4704  -46.7139 C.2       10 UNK         0.5000 
     21 O           0.8283  -24.6706  -46.7193 O.2       10 UNK        -0.5000 
     22 CA          2.2873  -22.9646  -45.8814 C.3       10 UNK         0.1400 
     23 CB          3.4960  -22.6586  -46.7779 C.3       10 UNK        -0.1800 
     24 N           1.9457  -21.7841  -45.0849 N.am      10 UNK        -0.5000 
     25 C           1.0196  -21.7728  -44.1135 C.2       9 UNK         0.5000 
     26 O           0.3942  -22.7701  -43.7514 O.2       9 UNK        -0.5000 
     27 CA          0.7053  -20.4118  -43.4691 C.3       9 UNK         0.1400 
     28 CB          1.7711  -20.0416  -42.4275 C.3       9 UNK        -0.1800 
     29 N           0.5845  -19.3392  -44.4564 N.am      9 UNK        -0.5000 
     30 C          -0.3691  -19.2783  -45.3967 C.2       8 UNK         0.5000 
     31 O          -1.2762  -20.1035  -45.5019 O.2       8 UNK        -0.5000 
     32 CA         -0.2705  -18.1271  -46.4135 C.3       8 UNK         0.1400 
     33 CB         -0.7668  -16.8163  -45.7954 C.3       8 UNK        -0.1800 
     34 N           1.0840  -17.9382  -46.9264 N.am      8 UNK        -0.5000 
     35 C           1.7778  -18.8497  -47.6202 C.2       7 UNK         0.5000 
     36 O           1.3421  -19.9563  -47.9311 O.2       7 UNK        -0.5000 
     37 CA          3.2257  -18.4841  -47.9796 C.3       7 UNK         0.1400 
     38 CB          3.2743  -17.6103  -49.2430 C.3       7 UNK        -0.1800 
     39 N           3.8985  -17.8043  -46.8728 N.am      7 UNK        -0.5000 
     40 C           4.2567  -18.4007  -45.7266 C.2       6 UNK         0.5000 
     41 O           4.0934  -19.5998  -45.4975 O.2       6 UNK        -0.5000 
     42 CA          4.8618  -17.4927  -44.6394 C.3       6 UNK         0.1400 
     43 CB          6.3432  -17.2079  -44.9289 C.3       6 UNK        -0.1800 
     44 N           4.1406  -16.2261  -44.4971 N.am      6 UNK        -0.5000 
     45 C           2.8788  -16.1287  -44.0565 C.2       5 UNK         0.5000 
     46 O           2.2099  -17.0941  -43.6927 O.2       5 UNK        -0.5000 
     47 CA          2.2367  -14.7293  -44.0555 C.3       5 UNK         0.1400 
     48 CB          2.5278  -14.0064  -42.7321 C.3       5 UNK        -0.1800 
     49 N           2.6192  -13.8643  -45.1772 N.am      5 UNK        -0.5000 
     50 C           2.5296  -14.1774  -46.4780 C.2       4 UNK         0.5000 
     51 O           2.2054  -15.2892  -46.8951 O.2       4 UNK        -0.5000 
     52 CA          2.8404  -13.0326  -47.4605 C.3       4 UNK         0.1400 
     53 CB          3.0339  -13.5162  -48.9144 C.3       4 UNK        -0.1800 
     54 N           1.8267  -11.9742  -47.3710 N.am      4 UNK        -0.5000 
     55 C           0.5237  -12.0690  -47.6791 C.2       3 UNK         0.5000 
     56 O          -0.0102  -13.0686  -48.1597 O.2       3 UNK        -0.5000 
     57 CA         -0.3285  -10.8436  -47.3223 C.3       3 UNK         0.1400 
     58 CB         -1.6904  -10.8197  -48.0452 C.3       3 UNK        -0.1800 
     59 N          -0.5266  -10.8692  -45.8800 N.am      3 UNK        -0.5000 
     60 C          -0.8308   -9.8357  -45.0917 C.2       2 UNK         0.5000 
     61 O          -0.9691   -8.6840  -45.5082 O.2       2 UNK        -0.5000 
     62 CA         -1.0249  -10.1570  -43.5895 C.3       2 UNK         0.1400 
     63 CB         -1.5190   -8.9429  -42.7819 C.3       2 UNK        -0.1800 
     64 N          -1.9454  -11.2779  -43.3606 N.am      2 UNK        -0.5000 
     65 C          -1.6575  -12.5718  -43.5548 C.2       1 UNK         0.5000 
     66 O          -0.5544  -12.9595  -43.9467 O.2       1 UNK        -0.5000 
     67 C          -1.9457  -23.4051  -47.1566 C.2       11 UNK         0.5000 
     68 O          -2.4970  -24.4447  -47.5238 O.2       11 UNK        -0.5000 
     69 N          -2.2030  -22.7891  -45.9941 N.am      12 UNK        -0.5000 
     70 CA         -3.1912  -23.2342  -45.0113 C.3       12 UNK         0.1400 
     71 CB         -3.2922  -22.1970  -43.8835 C.3       12 UNK        -0.1800 
     72 C          -2.9000  -24.6350  -44.4458 C.2       12 UNK         0.5000 
     73 O          -3.8342  -25.4114  -44.2442 O.2       12 UNK        -0.5000 
     74 N          -1.6137  -24.9410  -44.2311 N.am      13 UNK        -0.5000 
     75 CA         -1.1394  -26.2629  -43.8282 C.3       13 UNK         0.1400 
     76 CB          0.3225  -26.1591  -43.3671 C.3       13 UNK        -0.1800 
     77 C          -1.2855  -27.3125  -44.9470 C.2       13 UNK         0.5000 
     78 O          -1.6433  -28.4553  -44.6586 O.2       13 UNK        -0.5000 
     79 N          -0.9961  -26.9139  -46.1931 N.am      14 UNK        -0.5000 
     80 CA         -1.0233  -27.7797  -47.3691 C.3       14 UNK         0.1400 
     81 CB         -0.2441  -27.1216  -48.5195 C.3       14 UNK        -0.1800 
     82 C          -2.4441  -28.1568  -47.8207 C.2       14 UNK         0.5000 
     83 O          -2.7263  -29.3472  -47.9701 O.2       14 UNK        -0.5000 
     84 N          -3.2989  -27.1532  -48.0652 N.am      15 UNK        -0.5000 
     85 CA         -4.6112  -27.3543  -48.6931 C.3       15 UNK         0.1400 
     86 CB         -4.4282  -27.6269  -50.2012 C.3       15 UNK        -0.1800 
     87 C          -5.6087  -26.1989  -48.4991 C.2       15 UNK         0.5000 
     88 O          -6.8025  -26.4209  -48.7059 O.2       15 UNK        -0.5000 
     89 N          -5.1298  -24.9951  -48.1494 N.am      16 UNK        -0.5000 
     90 CA         -5.8882  -23.7387  -48.0808 C.3       16 UNK         0.1400 
     91 CB         -6.9420  -23.7788  -46.9545 C.3       16 UNK        -0.1800 
     92 C          -6.4668  -23.3281  -49.4553 C.2       16 UNK         0.5000 
     93 O          -7.6278  -22.9286  -49.5543 O.2       16 UNK        -0.5000 
     94 N          -5.6323  -23.4499  -50.4981 N.am      17 UNK        -0.5000 
     95 CA         -5.9686  -23.1933  -51.9030 C.3       17 UNK         0.1400 
     96 CB         -4.9106  -23.8732  -52.7863 C.3       17 UNK        -0.1800 
     97 C          -6.1091  -21.7003  -52.2749 C.2       17 UNK         0.5000 
     98 O          -6.5530  -21.4005  -53.3844 O.2       17 UNK        -0.5000 
     99 N          -5.7312  -20.7982  -51.3589 N.am      18 UNK        -0.5000 
    100 CA        -5.7625  -19.3393  -51.4820 C.3       18 UNK         0.1400 
    101 CB        -7.2115  -18.8228  -51.6338 C.3       18 UNK        -0.1800 
    102 C         -4.7831  -18.8393  -52.5640 C.2       18 UNK         0.5000 
    103 O         -3.6337  -19.2842  -52.5887 O.2       18 UNK        -0.5000 
    104 N         -5.2331  -17.9249  -53.4351 N.am      19 UNK        -0.5000 
    105 CA        -4.4391  -17.2625  -54.4772 C.3       19 UNK         0.1400 
    106 CB        -5.3423  -16.2904  -55.2503 C.3       19 UNK        -0.1800 
    107 C         -3.7180  -18.2153  -55.4512 C.2       19 UNK         0.5000 
    108 O         -2.6698  -17.8503  -55.9842 O.2       19 UNK        -0.5000 
    109 N         -4.2583  -19.4284  -55.6306 N.am      20 UNK        -0.5000 
    110 CA        -3.6546  -20.5046  -56.4157 C.3       20 UNK         0.1400 
    111 CB        -4.6634  -21.6556  -56.5433 C.3       20 UNK        -0.1800 
    112 C         -2.3180  -21.0185  -55.8410 C.2       20 UNK         0.5000 
    113 O         -1.4932  -21.5153  -56.6092 O.2       20 UNK        -0.5000 
    114 N         -2.1180  -20.8901  -54.5207 N.am      21 UNK        -0.5000 
    115 CA        -0.8676  -21.2424  -53.8514 C.3       21 UNK         0.1400 
    116 CB        -1.1473  -21.6216  -52.3913 C.3       21 UNK        -0.1800 
    117 C          0.1539  -20.0960  -53.9223 C.2       21 UNK         0.5000 
    118 O          1.3221  -20.3504  -54.2193 O.2       21 UNK        -0.5000 
    119 N         -0.2942  -18.8642  -53.6399 N.am      22 UNK        -0.5000 
    120 CA         0.5679  -17.6682  -53.6330 C.3       22 UNK         0.1400 
    121 C          0.9707  -17.1669  -55.0490 C.2       22 UNK         0.5000 
    122 N          0.1587  -17.3643  -56.0801 N.am      22 UNK        -0.7600 
    123 O          2.0435  -16.5930  -55.2153 O.2       22 UNK        -0.5000 
    124 C124       -0.0189  -16.5031  -52.7968 C.3       23 UNK        -0.0398 
    125 S125       -0.3433  -16.9613  -51.0587 S.3       23 UNK        -0.2404 
    126 C126       -2.0743  -16.4248  -50.8962 C.3       23 UNK        -0.0205 
    127 H127       -0.0198  -16.7843  -42.1269 H         1 UNK         0.0600 
    128 H128       -1.4954  -17.3600  -42.9097 H         1 UNK         0.0600 
    129 H129       -1.3904  -17.3197  -41.1509 H         1 UNK         0.0600 
    130 H130       -2.3592  -15.5416  -43.9337 H         1 UNK         0.3000 
    131 H131       -3.3199  -13.2833  -42.4156 H         1 UNK         0.0600 
    132 H132       -4.2004  -12.5138  -44.6411 H         1 UNK         0.0800 
    133 H133       -4.7237  -14.1048  -44.2019 H         1 UNK         0.0800 
    134 H134       -4.3954  -16.1484  -45.4463 H         1 UNK         0.0800 
    135 H135       -5.2845  -15.2417  -46.6510 H         1 UNK         0.0800 
    136 H136       -2.9998  -14.9968  -48.7585 H         1 UNK         0.1150 
    137 H137       -2.5898  -18.9719  -50.2427 H         1 UNK         0.1150 
    138 H138       -4.5055  -18.2943  -46.4638 H         1 UNK         0.1150 
    139 H139       -3.6119  -20.6035  -47.1314 H         1 UNK         0.0800 
    140 H140       -4.9680  -20.4275  -48.2149 H         1 UNK         0.0800 
    141 H141       -1.2687  -20.6110  -48.0369 H         1 UNK         0.0800 
    142 H142       -0.7168  -21.1903  -49.5638 H         1 UNK         0.0800 
    143 H143       -0.6743  -23.4693  -48.8642 H         1 UNK         0.0600 
    144 H144        0.7059  -21.5766  -47.3282 H         1 UNK         0.3000 
    145 H145        2.5707  -23.7614  -45.1906 H         1 UNK         0.0600 
    146 H146        3.7757  -23.5325  -47.3674 H         1 UNK         0.0600 
    147 H147        3.2884  -21.8454  -47.4735 H         1 UNK         0.0600 
    148 H148        4.3647  -22.3753  -46.1835 H         1 UNK         0.0600 
    149 H149        2.4388  -20.9263  -45.3063 H         1 UNK         0.3000 
    150 H150       -0.2538  -20.5016  -42.9549 H         1 UNK         0.0600 
    151 H151        1.8836  -20.8316  -41.6839 H         1 UNK         0.0600 
    152 H152        1.4990  -19.1302  -41.8948 H         1 UNK         0.0600 
    153 H153        2.7461  -19.8803  -42.8890 H         1 UNK         0.0600 
    154 H154        1.2698  -18.5904  -44.3967 H         1 UNK         0.3000 
    155 H155       -0.9124  -18.3667  -47.2619 H         1 UNK         0.0600 
    156 H156       -0.1558  -16.5148  -44.9477 H         1 UNK         0.0600 
    157 H157       -0.7532  -16.0057  -46.5250 H         1 UNK         0.0600 
    158 H158       -1.7904  -16.9238  -45.4391 H         1 UNK         0.0600 
    159 H159        1.5116  -17.0289  -46.7673 H         1 UNK         0.3000 
    160 H160        3.7646  -19.4105  -48.1889 H         1 UNK         0.0600 
    161 H161        2.7315  -16.6740  -49.1117 H         1 UNK         0.0600 
    162 H162        2.8223  -18.1288  -50.0897 H         1 UNK         0.0600 
    163 H163        4.3008  -17.3687  -49.5186 H         1 UNK         0.0600 
    164 H164        3.9761  -16.7996  -46.9430 H         1 UNK         0.3000 
    165 H165        4.7980  -18.0268  -43.6888 H         1 UNK         0.0600 
    166 H166        6.7996  -16.6355  -44.1212 H         1 UNK         0.0600 
    167 H167        6.9067  -18.1369  -45.0260 H         1 UNK         0.0600 
    168 H168        6.4741  -16.6462  -45.8546 H         1 UNK         0.0600 
    169 H169        4.6205  -15.3854  -44.7826 H         1 UNK         0.3000 
    170 H170        1.1594  -14.8766  -44.1228 H         1 UNK         0.0600 
    171 H171        2.2218  -14.6152  -41.8800 H         1 UNK         0.0600 
    172 H172        3.5898  -13.7866  -42.6173 H         1 UNK         0.0600 
    173 H173        1.9790  -13.0665  -42.6678 H         1 UNK         0.0600 
    174 H174        2.8848  -12.9224  -44.9315 H         1 UNK         0.3000 
    175 H175        3.7845  -12.5890  -47.1407 H         1 UNK         0.0600 
    176 H176        2.1492  -14.0205  -49.3044 H         1 UNK         0.0600 
    177 H177        3.2652  -12.6841  -49.5791 H         1 UNK         0.0600 
    178 H178        3.8613  -14.2238  -48.9786 H         1 UNK         0.0600 
    179 H179        2.1447  -11.1094  -46.9561 H         1 UNK         0.3000 
    180 H180        0.2313   -9.9481  -47.6001 H         1 UNK         0.0600 
    181 H181       -2.3128  -11.6684  -47.7596 H         1 UNK         0.0600 
    182 H182       -1.5576  -10.8570  -49.1269 H         1 UNK         0.0600 
    183 H183       -2.2442   -9.9091  -47.8171 H         1 UNK         0.0600 
    184 H184       -0.4236  -11.7800  -45.4372 H         1 UNK         0.3000 
    185 H185       -0.0433  -10.4326  -43.1981 H         1 UNK         0.0600 
    186 H186       -0.8290   -8.1030  -42.8734 H         1 UNK         0.0600 
    187 H187       -2.4980   -8.6040  -43.1230 H         1 UNK         0.0600 
    188 H188       -1.5966   -9.1802  -41.7206 H         1 UNK         0.0600 
    189 H189       -2.8788  -11.0240  -43.0709 H         1 UNK         0.3000 
    190 H190       -1.7210  -21.9182  -45.7826 H         1 UNK         0.3000 
    191 H191       -4.1577  -23.2794  -45.5155 H         1 UNK         0.0600 
    192 H192       -2.3402  -22.0725  -43.3666 H         1 UNK         0.0600 
    193 H193       -4.0343  -22.4951  -43.1420 H         1 UNK         0.0600 
    194 H194       -3.5918  -21.2227  -44.2705 H         1 UNK         0.0600 
    195 H195       -0.9098  -24.2223  -44.3676 H         1 UNK         0.3000 
    196 H196       -1.7390  -26.5953  -42.9782 H         1 UNK         0.0600 
    197 H197        0.7001  -27.1292  -43.0416 H         1 UNK         0.0600 
    198 H198        0.4222  -25.4716  -42.5269 H         1 UNK         0.0600 
    199 H199        0.9732  -25.8037  -44.1669 H         1 UNK         0.0600 
    200 H200       -0.6617  -25.9668  -46.3394 H         1 UNK         0.3000 
    201 H201       -0.5050  -28.7063  -47.1131 H         1 UNK         0.0600 
    202 H202        0.8030  -26.9786  -48.2524 H         1 UNK         0.0600 
    203 H203       -0.6564  -26.1476  -48.7843 H         1 UNK         0.0600 
    204 H204       -0.2675  -27.7434  -49.4154 H         1 UNK         0.0600 
    205 H205       -2.9972  -26.2005  -47.8797 H         1 UNK         0.3000 
    206 H206       -5.0786  -28.2298  -48.2374 H         1 UNK         0.0600 
    207 H207       -5.3898  -27.7523  -50.7009 H         1 UNK         0.0600 
    208 H208       -3.9079  -26.8046  -50.6937 H         1 UNK         0.0600 
    209 H209       -3.8576  -28.5381  -50.3797 H         1 UNK         0.0600 
    210 H210       -4.1321  -24.8917  -47.9795 H         1 UNK         0.3000 
    211 H211       -5.1665  -22.9682  -47.8119 H         1 UNK         0.0600 
    212 H212       -7.7528  -24.4725  -47.1776 H         1 UNK         0.0600 
    213 H213       -7.3881  -22.7949  -46.8057 H         1 UNK         0.0600 
    214 H214       -6.4959  -24.0800  -46.0067 H         1 UNK         0.0600 
    215 H215       -4.6925  -23.7721  -50.3189 H         1 UNK         0.3000 
    216 H216       -6.9323  -23.6639  -52.1082 H         1 UNK         0.0600 
    217 H217       -3.9260  -23.4284  -52.6458 H         1 UNK         0.0600 
    218 H218       -5.1642  -23.7824  -53.8428 H         1 UNK         0.0600 
    219 H219       -4.8346  -24.9380  -52.5648 H         1 UNK         0.0600 
    220 H220       -5.2957  -21.1532  -50.5200 H         1 UNK         0.3000 
    221 H221       -5.3884  -18.9501  -50.5366 H         1 UNK         0.0600 
    222 H222       -7.6568  -19.1092  -52.5870 H         1 UNK         0.0600 
    223 H223       -7.8479  -19.2187  -50.8421 H         1 UNK         0.0600 
    224 H224       -7.2531  -17.7356  -51.5583 H         1 UNK         0.0600 
    225 H225       -6.1954  -17.6298  -53.3561 H         1 UNK         0.3000 
    226 H226       -3.6662  -16.6790  -53.9739 H         1 UNK         0.0600 
    227 H227       -5.7724  -15.5386  -54.5883 H         1 UNK         0.0600 
    228 H228       -4.7788  -15.7592  -56.0187 H         1 UNK         0.0600 
    229 H229       -6.1621  -16.8121  -55.7458 H         1 UNK         0.0600 
    230 H230       -5.1064  -19.6541  -55.1298 H         1 UNK         0.3000 
    231 H231       -3.4523  -20.1150  -57.4155 H         1 UNK         0.0600 
    232 H232       -4.2571  -22.4679  -57.1474 H         1 UNK         0.0600 
    233 H233       -5.5841  -21.3233  -57.0229 H         1 UNK         0.0600 
    234 H234       -4.9231  -22.0690  -55.5687 H         1 UNK         0.0600 
    235 H235       -2.8233  -20.4336  -53.9498 H         1 UNK         0.3000 
    236 H236       -0.4305  -22.1161  -54.3398 H         1 UNK         0.0600 
    237 H237       -1.8371  -22.4610  -52.3221 H         1 UNK         0.0600 
    238 H238       -0.2278  -21.9154  -51.8840 H         1 UNK         0.0600 
    239 H239       -1.5757  -20.7868  -51.8371 H         1 UNK         0.0600 
    240 H240       -1.2637  -18.7368  -53.3874 H         1 UNK         0.3000 
    241 H241        1.5017  -17.9549  -53.1441 H         1 UNK         0.0600 
    242 H242       -0.7729  -17.7513  -55.9551 H         1 UNK         0.3800 
    243 H243        0.4367  -17.0401  -56.9923 H         1 UNK         0.3800 
    244 H244        0.6746  -15.6603  -52.7828 H         1 UNK         0.0800 
    245 H245       -0.9328  -16.1322  -53.2637 H         1 UNK         0.0800 
    246 H246       -2.6503  -16.7930  -51.7447 H         1 UNK         0.0800 
    247 H247       -2.1147  -15.3353  -50.9393 H         1 UNK         0.0800 
@<TRIPOS>BOND
     1    1    2 1    
     2    1  127 1    
     3    1  128 1    
     4    1  129 1    
     5    2    3 2    
     6    2    4 am   BACKBONE|DICT|INTERRES
     7    4    5 1    
     8    4  130 1    
     9    5    6 1    
    10    5   65 1    
    11    5  131 1    
    12    6    7 1    
    13    6  132 1    
    14    6  133 1    
    15    7    8 1    
    16    8    9 1    
    17    8  134 1    
    18    8  135 1    
    19    9   10 ar   
    20    9   14 ar   
    21   10   11 ar   
    22   10  136 1    
    23   11   12 ar   
    24   11  126 1    
    25   12   13 ar   
    26   12  137 1    
    27   13   14 ar   
    28   13   15 1    
    29   14  138 1    
    30   15   16 1    
    31   15  139 1    
    32   15  140 1    
    33   16   17 1    
    34   17   18 1    
    35   17  141 1    
    36   17  142 1    
    37   18   19 1    
    38   18   67 1    
    39   18  143 1    
    40   19   20 am   BACKBONE|DICT|INTERRES
    41   19  144 1    
    42   20   21 2    
    43   20   22 1    
    44   22   23 1    
    45   22   24 1    
    46   22  145 1    
    47   23  146 1    
    48   23  147 1    
    49   23  148 1    
    50   24   25 am   BACKBONE|DICT|INTERRES
    51   24  149 1    
    52   25   26 2    
    53   25   27 1    
    54   27   28 1    
    55   27   29 1    
    56   27  150 1    
    57   28  151 1    
    58   28  152 1    
    59   28  153 1    
    60   29   30 am   BACKBONE|DICT|INTERRES
    61   29  154 1    
    62   30   31 2    
    63   30   32 1    
    64   32   33 1    
    65   32   34 1    
    66   32  155 1    
    67   33  156 1    
    68   33  157 1    
    69   33  158 1    
    70   34   35 am   BACKBONE|DICT|INTERRES
    71   34  159 1    
    72   35   36 2    
    73   35   37 1    
    74   37   38 1    
    75   37   39 1    
    76   37  160 1    
    77   38  161 1    
    78   38  162 1    
    79   38  163 1    
    80   39   40 am   BACKBONE|DICT|INTERRES
    81   39  164 1    
    82   40   41 2    
    83   40   42 1    
    84   42   43 1    
    85   42   44 1    
    86   42  165 1    
    87   43  166 1    
    88   43  167 1    
    89   43  168 1    
    90   44   45 am   BACKBONE|DICT|INTERRES
    91   44  169 1    
    92   45   46 2    
    93   45   47 1    
    94   47   48 1    
    95   47   49 1    
    96   47  170 1    
    97   48  171 1    
    98   48  172 1    
    99   48  173 1    
   100   49   50 am   BACKBONE|DICT|INTERRES
   101   49  174 1    
   102   50   51 2    
   103   50   52 1    
   104   52   53 1    
   105   52   54 1    
   106   52  175 1    
   107   53  176 1    
   108   53  177 1    
   109   53  178 1    
   110   54   55 am   BACKBONE|DICT|INTERRES
   111   54  179 1    
   112   55   56 2    
   113   55   57 1    
   114   57   58 1    
   115   57   59 1    
   116   57  180 1    
   117   58  181 1    
   118   58  182 1    
   119   58  183 1    
   120   59   60 am   BACKBONE|DICT|INTERRES
   121   59  184 1    
   122   60   61 2    
   123   60   62 1    
   124   62   63 1    
   125   62   64 1    
   126   62  185 1    
   127   63  186 1    
   128   63  187 1    
   129   63  188 1    
   130   64   65 am   BACKBONE|DICT|INTERRES
   131   64  189 1    
   132   65   66 2    
   133   67   68 2    
   134   67   69 am   BACKBONE|DICT|INTERRES
   135   69   70 1    
   136   69  190 1    
   137   70   71 1    
   138   70   72 1    
   139   70  191 1    
   140   71  192 1    
   141   71  193 1    
   142   71  194 1    
   143   72   73 2    
   144   72   74 am   BACKBONE|DICT|INTERRES
   145   74   75 1    
   146   74  195 1    
   147   75   76 1    
   148   75   77 1    
   149   75  196 1    
   150   76  197 1    
   151   76  198 1    
   152   76  199 1    
   153   77   78 2    
   154   77   79 am   BACKBONE|DICT|INTERRES
   155   79   80 1    
   156   79  200 1    
   157   80   81 1    
   158   80   82 1    
   159   80  201 1    
   160   81  202 1    
   161   81  203 1    
   162   81  204 1    
   163   82   83 2    
   164   82   84 am   BACKBONE|DICT|INTERRES
   165   84   85 1    
   166   84  205 1    
   167   85   86 1    
   168   85   87 1    
   169   85  206 1    
   170   86  207 1    
   171   86  208 1    
   172   86  209 1    
   173   87   88 2    
   174   87   89 am   BACKBONE|DICT|INTERRES
   175   89   90 1    
   176   89  210 1    
   177   90   91 1    
   178   90   92 1    
   179   90  211 1    
   180   91  212 1    
   181   91  213 1    
   182   91  214 1    
   183   92   93 2    
   184   92   94 am   BACKBONE|DICT|INTERRES
   185   94   95 1    
   186   94  215 1    
   187   95   96 1    
   188   95   97 1    
   189   95  216 1    
   190   96  217 1    
   191   96  218 1    
   192   96  219 1    
   193   97   98 2    
   194   97   99 am   BACKBONE|DICT|INTERRES
   195   99  100 1    
   196   99  220 1    
   197  100  101 1    
   198  100  102 1    
   199  100  221 1    
   200  101  222 1    
   201  101  223 1    
   202  101  224 1    
   203  102  103 2    
   204  102  104 am   BACKBONE|DICT|INTERRES
   205  104  105 1    
   206  104  225 1    
   207  105  106 1    
   208  105  107 1    
   209  105  226 1    
   210  106  227 1    
   211  106  228 1    
   212  106  229 1    
   213  107  108 2    
   214  107  109 am   BACKBONE|DICT|INTERRES
   215  109  110 1    
   216  109  230 1    
   217  110  111 1    
   218  110  112 1    
   219  110  231 1    
   220  111  232 1    
   221  111  233 1    
   222  111  234 1    
   223  112  113 2    
   224  112  114 am   BACKBONE|DICT|INTERRES
   225  114  115 1    
   226  114  235 1    
   227  115  116 1    
   228  115  117 1    
   229  115  236 1    
   230  116  237 1    
   231  116  238 1    
   232  116  239 1    
   233  117  118 2    
   234  117  119 am   BACKBONE|DICT|INTERRES
   235  119  120 1    
   236  119  240 1    
   237  120  121 1    
   238  120  124 1    
   239  120  241 1    
   240  121  122 am   BACKBONE|DICT|INTERRES
   241  121  123 2    
   242  122  242 1    
   243  122  243 1    
   244  124  125 1    
   245  124  244 1    
   246  124  245 1    
   247  125  126 1    
   248  126  246 1    
   249  126  247 1    
@<TRIPOS>SUBSTRUCTURE
     1 UNK         1 GROUP             0       ****    0 ROOT    
