@<TRIPOS>MOLECULE
3R540
247   249    1
SMALL
USER_CHARGES


@<TRIPOS>ATOM
      1 CA         -2.5145  -15.1039  -44.6297 C.3       0 UNK        -0.1800 
      2 C          -1.3773  -14.1228  -44.8759 C.2       0 UNK         0.5000 
      3 O          -1.6169  -12.9168  -44.9545 O.2       0 UNK        -0.5000 
      4 N          -0.1392  -14.6210  -44.9849 N.am      1 UNK        -0.5000 
      5 CA          1.0742  -13.8243  -45.2153 C.3       1 UNK         0.1400 
      6 C6          2.1700  -14.6215  -45.9670 C.3       23 UNK        -0.0398 
      7 S7          1.7425  -14.9286  -47.7132 S.3       23 UNK        -0.2404 
      8 C8          1.0188  -16.5856  -47.5875 C.3       23 UNK        -0.0205 
      9 C9          0.6553  -17.1538  -48.9486 C.ar      23 UNK        -0.0193 
     10 C10        -0.5300  -16.7643  -49.5764 C.ar      23 UNK        -0.1150 
     11 C11        -0.8998  -17.3198  -50.8042 C.ar      23 UNK        -0.0193 
     12 C12        -0.0740  -18.2739  -51.4049 C.ar      23 UNK        -0.1150 
     13 C13         1.1159  -18.6698  -50.7862 C.ar      23 UNK        -0.0193 
     14 C14         1.4787  -18.1011  -49.5618 C.ar      23 UNK        -0.1150 
     15 C15         2.0159  -19.7072  -51.4394 C.3       23 UNK        -0.0205 
     16 S16         2.0319  -21.2802  -50.5214 S.3       23 UNK        -0.2404 
     17 C17         0.3332  -21.8956  -50.7781 C.3       23 UNK        -0.0398 
     18 CA         -0.4176  -22.1297  -49.4464 C.3       11 UNK         0.1400 
     19 N          -0.5479  -20.9075  -48.6400 N.am      11 UNK        -0.5000 
     20 C          -0.9972  -20.8678  -47.3783 C.2       10 UNK         0.5000 
     21 O          -1.4240  -21.8530  -46.7692 O.2       10 UNK        -0.5000 
     22 CA         -1.0133  -19.4939  -46.7027 C.3       10 UNK         0.1400 
     23 CB         -2.2283  -18.6687  -47.1646 C.3       10 UNK        -0.1800 
     24 N          -1.0582  -19.6722  -45.2583 N.am      10 UNK        -0.5000 
     25 C          -0.6740  -18.7715  -44.3506 C.2       9 UNK         0.5000 
     26 O          -0.1978  -17.6656  -44.6259 O.2       9 UNK        -0.5000 
     27 CA         -0.8450  -19.1810  -42.8836 C.3       9 UNK         0.1400 
     28 CB          0.4980  -19.6226  -42.2844 C.3       9 UNK        -0.1800 
     29 N          -1.3507  -18.0318  -42.1430 N.am      9 UNK        -0.5000 
     30 C          -2.4386  -18.0150  -41.3674 C.2       8 UNK         0.5000 
     31 O          -3.1133  -19.0169  -41.1219 O.2       8 UNK        -0.5000 
     32 CA         -2.8282  -16.6485  -40.7588 C.3       8 UNK         0.1400 
     33 CB         -4.0534  -16.7361  -39.8306 C.3       8 UNK        -0.1800 
     34 N          -1.7244  -16.0353  -40.0173 N.am      8 UNK        -0.5000 
     35 C          -0.6843  -15.3950  -40.5636 C.2       7 UNK         0.5000 
     36 O          -0.5576  -15.2361  -41.7791 O.2       7 UNK        -0.5000 
     37 CA          0.3953  -14.8362  -39.6138 C.3       7 UNK         0.1400 
     38 CB          0.3231  -15.3795  -38.1688 C.3       7 UNK        -0.1800 
     39 N           1.7341  -15.0155  -40.1807 N.am      7 UNK        -0.5000 
     40 C           2.3573  -16.1716  -40.4577 C.2       6 UNK         0.5000 
     41 O           1.9183  -17.2818  -40.1577 O.2       6 UNK        -0.5000 
     42 CA          3.6989  -16.0718  -41.2114 C.3       6 UNK         0.1400 
     43 CB          3.5283  -16.5385  -42.6659 C.3       6 UNK        -0.1800 
     44 N           4.2435  -14.7102  -41.2048 N.am      6 UNK        -0.5000 
     45 C           4.9433  -14.1856  -40.1866 C.2       5 UNK         0.5000 
     46 O           5.2353  -14.8221  -39.1727 O.2       5 UNK        -0.5000 
     47 CA          5.3508  -12.7002  -40.2958 C.3       5 UNK         0.1400 
     48 CB          6.6610  -12.3771  -39.5467 C.3       5 UNK        -0.1800 
     49 N           5.3847  -12.1985  -41.6728 N.am      5 UNK        -0.5000 
     50 C           6.2224  -12.5562  -42.6595 C.2       4 UNK         0.5000 
     51 O           7.1477  -13.3557  -42.5141 O.2       4 UNK        -0.5000 
     52 CA          5.9720  -11.9445  -44.0540 C.3       4 UNK         0.1400 
     53 CB          5.8461  -13.0513  -45.1145 C.3       4 UNK        -0.1800 
     54 N           4.7577  -11.1253  -44.0847 N.am      4 UNK        -0.5000 
     55 C           4.7186   -9.7961  -43.9135 C.2       3 UNK         0.5000 
     56 O           5.7221   -9.0952  -43.7813 O.2       3 UNK        -0.5000 
     57 CA          3.3242   -9.1365  -43.8544 C.3       3 UNK         0.1400 
     58 CB          2.9559   -8.5400  -45.2214 C.3       3 UNK        -0.1800 
     59 N           2.2575  -10.0493  -43.4330 N.am      3 UNK        -0.5000 
     60 C           2.1524  -10.6088  -42.2190 C.2       2 UNK         0.5000 
     61 O           2.9367  -10.3901  -41.2965 O.2       2 UNK        -0.5000 
     62 CA          1.0307  -11.6476  -42.0290 C.3       2 UNK         0.1400 
     63 CB         -0.2533  -10.9856  -41.5109 C.3       2 UNK        -0.1800 
     64 N           0.7299  -12.3989  -43.2491 N.am      2 UNK        -0.5000 
     65 C           1.5867  -13.1977  -43.8980 C.2       1 UNK         0.5000 
     66 O           2.7368  -13.4065  -43.5016 O.2       1 UNK        -0.5000 
     67 C          -1.7625  -22.8441  -49.6994 C.2       11 UNK         0.5000 
     68 O          -1.7631  -24.0548  -49.9161 O.2       11 UNK        -0.5000 
     69 N          -2.8847  -22.1167  -49.5961 N.am      12 UNK        -0.5000 
     70 CA         -4.2431  -22.6631  -49.6418 C.3       12 UNK         0.1400 
     71 CB         -5.2523  -21.5098  -49.5385 C.3       12 UNK        -0.1800 
     72 C          -4.5364  -23.7132  -48.5497 C.2       12 UNK         0.5000 
     73 O          -5.3602  -24.6005  -48.7703 O.2       12 UNK        -0.5000 
     74 N          -3.8528  -23.6074  -47.4008 N.am      13 UNK        -0.5000 
     75 CA         -3.9236  -24.5851  -46.3153 C.3       13 UNK         0.1400 
     76 CB         -3.5600  -23.8901  -44.9937 C.3       13 UNK        -0.1800 
     77 C          -3.0049  -25.7993  -46.5558 C.2       13 UNK         0.5000 
     78 O          -3.2198  -26.8437  -45.9393 O.2       13 UNK        -0.5000 
     79 N          -1.9948  -25.6464  -47.4237 N.am      14 UNK        -0.5000 
     80 CA         -1.0141  -26.6806  -47.7438 C.3       14 UNK         0.1400 
     81 CB          0.3247  -26.0247  -48.1200 C.3       14 UNK        -0.1800 
     82 C          -1.4988  -27.6129  -48.8658 C.2       14 UNK         0.5000 
     83 O          -1.2366  -28.8146  -48.7925 O.2       14 UNK        -0.5000 
     84 N          -2.1912  -27.0664  -49.8755 N.am      15 UNK        -0.5000 
     85 CA         -2.6913  -27.8246  -51.0189 C.3       15 UNK         0.1400 
     86 CB         -1.5849  -27.9523  -52.0820 C.3       15 UNK        -0.1800 
     87 C          -3.9307  -27.1556  -51.6229 C.2       15 UNK         0.5000 
     88 O          -3.9650  -25.9317  -51.7663 O.2       15 UNK        -0.5000 
     89 N          -4.8920  -27.9830  -52.0544 N.am      16 UNK        -0.5000 
     90 CA         -6.0894  -27.5610  -52.7875 C.3       16 UNK         0.1400 
     91 CB         -7.0723  -28.7376  -52.8745 C.3       16 UNK        -0.1800 
     92 C          -5.7688  -27.0196  -54.1949 C.2       16 UNK         0.5000 
     93 O          -6.4810  -26.1469  -54.6900 O.2       16 UNK        -0.5000 
     94 N          -4.6772  -27.5152  -54.7962 N.am      17 UNK        -0.5000 
     95 CA         -4.1335  -27.0309  -56.0660 C.3       17 UNK         0.1400 
     96 CB         -3.0378  -27.9942  -56.5465 C.3       17 UNK        -0.1800 
     97 C          -3.5852  -25.5950  -55.9642 C.2       17 UNK         0.5000 
     98 O          -3.6995  -24.8326  -56.9232 O.2       17 UNK        -0.5000 
     99 N          -3.0301  -25.2421  -54.7961 N.am      18 UNK        -0.5000 
    100 CA        -2.5845  -23.8870  -54.4813 C.3       18 UNK         0.1400 
    101 CB        -1.5380  -23.9304  -53.3631 C.3       18 UNK        -0.1800 
    102 C         -3.7637  -22.9769  -54.1020 C.2       18 UNK         0.5000 
    103 O         -3.7606  -21.8072  -54.4813 O.2       18 UNK        -0.5000 
    104 N         -4.7771  -23.5298  -53.4173 N.am      19 UNK        -0.5000 
    105 CA        -6.0252  -22.8440  -53.0557 C.3       19 UNK         0.1400 
    106 CB        -6.8726  -23.7553  -52.1536 C.3       19 UNK        -0.1800 
    107 C         -6.8609  -22.3828  -54.2675 C.2       19 UNK         0.5000 
    108 O         -7.6543  -21.4522  -54.1357 O.2       19 UNK        -0.5000 
    109 N         -6.6636  -23.0227  -55.4284 N.am      20 UNK        -0.5000 
    110 CA        -7.2565  -22.6242  -56.7053 C.3       20 UNK         0.1400 
    111 CB        -7.0435  -23.7467  -57.7316 C.3       20 UNK        -0.1800 
    112 C         -6.6999  -21.2862  -57.2360 C.2       20 UNK         0.5000 
    113 O         -7.4168  -20.5765  -57.9427 O.2       20 UNK        -0.5000 
    114 N         -5.4476  -20.9625  -56.8832 N.am      21 UNK        -0.5000 
    115 CA        -4.7985  -19.6886  -57.1893 C.3       21 UNK         0.1400 
    116 CB        -3.3165  -19.9363  -57.5151 C.3       21 UNK        -0.1800 
    117 C         -4.9487  -18.7141  -56.0097 C.2       21 UNK         0.5000 
    118 O         -5.3786  -17.5758  -56.2039 O.2       21 UNK        -0.5000 
    119 N         -4.6132  -19.1875  -54.8036 N.am      22 UNK        -0.5000 
    120 CA        -4.7522  -18.4805  -53.5260 C.3       22 UNK         0.1400 
    121 C         -6.2314  -18.4706  -53.0371 C.2       22 UNK         0.5000 
    122 N         -7.1120  -17.7623  -53.7314 N.am      22 UNK        -0.7600 
    123 O         -6.5903  -19.0997  -52.0458 O.2       22 UNK        -0.5000 
    124 C124       -3.7326  -19.0287  -52.4903 C.3       23 UNK        -0.0398 
    125 S125       -3.5768  -17.9653  -51.0130 S.3       23 UNK        -0.2404 
    126 C126       -2.1909  -16.8815  -51.4745 C.3       23 UNK        -0.0205 
    127 H127       -3.0023  -15.3591  -45.5702 H         1 UNK         0.0600 
    128 H128       -3.2571  -14.6622  -43.9653 H         1 UNK         0.0600 
    129 H129       -2.1588  -16.0211  -44.1645 H         1 UNK         0.0600 
    130 H130       -0.0026  -15.6188  -44.8543 H         1 UNK         0.3000 
    131 H131        0.8121  -12.9778  -45.8539 H         1 UNK         0.0600 
    132 H132        3.1031  -14.0585  -45.9892 H         1 UNK         0.0800 
    133 H133        2.3938  -15.5604  -45.4593 H         1 UNK         0.0800 
    134 H134        1.7119  -17.2503  -47.0695 H         1 UNK         0.0800 
    135 H135        0.1200  -16.5316  -46.9741 H         1 UNK         0.0800 
    136 H136       -1.1706  -16.0343  -49.1012 H         1 UNK         0.1150 
    137 H137       -0.3579  -18.7056  -52.3542 H         1 UNK         0.1150 
    138 H138        2.3970  -18.4091  -49.0809 H         1 UNK         0.1150 
    139 H139        1.7160  -19.8930  -52.4720 H         1 UNK         0.0800 
    140 H140        3.0334  -19.3162  -51.4841 H         1 UNK         0.0800 
    141 H141        0.4211  -22.8327  -51.3305 H         1 UNK         0.0800 
    142 H142       -0.2246  -21.2130  -51.4210 H         1 UNK         0.0800 
    143 H143        0.1811  -22.8263  -48.8552 H         1 UNK         0.0600 
    144 H144       -0.2145  -20.0573  -49.0737 H         1 UNK         0.3000 
    145 H145       -0.0856  -18.9896  -46.9668 H         1 UNK         0.0600 
    146 H146       -2.1974  -17.6571  -46.7598 H         1 UNK         0.0600 
    147 H147       -2.2594  -18.5811  -48.2504 H         1 UNK         0.0600 
    148 H148       -3.1663  -19.1266  -46.8487 H         1 UNK         0.0600 
    149 H149       -1.3871  -20.5854  -44.9694 H         1 UNK         0.3000 
    150 H150       -1.5480  -20.0148  -42.8284 H         1 UNK         0.0600 
    151 H151        1.2460  -18.8327  -42.3547 H         1 UNK         0.0600 
    152 H152        0.8910  -20.4964  -42.8053 H         1 UNK         0.0600 
    153 H153        0.3921  -19.8876  -41.2322 H         1 UNK         0.0600 
    154 H154       -0.8700  -17.1534  -42.3156 H         1 UNK         0.3000 
    155 H155       -3.0959  -15.9950  -41.5918 H         1 UNK         0.0600 
    156 H156       -3.8621  -17.3784  -38.9701 H         1 UNK         0.0600 
    157 H157       -4.9177  -17.1408  -40.3588 H         1 UNK         0.0600 
    158 H158       -4.3367  -15.7515  -39.4580 H         1 UNK         0.0600 
    159 H159       -1.7377  -16.1606  -39.0156 H         1 UNK         0.3000 
    160 H160        0.2249  -13.7601  -39.5668 H         1 UNK         0.0600 
    161 H161        0.3849  -16.4677  -38.1339 H         1 UNK         0.0600 
    162 H162       -0.6057  -15.0829  -37.6804 H         1 UNK         0.0600 
    163 H163        1.1389  -14.9839  -37.5636 H         1 UNK         0.0600 
    164 H164        2.1853  -14.1759  -40.5082 H         1 UNK         0.3000 
    165 H165        4.4099  -16.7417  -40.7233 H         1 UNK         0.0600 
    166 H166        3.3288  -17.6094  -42.7067 H         1 UNK         0.0600 
    167 H167        2.6920  -16.0370  -43.1520 H         1 UNK         0.0600 
    168 H168        4.4260  -16.3521  -43.2557 H         1 UNK         0.0600 
    169 H169        4.0188  -14.1323  -42.0077 H         1 UNK         0.3000 
    170 H170        4.5543  -12.1430  -39.8011 H         1 UNK         0.0600 
    171 H171        6.5628  -12.5848  -38.4806 H         1 UNK         0.0600 
    172 H172        7.4986  -12.9690  -39.9160 H         1 UNK         0.0600 
    173 H173        6.9229  -11.3238  -39.6466 H         1 UNK         0.0600 
    174 H174        4.6613  -11.5246  -41.8917 H         1 UNK         0.3000 
    175 H175        6.8403  -11.3323  -44.3055 H         1 UNK         0.0600 
    176 H176        5.5741  -12.6434  -46.0881 H         1 UNK         0.0600 
    177 H177        6.7916  -13.5806  -45.2379 H         1 UNK         0.0600 
    178 H178        5.0970  -13.7914  -44.8338 H         1 UNK         0.0600 
    179 H179        3.8865  -11.6363  -44.1428 H         1 UNK         0.3000 
    180 H180        3.3774   -8.3229  -43.1279 H         1 UNK         0.0600 
    181 H181        2.8680   -9.3120  -45.9869 H         1 UNK         0.0600 
    182 H182        3.7145   -7.8310  -45.5558 H         1 UNK         0.0600 
    183 H183        2.0089   -8.0019  -45.1753 H         1 UNK         0.0600 
    184 H184        1.5676  -10.2902  -44.1295 H         1 UNK         0.3000 
    185 H185        1.3741  -12.3590  -41.2776 H         1 UNK         0.0600 
    186 H186       -0.0657  -10.4376  -40.5866 H         1 UNK         0.0600 
    187 H187       -0.6629  -10.2805  -42.2352 H         1 UNK         0.0600 
    188 H188       -1.0202  -11.7306  -41.2971 H         1 UNK         0.0600 
    189 H189       -0.2046  -12.3063  -43.6344 H         1 UNK         0.3000 
    190 H190       -2.8005  -21.1294  -49.4056 H         1 UNK         0.3000 
    191 H191       -4.3584  -23.1531  -50.6087 H         1 UNK         0.0600 
    192 H192       -5.1152  -20.7828  -50.3362 H         1 UNK         0.0600 
    193 H193       -6.2762  -21.8783  -49.6135 H         1 UNK         0.0600 
    194 H194       -5.1621  -20.9810  -48.5888 H         1 UNK         0.0600 
    195 H195       -3.1736  -22.8624  -47.2901 H         1 UNK         0.3000 
    196 H196       -4.9479  -24.9543  -46.2304 H         1 UNK         0.0600 
    197 H197       -3.6741  -24.5728  -44.1508 H         1 UNK         0.0600 
    198 H198       -4.2061  -23.0322  -44.8066 H         1 UNK         0.0600 
    199 H199       -2.5272  -23.5402  -44.9922 H         1 UNK         0.0600 
    200 H200       -1.9289  -24.7864  -47.9518 H         1 UNK         0.3000 
    201 H201       -0.8405  -27.2906  -46.8545 H         1 UNK         0.0600 
    202 H202        1.0985  -26.7807  -48.2588 H         1 UNK         0.0600 
    203 H203        0.2576  -25.4585  -49.0486 H         1 UNK         0.0600 
    204 H204        0.6681  -25.3482  -47.3372 H         1 UNK         0.0600 
    205 H205       -2.3618  -26.0650  -49.8964 H         1 UNK         0.3000 
    206 H206       -2.9796  -28.8245  -50.6871 H         1 UNK         0.0600 
    207 H207       -0.7239  -28.4963  -51.6933 H         1 UNK         0.0600 
    208 H208       -1.9394  -28.4951  -52.9590 H         1 UNK         0.0600 
    209 H209       -1.2365  -26.9744  -52.4166 H         1 UNK         0.0600 
    210 H210       -4.7875  -28.9766  -51.9049 H         1 UNK         0.3000 
    211 H211       -6.5664  -26.7599  -52.2206 H         1 UNK         0.0600 
    212 H212       -6.6441  -29.5827  -53.4149 H         1 UNK         0.0600 
    213 H213       -7.9859  -28.4446  -53.3937 H         1 UNK         0.0600 
    214 H214       -7.3615  -29.0842  -51.8821 H         1 UNK         0.0600 
    215 H215       -4.1628  -28.2470  -54.3298 H         1 UNK         0.3000 
    216 H216       -4.9388  -27.0288  -56.8038 H         1 UNK         0.0600 
    217 H217       -2.6261  -27.6702  -57.5033 H         1 UNK         0.0600 
    218 H218       -3.4318  -29.0007  -56.6881 H         1 UNK         0.0600 
    219 H219       -2.2117  -28.0529  -55.8366 H         1 UNK         0.0600 
    220 H220       -3.0045  -25.9141  -54.0437 H         1 UNK         0.3000 
    221 H221       -2.1073  -23.4564  -55.3645 H         1 UNK         0.0600 
    222 H222       -1.9326  -24.3983  -52.4631 H         1 UNK         0.0600 
    223 H223       -0.6541  -24.4893  -53.6701 H         1 UNK         0.0600 
    224 H224       -1.2145  -22.9231  -53.1013 H         1 UNK         0.0600 
    225 H225       -4.6713  -24.4826  -53.0879 H         1 UNK         0.3000 
    226 H226       -5.7534  -21.9526  -52.4877 H         1 UNK         0.0600 
    227 H227       -7.6779  -23.1887  -51.6848 H         1 UNK         0.0600 
    228 H228       -7.3360  -24.5621  -52.7204 H         1 UNK         0.0600 
    229 H229       -6.2846  -24.2059  -51.3556 H         1 UNK         0.0600 
    230 H230       -6.0486  -23.8249  -55.4368 H         1 UNK         0.3000 
    231 H231       -8.3310  -22.5008  -56.5547 H         1 UNK         0.0600 
    232 H232       -5.9864  -23.8935  -57.9536 H         1 UNK         0.0600 
    233 H233       -7.5455  -23.5146  -58.6716 H         1 UNK         0.0600 
    234 H234       -7.4461  -24.6940  -57.3719 H         1 UNK         0.0600 
    235 H235       -4.9448  -21.5843  -56.2630 H         1 UNK         0.3000 
    236 H236       -5.2608  -19.2312  -58.0667 H         1 UNK         0.0600 
    237 H237       -3.2103  -20.5834  -58.3859 H         1 UNK         0.0600 
    238 H238       -2.8056  -18.9997  -57.7416 H         1 UNK         0.0600 
    239 H239       -2.7879  -20.4067  -56.6851 H         1 UNK         0.0600 
    240 H240       -4.2876  -20.1500  -54.7337 H         1 UNK         0.3000 
    241 H241       -4.4826  -17.4371  -53.7018 H         1 UNK         0.0600 
    242 H242       -6.8257  -17.3001  -54.5848 H         1 UNK         0.3800 
    243 H243       -8.0778  -17.7477  -53.4445 H         1 UNK         0.3800 
    244 H244       -2.7491  -19.1290  -52.9507 H         1 UNK         0.0800 
    245 H245       -4.0080  -20.0364  -52.1798 H         1 UNK         0.0800 
    246 H246       -2.4343  -15.8613  -51.1739 H         1 UNK         0.0800 
    247 H247       -2.0674  -16.8511  -52.5581 H         1 UNK         0.0800 
@<TRIPOS>BOND
     1    1    2 1    
     2    1  127 1    
     3    1  128 1    
     4    1  129 1    
     5    2    3 2    
     6    2    4 am   BACKBONE|DICT|INTERRES
     7    4    5 1    
     8    4  130 1    
     9    5    6 1    
    10    5   65 1    
    11    5  131 1    
    12    6    7 1    
    13    6  132 1    
    14    6  133 1    
    15    7    8 1    
    16    8    9 1    
    17    8  134 1    
    18    8  135 1    
    19    9   10 ar   
    20    9   14 ar   
    21   10   11 ar   
    22   10  136 1    
    23   11   12 ar   
    24   11  126 1    
    25   12   13 ar   
    26   12  137 1    
    27   13   14 ar   
    28   13   15 1    
    29   14  138 1    
    30   15   16 1    
    31   15  139 1    
    32   15  140 1    
    33   16   17 1    
    34   17   18 1    
    35   17  141 1    
    36   17  142 1    
    37   18   19 1    
    38   18   67 1    
    39   18  143 1    
    40   19   20 am   BACKBONE|DICT|INTERRES
    41   19  144 1    
    42   20   21 2    
    43   20   22 1    
    44   22   23 1    
    45   22   24 1    
    46   22  145 1    
    47   23  146 1    
    48   23  147 1    
    49   23  148 1    
    50   24   25 am   BACKBONE|DICT|INTERRES
    51   24  149 1    
    52   25   26 2    
    53   25   27 1    
    54   27   28 1    
    55   27   29 1    
    56   27  150 1    
    57   28  151 1    
    58   28  152 1    
    59   28  153 1    
    60   29   30 am   BACKBONE|DICT|INTERRES
    61   29  154 1    
    62   30   31 2    
    63   30   32 1    
    64   32   33 1    
    65   32   34 1    
    66   32  155 1    
    67   33  156 1    
    68   33  157 1    
    69   33  158 1    
    70   34   35 am   BACKBONE|DICT|INTERRES
    71   34  159 1    
    72   35   36 2    
    73   35   37 1    
    74   37   38 1    
    75   37   39 1    
    76   37  160 1    
    77   38  161 1    
    78   38  162 1    
    79   38  163 1    
    80   39   40 am   BACKBONE|DICT|INTERRES
    81   39  164 1    
    82   40   41 2    
    83   40   42 1    
    84   42   43 1    
    85   42   44 1    
    86   42  165 1    
    87   43  166 1    
    88   43  167 1    
    89   43  168 1    
    90   44   45 am   BACKBONE|DICT|INTERRES
    91   44  169 1    
    92   45   46 2    
    93   45   47 1    
    94   47   48 1    
    95   47   49 1    
    96   47  170 1    
    97   48  171 1    
    98   48  172 1    
    99   48  173 1    
   100   49   50 am   BACKBONE|DICT|INTERRES
   101   49  174 1    
   102   50   51 2    
   103   50   52 1    
   104   52   53 1    
   105   52   54 1    
   106   52  175 1    
   107   53  176 1    
   108   53  177 1    
   109   53  178 1    
   110   54   55 am   BACKBONE|DICT|INTERRES
   111   54  179 1    
   112   55   56 2    
   113   55   57 1    
   114   57   58 1    
   115   57   59 1    
   116   57  180 1    
   117   58  181 1    
   118   58  182 1    
   119   58  183 1    
   120   59   60 am   BACKBONE|DICT|INTERRES
   121   59  184 1    
   122   60   61 2    
   123   60   62 1    
   124   62   63 1    
   125   62   64 1    
   126   62  185 1    
   127   63  186 1    
   128   63  187 1    
   129   63  188 1    
   130   64   65 am   BACKBONE|DICT|INTERRES
   131   64  189 1    
   132   65   66 2    
   133   67   68 2    
   134   67   69 am   BACKBONE|DICT|INTERRES
   135   69   70 1    
   136   69  190 1    
   137   70   71 1    
   138   70   72 1    
   139   70  191 1    
   140   71  192 1    
   141   71  193 1    
   142   71  194 1    
   143   72   73 2    
   144   72   74 am   BACKBONE|DICT|INTERRES
   145   74   75 1    
   146   74  195 1    
   147   75   76 1    
   148   75   77 1    
   149   75  196 1    
   150   76  197 1    
   151   76  198 1    
   152   76  199 1    
   153   77   78 2    
   154   77   79 am   BACKBONE|DICT|INTERRES
   155   79   80 1    
   156   79  200 1    
   157   80   81 1    
   158   80   82 1    
   159   80  201 1    
   160   81  202 1    
   161   81  203 1    
   162   81  204 1    
   163   82   83 2    
   164   82   84 am   BACKBONE|DICT|INTERRES
   165   84   85 1    
   166   84  205 1    
   167   85   86 1    
   168   85   87 1    
   169   85  206 1    
   170   86  207 1    
   171   86  208 1    
   172   86  209 1    
   173   87   88 2    
   174   87   89 am   BACKBONE|DICT|INTERRES
   175   89   90 1    
   176   89  210 1    
   177   90   91 1    
   178   90   92 1    
   179   90  211 1    
   180   91  212 1    
   181   91  213 1    
   182   91  214 1    
   183   92   93 2    
   184   92   94 am   BACKBONE|DICT|INTERRES
   185   94   95 1    
   186   94  215 1    
   187   95   96 1    
   188   95   97 1    
   189   95  216 1    
   190   96  217 1    
   191   96  218 1    
   192   96  219 1    
   193   97   98 2    
   194   97   99 am   BACKBONE|DICT|INTERRES
   195   99  100 1    
   196   99  220 1    
   197  100  101 1    
   198  100  102 1    
   199  100  221 1    
   200  101  222 1    
   201  101  223 1    
   202  101  224 1    
   203  102  103 2    
   204  102  104 am   BACKBONE|DICT|INTERRES
   205  104  105 1    
   206  104  225 1    
   207  105  106 1    
   208  105  107 1    
   209  105  226 1    
   210  106  227 1    
   211  106  228 1    
   212  106  229 1    
   213  107  108 2    
   214  107  109 am   BACKBONE|DICT|INTERRES
   215  109  110 1    
   216  109  230 1    
   217  110  111 1    
   218  110  112 1    
   219  110  231 1    
   220  111  232 1    
   221  111  233 1    
   222  111  234 1    
   223  112  113 2    
   224  112  114 am   BACKBONE|DICT|INTERRES
   225  114  115 1    
   226  114  235 1    
   227  115  116 1    
   228  115  117 1    
   229  115  236 1    
   230  116  237 1    
   231  116  238 1    
   232  116  239 1    
   233  117  118 2    
   234  117  119 am   BACKBONE|DICT|INTERRES
   235  119  120 1    
   236  119  240 1    
   237  120  121 1    
   238  120  124 1    
   239  120  241 1    
   240  121  122 am   BACKBONE|DICT|INTERRES
   241  121  123 2    
   242  122  242 1    
   243  122  243 1    
   244  124  125 1    
   245  124  244 1    
   246  124  245 1    
   247  125  126 1    
   248  126  246 1    
   249  126  247 1    
@<TRIPOS>SUBSTRUCTURE
     1 UNK         1 GROUP             0       ****    0 ROOT    
