@<TRIPOS>MOLECULE
3R540
247   249    1
SMALL
USER_CHARGES


@<TRIPOS>ATOM
      1 CA          4.9719  -14.1786  -47.4419 C.3       0 UNK        -0.1800 
      2 C           4.0052  -13.3224  -46.6384 C.2       0 UNK         0.5000 
      3 O           4.3411  -12.8871  -45.5373 O.2       0 UNK        -0.5000 
      4 N           2.8118  -13.0624  -47.1892 N.am      1 UNK        -0.5000 
      5 CA          1.7139  -12.3350  -46.5327 C.3       1 UNK         0.1400 
      6 C6          0.3948  -12.4113  -47.3340 C.3       23 UNK        -0.0398 
      7 S7         -0.1934  -14.1300  -47.4855 S.3       23 UNK        -0.2404 
      8 C8         -0.1533  -14.3703  -49.2861 C.3       23 UNK        -0.0205 
      9 C9         -0.5671  -15.7849  -49.6581 C.ar      23 UNK        -0.0193 
     10 C10        -1.9222  -16.1198  -49.7471 C.ar      23 UNK        -0.1150 
     11 C11        -2.3129  -17.4192  -50.0837 C.ar      23 UNK        -0.0193 
     12 C12        -1.3317  -18.3762  -50.3561 C.ar      23 UNK        -0.1150 
     13 C13         0.0266  -18.0575  -50.2698 C.ar      23 UNK        -0.0193 
     14 C14         0.4027  -16.7593  -49.9139 C.ar      23 UNK        -0.1150 
     15 C15         1.0837  -19.1110  -50.5771 C.3       23 UNK        -0.0205 
     16 S16         1.5122  -20.1159  -49.1177 S.3       23 UNK        -0.2404 
     17 C17        -0.0508  -21.0131  -48.8575 C.3       23 UNK        -0.0398 
     18 CA          0.0742  -22.2334  -47.9189 C.3       11 UNK         0.1400 
     19 N           0.3169  -21.8556  -46.5231 N.am      11 UNK        -0.5000 
     20 C           0.5257  -22.7215  -45.5197 C.2       10 UNK         0.5000 
     21 O           0.6084  -23.9407  -45.6726 O.2       10 UNK        -0.5000 
     22 CA          0.5875  -22.1355  -44.0968 C.3       10 UNK         0.1400 
     23 CB          1.9476  -21.4763  -43.8237 C.3       10 UNK        -0.1800 
     24 N          -0.4905  -21.1790  -43.8405 N.am      10 UNK        -0.5000 
     25 C          -1.7957  -21.4874  -43.8497 C.2       9 UNK         0.5000 
     26 O          -2.2291  -22.6254  -44.0237 O.2       9 UNK        -0.5000 
     27 CA         -2.7879  -20.3238  -43.6865 C.3       9 UNK         0.1400 
     28 CB         -2.9929  -19.9716  -42.2054 C.3       9 UNK        -0.1800 
     29 N          -2.3662  -19.1357  -44.4257 N.am      9 UNK        -0.5000 
     30 C          -2.3277  -19.0505  -45.7631 C.2       8 UNK         0.5000 
     31 O          -2.6788  -19.9545  -46.5206 O.2       8 UNK        -0.5000 
     32 CA         -1.7610  -17.7464  -46.3465 C.3       8 UNK         0.1400 
     33 CB         -2.8459  -16.6587  -46.3536 C.3       8 UNK        -0.1800 
     34 N          -0.5799  -17.2776  -45.6182 N.am      8 UNK        -0.5000 
     35 C           0.5799  -17.9525  -45.5662 C.2       7 UNK         0.5000 
     36 O           0.7631  -19.0303  -46.1273 O.2       7 UNK        -0.5000 
     37 CA          1.7040  -17.3751  -44.6843 C.3       7 UNK         0.1400 
     38 CB          2.5342  -16.3556  -45.4747 C.3       7 UNK        -0.1800 
     39 N           1.2119  -16.7535  -43.4554 N.am      7 UNK        -0.5000 
     40 C           0.4604  -17.3717  -42.5306 C.2       6 UNK         0.5000 
     41 O           0.2028  -18.5755  -42.5634 O.2       6 UNK        -0.5000 
     42 CA         -0.1527  -16.5050  -41.4100 C.3       6 UNK         0.1400 
     43 CB          0.6252  -16.6971  -40.0999 C.3       6 UNK        -0.1800 
     44 N          -0.2087  -15.0742  -41.7207 N.am      6 UNK        -0.5000 
     45 C          -0.8386  -14.5137  -42.7641 C.2       5 UNK         0.5000 
     46 O          -1.5427  -15.1442  -43.5530 O.2       5 UNK        -0.5000 
     47 CA         -0.5899  -13.0098  -43.0032 C.3       5 UNK         0.1400 
     48 CB         -1.8021  -12.1853  -42.5461 C.3       5 UNK        -0.1800 
     49 N           0.6200  -12.4789  -42.3591 N.am      5 UNK        -0.5000 
     50 C           1.8738  -12.8854  -42.6018 C.2       4 UNK         0.5000 
     51 O           2.1573  -13.8138  -43.3601 O.2       4 UNK        -0.5000 
     52 CA          2.9911  -12.1756  -41.8320 C.3       4 UNK         0.1400 
     53 CB          3.6285  -13.1236  -40.7992 C.3       4 UNK        -0.1800 
     54 N           3.9945  -11.6994  -42.7784 N.am      4 UNK        -0.5000 
     55 C           4.8669  -10.7142  -42.5285 C.2       3 UNK         0.5000 
     56 O           4.9387  -10.1203  -41.4515 O.2       3 UNK        -0.5000 
     57 CA          5.7959  -10.2978  -43.6794 C.3       3 UNK         0.1400 
     58 CB          6.9108  -11.3340  -43.8966 C.3       3 UNK        -0.1800 
     59 N           5.0372  -10.1159  -44.9154 N.am      3 UNK        -0.5000 
     60 C           4.4556   -8.9646  -45.2834 C.2       2 UNK         0.5000 
     61 O           4.5617   -7.9139  -44.6494 O.2       2 UNK        -0.5000 
     62 CA          3.6116   -8.9766  -46.5749 C.3       2 UNK         0.1400 
     63 CB          4.4556   -8.5140  -47.7724 C.3       2 UNK        -0.1800 
     64 N           3.0408  -10.2892  -46.8756 N.am      2 UNK        -0.5000 
     65 C           2.0590  -10.8735  -46.1747 C.2       1 UNK         0.5000 
     66 O           1.4546  -10.3188  -45.2565 O.2       1 UNK        -0.5000 
     67 C          -1.1830  -23.1127  -48.0579 C.2       11 UNK         0.5000 
     68 O          -1.1148  -24.1578  -48.7041 O.2       11 UNK        -0.5000 
     69 N          -2.2950  -22.6883  -47.4389 N.am      12 UNK        -0.5000 
     70 CA         -3.5722  -23.4002  -47.4652 C.3       12 UNK         0.1400 
     71 CB         -4.6666  -22.5465  -46.8097 C.3       12 UNK        -0.1800 
     72 C          -3.5021  -24.7949  -46.8224 C.2       12 UNK         0.5000 
     73 O          -4.0666  -25.7398  -47.3714 O.2       12 UNK        -0.5000 
     74 N          -2.7826  -24.9098  -45.6982 N.am      13 UNK        -0.5000 
     75 CA         -2.5181  -26.1735  -45.0118 C.3       13 UNK         0.1400 
     76 CB         -1.8741  -25.8908  -43.6461 C.3       13 UNK        -0.1800 
     77 C          -1.6398  -27.1286  -45.8405 C.2       13 UNK         0.5000 
     78 O          -1.9100  -28.3298  -45.8627 O.2       13 UNK        -0.5000 
     79 N          -0.6172  -26.5813  -46.5124 N.am      14 UNK        -0.5000 
     80 CA          0.2998  -27.3284  -47.3723 C.3       14 UNK         0.1400 
     81 CB          1.5291  -26.4620  -47.6879 C.3       14 UNK        -0.1800 
     82 C          -0.3677  -27.8246  -48.6676 C.2       14 UNK         0.5000 
     83 O          -0.2003  -28.9904  -49.0286 O.2       14 UNK        -0.5000 
     84 N          -1.1055  -26.9348  -49.3443 N.am      15 UNK        -0.5000 
     85 CA         -1.7778  -27.2179  -50.6137 C.3       15 UNK         0.1400 
     86 CB         -2.0308  -25.8928  -51.3494 C.3       15 UNK        -0.1800 
     87 C          -3.0920  -28.0052  -50.4539 C.2       15 UNK         0.5000 
     88 O          -3.5175  -28.6525  -51.4111 O.2       15 UNK        -0.5000 
     89 N          -3.7177  -27.9171  -49.2697 N.am      16 UNK        -0.5000 
     90 CA         -5.0377  -28.4566  -48.9119 C.3       16 UNK         0.1400 
     91 CB         -5.0489  -29.9982  -48.9767 C.3       16 UNK        -0.1800 
     92 C          -6.1914  -27.8059  -49.7103 C.2       16 UNK         0.5000 
     93 O          -7.2402  -28.4237  -49.9031 O.2       16 UNK        -0.5000 
     94 N          -5.9704  -26.5647  -50.1546 N.am      17 UNK        -0.5000 
     95 CA         -6.8231  -25.7334  -50.9973 C.3       17 UNK         0.1400 
     96 CB         -6.9667  -26.3587  -52.4006 C.3       17 UNK        -0.1800 
     97 C          -6.1619  -24.3480  -51.0874 C.2       17 UNK         0.5000 
     98 O          -5.0415  -24.1762  -50.6015 O.2       17 UNK        -0.5000 
     99 N          -6.8402  -23.3831  -51.7206 N.am      18 UNK        -0.5000 
    100 CA        -6.2841  -22.0650  -52.0310 C.3       18 UNK         0.1400 
    101 CB        -7.4138  -21.1297  -52.4931 C.3       18 UNK        -0.1800 
    102 C         -5.1811  -22.1887  -53.0995 C.2       18 UNK         0.5000 
    103 O         -5.4947  -22.3763  -54.2776 O.2       18 UNK        -0.5000 
    104 N         -3.9179  -22.1238  -52.6599 N.am      19 UNK        -0.5000 
    105 CA        -2.7124  -22.2645  -53.4769 C.3       19 UNK         0.1400 
    106 CB        -1.4774  -22.1414  -52.5700 C.3       19 UNK        -0.1800 
    107 C         -2.6696  -21.2323  -54.6189 C.2       19 UNK         0.5000 
    108 O         -2.5882  -20.0333  -54.3524 O.2       19 UNK        -0.5000 
    109 N         -2.7793  -21.7216  -55.8620 N.am      20 UNK        -0.5000 
    110 CA        -2.8801  -20.9456  -57.1051 C.3       20 UNK         0.1400 
    111 CB        -1.5639  -20.1904  -57.3887 C.3       20 UNK        -0.1800 
    112 C         -4.1250  -20.0285  -57.1640 C.2       20 UNK         0.5000 
    113 O         -4.0891  -18.9933  -57.8315 O.2       20 UNK        -0.5000 
    114 N         -5.2040  -20.4342  -56.4739 N.am      21 UNK        -0.5000 
    115 CA        -6.4918  -19.7436  -56.3479 C.3       21 UNK         0.1400 
    116 CB        -7.2289  -19.6982  -57.7031 C.3       21 UNK        -0.1800 
    117 C         -6.3671  -18.3610  -55.6722 C.2       21 UNK         0.5000 
    118 O         -6.9732  -17.3889  -56.1263 O.2       21 UNK        -0.5000 
    119 N         -5.5771  -18.3034  -54.5924 N.am      22 UNK        -0.5000 
    120 CA        -5.3073  -17.0986  -53.7881 C.3       22 UNK         0.1400 
    121 C         -6.5156  -16.5007  -53.0021 C.2       22 UNK         0.5000 
    122 N         -7.6633  -17.1632  -52.9244 N.am      22 UNK        -0.7600 
    123 O         -6.4104  -15.4040  -52.4596 O.2       22 UNK        -0.5000 
    124 C124       -4.0728  -17.3040  -52.8735 C.3       23 UNK        -0.0398 
    125 S125       -4.2866  -18.6417  -51.6438 S.3       23 UNK        -0.2404 
    126 C126       -3.7900  -17.7982  -50.1070 C.3       23 UNK        -0.0205 
    127 H127        5.2400  -15.0695  -46.8742 H         1 UNK         0.0600 
    128 H128        5.8832  -13.6189  -47.6515 H         1 UNK         0.0600 
    129 H129        4.5394  -14.4973  -48.3906 H         1 UNK         0.0600 
    130 H130        2.5948  -13.4485  -48.0960 H         1 UNK         0.3000 
    131 H131        1.5358  -12.8383  -45.5843 H         1 UNK         0.0600 
    132 H132       -0.3932  -11.8456  -46.8331 H         1 UNK         0.0800 
    133 H133        0.5141  -11.9609  -48.3207 H         1 UNK         0.0800 
    134 H134       -0.8227  -13.6530  -49.7635 H         1 UNK         0.0800 
    135 H135        0.8486  -14.1586  -49.6621 H         1 UNK         0.0800 
    136 H136       -2.6708  -15.3704  -49.5317 H         1 UNK         0.1150 
    137 H137       -1.6327  -19.3772  -50.6253 H         1 UNK         0.1150 
    138 H138        1.4511  -16.5069  -49.8397 H         1 UNK         0.1150 
    139 H139        0.7421  -19.7614  -51.3838 H         1 UNK         0.0800 
    140 H140        1.9900  -18.6279  -50.9450 H         1 UNK         0.0800 
    141 H141       -0.4075  -21.3278  -49.8396 H         1 UNK         0.0800 
    142 H142       -0.7903  -20.3142  -48.4647 H         1 UNK         0.0800 
    143 H143        0.9249  -22.8339  -48.2478 H         1 UNK         0.0600 
    144 H144        0.3214  -20.8578  -46.3225 H         1 UNK         0.3000 
    145 H145        0.4671  -22.9617  -43.3930 H         1 UNK         0.0600 
    146 H146        1.9992  -21.0831  -42.8082 H         1 UNK         0.0600 
    147 H147        2.7576  -22.1977  -43.9366 H         1 UNK         0.0600 
    148 H148        2.1452  -20.6544  -44.5109 H         1 UNK         0.0600 
    149 H149       -0.2196  -20.2203  -43.6462 H         1 UNK         0.3000 
    150 H150       -3.7494  -20.6465  -44.0907 H         1 UNK         0.0600 
    151 H151       -3.3570  -20.8362  -41.6491 H         1 UNK         0.0600 
    152 H152       -3.7288  -19.1762  -42.0872 H         1 UNK         0.0600 
    153 H153       -2.0673  -19.6458  -41.7311 H         1 UNK         0.0600 
    154 H154       -2.0116  -18.3617  -43.8834 H         1 UNK         0.3000 
    155 H155       -1.4594  -17.9430  -47.3765 H         1 UNK         0.0600 
    156 H156       -3.1839  -16.4170  -45.3455 H         1 UNK         0.0600 
    157 H157       -2.4876  -15.7399  -46.8134 H         1 UNK         0.0600 
    158 H158       -3.7174  -16.9838  -46.9231 H         1 UNK         0.0600 
    159 H159       -0.6804  -16.4185  -45.0907 H         1 UNK         0.3000 
    160 H160        2.3588  -18.1995  -44.3967 H         1 UNK         0.0600 
    161 H161        1.9373  -15.4851  -45.7470 H         1 UNK         0.0600 
    162 H162        2.9207  -16.7918  -46.3967 H         1 UNK         0.0600 
    163 H163        3.3879  -16.0052  -44.8942 H         1 UNK         0.0600 
    164 H164        1.4013  -15.7624  -43.3497 H         1 UNK         0.3000 
    165 H165       -1.1770  -16.8510  -41.2584 H         1 UNK         0.0600 
    166 H166        0.1517  -16.1619  -39.2766 H         1 UNK         0.0600 
    167 H167        0.6655  -17.7507  -39.8197 H         1 UNK         0.0600 
    168 H168        1.6526  -16.3408  -40.1872 H         1 UNK         0.0600 
    169 H169        0.3481  -14.4698  -41.1357 H         1 UNK         0.3000 
    170 H170       -0.4745  -12.8748  -44.0805 H         1 UNK         0.0600 
    171 H171       -2.7166  -12.5336  -43.0283 H         1 UNK         0.0600 
    172 H172       -1.9522  -12.2547  -41.4680 H         1 UNK         0.0600 
    173 H173       -1.6829  -11.1326  -42.8034 H         1 UNK         0.0600 
    174 H174        0.4748  -11.7189  -41.7099 H         1 UNK         0.3000 
    175 H175        2.5632  -11.3179  -41.3084 H         1 UNK         0.0600 
    176 H176        4.1066  -13.9773  -41.2815 H         1 UNK         0.0600 
    177 H177        4.3829  -12.6125  -40.2012 H         1 UNK         0.0600 
    178 H178        2.8786  -13.5127  -40.1095 H         1 UNK         0.0600 
    179 H179        3.9937  -12.1567  -43.6873 H         1 UNK         0.3000 
    180 H180        6.2743   -9.3556  -43.4032 H         1 UNK         0.0600 
    181 H181        6.5145  -12.3174  -44.1497 H         1 UNK         0.0600 
    182 H182        7.5135  -11.4484  -42.9949 H         1 UNK         0.0600 
    183 H183        7.5814  -11.0272  -44.6992 H         1 UNK         0.0600 
    184 H184        4.8473  -10.9585  -45.4467 H         1 UNK         0.3000 
    185 H185        2.7913   -8.2682  -46.4409 H         1 UNK         0.0600 
    186 H186        4.8762   -7.5234  -47.5942 H         1 UNK         0.0600 
    187 H187        5.2866   -9.1934  -47.9659 H         1 UNK         0.0600 
    188 H188        3.8535   -8.4514  -48.6791 H         1 UNK         0.0600 
    189 H189        3.4823  -10.8197  -47.6124 H         1 UNK         0.3000 
    190 H190       -2.2869  -21.7946  -46.9548 H         1 UNK         0.3000 
    191 H191       -3.8363  -23.5374  -48.5124 H         1 UNK         0.0600 
    192 H192       -4.4408  -22.3369  -45.7643 H         1 UNK         0.0600 
    193 H193       -5.6306  -23.0556  -46.8436 H         1 UNK         0.0600 
    194 H194       -4.7848  -21.5939  -47.3262 H         1 UNK         0.0600 
    195 H195       -2.3965  -24.0708  -45.2733 H         1 UNK         0.3000 
    196 H196       -3.4760  -26.6684  -44.8393 H         1 UNK         0.0600 
    197 H197       -1.6712  -26.8180  -43.1089 H         1 UNK         0.0600 
    198 H198       -2.5311  -25.2882  -43.0188 H         1 UNK         0.0600 
    199 H199       -0.9293  -25.3558  -43.7497 H         1 UNK         0.0600 
    200 H200       -0.4382  -25.5878  -46.4103 H         1 UNK         0.3000 
    201 H201        0.6426  -28.2053  -46.8189 H         1 UNK         0.0600 
    202 H202        2.0582  -26.1840  -46.7761 H         1 UNK         0.0600 
    203 H203        1.2540  -25.5427  -48.2059 H         1 UNK         0.0600 
    204 H204        2.2345  -26.9995  -48.3226 H         1 UNK         0.0600 
    205 H205       -1.1645  -25.9774  -49.0014 H         1 UNK         0.3000 
    206 H206       -1.1118  -27.8215  -51.2340 H         1 UNK         0.0600 
    207 H207       -1.0930  -25.3862  -51.5774 H         1 UNK         0.0600 
    208 H208       -2.5521  -26.0553  -52.2936 H         1 UNK         0.0600 
    209 H209       -2.6377  -25.2135  -50.7513 H         1 UNK         0.0600 
    210 H210       -3.3130  -27.3074  -48.5683 H         1 UNK         0.3000 
    211 H211       -5.2018  -28.1769  -47.8706 H         1 UNK         0.0600 
    212 H212       -4.9806  -30.3637  -50.0015 H         1 UNK         0.0600 
    213 H213       -5.9684  -30.3995  -48.5495 H         1 UNK         0.0600 
    214 H214       -4.2182  -30.4217  -48.4120 H         1 UNK         0.0600 
    215 H215       -5.1018  -26.1059  -49.9020 H         1 UNK         0.3000 
    216 H216       -7.8017  -25.6287  -50.5257 H         1 UNK         0.0600 
    217 H217       -5.9950  -26.4905  -52.8788 H         1 UNK         0.0600 
    218 H218       -7.5730  -25.7325  -53.0558 H         1 UNK         0.0600 
    219 H219       -7.4518  -27.3336  -52.3595 H         1 UNK         0.0600 
    220 H220       -7.7434  -23.5949  -52.1185 H         1 UNK         0.3000 
    221 H221       -5.8516  -21.6421  -51.1212 H         1 UNK         0.0600 
    222 H222       -8.1641  -21.0038  -51.7124 H         1 UNK         0.0600 
    223 H223       -7.9168  -21.5068  -53.3843 H         1 UNK         0.0600 
    224 H224       -7.0222  -20.1399  -52.7276 H         1 UNK         0.0600 
    225 H225       -3.7666  -21.9954  -51.6705 H         1 UNK         0.3000 
    226 H226       -2.7204  -23.2701  -53.9023 H         1 UNK         0.0600 
    227 H227       -1.4993  -22.8759  -51.7647 H         1 UNK         0.0600 
    228 H228       -0.5601  -22.3052  -53.1366 H         1 UNK         0.0600 
    229 H229       -1.4109  -21.1513  -52.1198 H         1 UNK         0.0600 
    230 H230       -2.8759  -22.7217  -55.9722 H         1 UNK         0.3000 
    231 H231       -3.0140  -21.6755  -57.9046 H         1 UNK         0.0600 
    232 H232       -1.3960  -19.3849  -56.6732 H         1 UNK         0.0600 
    233 H233       -1.5745  -19.7448  -58.3840 H         1 UNK         0.0600 
    234 H234       -0.7065  -20.8619  -57.3456 H         1 UNK         0.0600 
    235 H235       -5.1232  -21.2816  -55.9194 H         1 UNK         0.3000 
    236 H236       -7.0944  -20.3531  -55.6731 H         1 UNK         0.0600 
    237 H237       -8.2400  -19.3071  -57.5841 H         1 UNK         0.0600 
    238 H238       -6.7166  -19.0617  -58.4250 H         1 UNK         0.0600 
    239 H239       -7.3170  -20.6942  -58.1370 H         1 UNK         0.0600 
    240 H240       -5.0767  -19.1338  -54.3084 H         1 UNK         0.3000 
    241 H241       -5.0331  -16.3212  -54.5036 H         1 UNK         0.0600 
    242 H242       -8.4344  -16.7584  -52.4174 H         1 UNK         0.3800 
    243 H243       -7.7747  -18.0520  -53.3816 H         1 UNK         0.3800 
    244 H244       -3.8183  -16.3708  -52.3684 H         1 UNK         0.0800 
    245 H245       -3.2011  -17.5469  -53.4821 H         1 UNK         0.0800 
    246 H246       -4.4224  -16.9206  -49.9639 H         1 UNK         0.0800 
    247 H247       -3.9883  -18.4622  -49.2644 H         1 UNK         0.0800 
@<TRIPOS>BOND
     1    1    2 1    
     2    1  127 1    
     3    1  128 1    
     4    1  129 1    
     5    2    3 2    
     6    2    4 am   BACKBONE|DICT|INTERRES
     7    4    5 1    
     8    4  130 1    
     9    5    6 1    
    10    5   65 1    
    11    5  131 1    
    12    6    7 1    
    13    6  132 1    
    14    6  133 1    
    15    7    8 1    
    16    8    9 1    
    17    8  134 1    
    18    8  135 1    
    19    9   10 ar   
    20    9   14 ar   
    21   10   11 ar   
    22   10  136 1    
    23   11   12 ar   
    24   11  126 1    
    25   12   13 ar   
    26   12  137 1    
    27   13   14 ar   
    28   13   15 1    
    29   14  138 1    
    30   15   16 1    
    31   15  139 1    
    32   15  140 1    
    33   16   17 1    
    34   17   18 1    
    35   17  141 1    
    36   17  142 1    
    37   18   19 1    
    38   18   67 1    
    39   18  143 1    
    40   19   20 am   BACKBONE|DICT|INTERRES
    41   19  144 1    
    42   20   21 2    
    43   20   22 1    
    44   22   23 1    
    45   22   24 1    
    46   22  145 1    
    47   23  146 1    
    48   23  147 1    
    49   23  148 1    
    50   24   25 am   BACKBONE|DICT|INTERRES
    51   24  149 1    
    52   25   26 2    
    53   25   27 1    
    54   27   28 1    
    55   27   29 1    
    56   27  150 1    
    57   28  151 1    
    58   28  152 1    
    59   28  153 1    
    60   29   30 am   BACKBONE|DICT|INTERRES
    61   29  154 1    
    62   30   31 2    
    63   30   32 1    
    64   32   33 1    
    65   32   34 1    
    66   32  155 1    
    67   33  156 1    
    68   33  157 1    
    69   33  158 1    
    70   34   35 am   BACKBONE|DICT|INTERRES
    71   34  159 1    
    72   35   36 2    
    73   35   37 1    
    74   37   38 1    
    75   37   39 1    
    76   37  160 1    
    77   38  161 1    
    78   38  162 1    
    79   38  163 1    
    80   39   40 am   BACKBONE|DICT|INTERRES
    81   39  164 1    
    82   40   41 2    
    83   40   42 1    
    84   42   43 1    
    85   42   44 1    
    86   42  165 1    
    87   43  166 1    
    88   43  167 1    
    89   43  168 1    
    90   44   45 am   BACKBONE|DICT|INTERRES
    91   44  169 1    
    92   45   46 2    
    93   45   47 1    
    94   47   48 1    
    95   47   49 1    
    96   47  170 1    
    97   48  171 1    
    98   48  172 1    
    99   48  173 1    
   100   49   50 am   BACKBONE|DICT|INTERRES
   101   49  174 1    
   102   50   51 2    
   103   50   52 1    
   104   52   53 1    
   105   52   54 1    
   106   52  175 1    
   107   53  176 1    
   108   53  177 1    
   109   53  178 1    
   110   54   55 am   BACKBONE|DICT|INTERRES
   111   54  179 1    
   112   55   56 2    
   113   55   57 1    
   114   57   58 1    
   115   57   59 1    
   116   57  180 1    
   117   58  181 1    
   118   58  182 1    
   119   58  183 1    
   120   59   60 am   BACKBONE|DICT|INTERRES
   121   59  184 1    
   122   60   61 2    
   123   60   62 1    
   124   62   63 1    
   125   62   64 1    
   126   62  185 1    
   127   63  186 1    
   128   63  187 1    
   129   63  188 1    
   130   64   65 am   BACKBONE|DICT|INTERRES
   131   64  189 1    
   132   65   66 2    
   133   67   68 2    
   134   67   69 am   BACKBONE|DICT|INTERRES
   135   69   70 1    
   136   69  190 1    
   137   70   71 1    
   138   70   72 1    
   139   70  191 1    
   140   71  192 1    
   141   71  193 1    
   142   71  194 1    
   143   72   73 2    
   144   72   74 am   BACKBONE|DICT|INTERRES
   145   74   75 1    
   146   74  195 1    
   147   75   76 1    
   148   75   77 1    
   149   75  196 1    
   150   76  197 1    
   151   76  198 1    
   152   76  199 1    
   153   77   78 2    
   154   77   79 am   BACKBONE|DICT|INTERRES
   155   79   80 1    
   156   79  200 1    
   157   80   81 1    
   158   80   82 1    
   159   80  201 1    
   160   81  202 1    
   161   81  203 1    
   162   81  204 1    
   163   82   83 2    
   164   82   84 am   BACKBONE|DICT|INTERRES
   165   84   85 1    
   166   84  205 1    
   167   85   86 1    
   168   85   87 1    
   169   85  206 1    
   170   86  207 1    
   171   86  208 1    
   172   86  209 1    
   173   87   88 2    
   174   87   89 am   BACKBONE|DICT|INTERRES
   175   89   90 1    
   176   89  210 1    
   177   90   91 1    
   178   90   92 1    
   179   90  211 1    
   180   91  212 1    
   181   91  213 1    
   182   91  214 1    
   183   92   93 2    
   184   92   94 am   BACKBONE|DICT|INTERRES
   185   94   95 1    
   186   94  215 1    
   187   95   96 1    
   188   95   97 1    
   189   95  216 1    
   190   96  217 1    
   191   96  218 1    
   192   96  219 1    
   193   97   98 2    
   194   97   99 am   BACKBONE|DICT|INTERRES
   195   99  100 1    
   196   99  220 1    
   197  100  101 1    
   198  100  102 1    
   199  100  221 1    
   200  101  222 1    
   201  101  223 1    
   202  101  224 1    
   203  102  103 2    
   204  102  104 am   BACKBONE|DICT|INTERRES
   205  104  105 1    
   206  104  225 1    
   207  105  106 1    
   208  105  107 1    
   209  105  226 1    
   210  106  227 1    
   211  106  228 1    
   212  106  229 1    
   213  107  108 2    
   214  107  109 am   BACKBONE|DICT|INTERRES
   215  109  110 1    
   216  109  230 1    
   217  110  111 1    
   218  110  112 1    
   219  110  231 1    
   220  111  232 1    
   221  111  233 1    
   222  111  234 1    
   223  112  113 2    
   224  112  114 am   BACKBONE|DICT|INTERRES
   225  114  115 1    
   226  114  235 1    
   227  115  116 1    
   228  115  117 1    
   229  115  236 1    
   230  116  237 1    
   231  116  238 1    
   232  116  239 1    
   233  117  118 2    
   234  117  119 am   BACKBONE|DICT|INTERRES
   235  119  120 1    
   236  119  240 1    
   237  120  121 1    
   238  120  124 1    
   239  120  241 1    
   240  121  122 am   BACKBONE|DICT|INTERRES
   241  121  123 2    
   242  122  242 1    
   243  122  243 1    
   244  124  125 1    
   245  124  244 1    
   246  124  245 1    
   247  125  126 1    
   248  126  246 1    
   249  126  247 1    
@<TRIPOS>SUBSTRUCTURE
     1 UNK         1 GROUP             0       ****    0 ROOT    
