@<TRIPOS>MOLECULE
3R540
247   249    1
SMALL
USER_CHARGES


@<TRIPOS>ATOM
      1 CA         -1.8661  -11.5399  -44.8450 C.3       0 UNK        -0.1800 
      2 C          -0.5595  -11.1409  -45.5174 C.2       0 UNK         0.5000 
      3 O          -0.4900  -10.0852  -46.1473 O.2       0 UNK        -0.5000 
      4 N           0.4707  -11.9804  -45.3905 N.am      1 UNK        -0.5000 
      5 CA          1.8022  -11.7864  -45.9530 C.3       1 UNK         0.1400 
      6 C6          1.8841  -12.1479  -47.4607 C.3       23 UNK        -0.0398 
      7 S7          1.2195  -13.7973  -47.8758 S.3       23 UNK        -0.2404 
      8 C8          1.5228  -13.8523  -49.6653 C.3       23 UNK        -0.0205 
      9 C9          1.0962  -15.1893  -50.2509 C.ar      23 UNK        -0.0193 
     10 C10         0.0050  -15.2761  -51.1206 C.ar      23 UNK        -0.1150 
     11 C11        -0.3605  -16.5070  -51.6741 C.ar      23 UNK        -0.0193 
     12 C12         0.3700  -17.6523  -51.3485 C.ar      23 UNK        -0.1150 
     13 C13         1.4429  -17.5880  -50.4500 C.ar      23 UNK        -0.0193 
     14 C14         1.8058  -16.3469  -49.9225 C.ar      23 UNK        -0.1150 
     15 C15         2.2418  -18.8216  -50.0271 C.3       23 UNK        -0.0205 
     16 S16         1.3718  -20.4171  -50.1978 S.3       23 UNK        -0.2404 
     17 C17        -0.1305  -20.1519  -49.1949 C.3       23 UNK        -0.0398 
     18 CA         -0.3785  -21.3316  -48.2241 C.3       11 UNK         0.1400 
     19 N           0.2389  -21.1083  -46.9135 N.am      11 UNK        -0.5000 
     20 C           0.4986  -22.0817  -46.0304 C.2       10 UNK         0.5000 
     21 O           0.2485  -23.2698  -46.2311 O.2       10 UNK        -0.5000 
     22 CA          1.1100  -21.6552  -44.6840 C.3       10 UNK         0.1400 
     23 CB          2.6080  -21.3472  -44.8298 C.3       10 UNK        -0.1800 
     24 N           0.4185  -20.5059  -44.1007 N.am      10 UNK        -0.5000 
     25 C          -0.8450  -20.5373  -43.6524 C.2       9 UNK         0.5000 
     26 O          -1.5408  -21.5531  -43.6387 O.2       9 UNK        -0.5000 
     27 CA         -1.4444  -19.2081  -43.1582 C.3       9 UNK         0.1400 
     28 CB         -1.1023  -18.9829  -41.6780 C.3       9 UNK        -0.1800 
     29 N          -1.0099  -18.0504  -43.9414 N.am      9 UNK        -0.5000 
     30 C          -1.2801  -17.8635  -45.2416 C.2       8 UNK         0.5000 
     31 O          -1.9360  -18.6474  -45.9236 O.2       8 UNK        -0.5000 
     32 CA         -0.6561  -16.6277  -45.9109 C.3       8 UNK         0.1400 
     33 CB         -1.3929  -15.3442  -45.4996 C.3       8 UNK        -0.1800 
     34 N           0.7688  -16.5073  -45.6100 N.am      8 UNK        -0.5000 
     35 C           1.6939  -17.4179  -45.9451 C.2       7 UNK         0.5000 
     36 O           1.4517  -18.4454  -46.5782 O.2       7 UNK        -0.5000 
     37 CA          3.1176  -17.1672  -45.4300 C.3       7 UNK         0.1400 
     38 CB          3.9222  -16.3089  -46.4152 C.3       7 UNK        -0.1800 
     39 N           3.1004  -16.5420  -44.1068 N.am      7 UNK        -0.5000 
     40 C           2.8592  -17.2207  -42.9769 C.2       6 UNK         0.5000 
     41 O           2.6486  -18.4337  -42.9411 O.2       6 UNK        -0.5000 
     42 CA          2.8145  -16.4077  -41.6722 C.3       6 UNK         0.1400 
     43 CB          4.2338  -16.1508  -41.1424 C.3       6 UNK        -0.1800 
     44 N           2.0991  -15.1372  -41.8070 N.am      6 UNK        -0.5000 
     45 C           0.7793  -15.0410  -42.0223 C.2       5 UNK         0.5000 
     46 O           0.0622  -16.0225  -42.2146 O.2       5 UNK        -0.5000 
     47 CA          0.1456  -13.6373  -42.0085 C.3       5 UNK         0.1400 
     48 CB         -1.3394  -13.6676  -41.5864 C.3       5 UNK        -0.1800 
     49 N           0.8951  -12.7161  -41.1554 N.am      5 UNK        -0.5000 
     50 C           0.8315  -11.3794  -41.2241 C.2       4 UNK         0.5000 
     51 O           0.1463  -10.7613  -42.0385 O.2       4 UNK        -0.5000 
     52 CA          1.7194  -10.6077  -40.2408 C.3       4 UNK         0.1400 
     53 CB          1.2504  -10.7832  -38.7844 C.3       4 UNK        -0.1800 
     54 N           3.0888  -11.0688  -40.4125 N.am      4 UNK        -0.5000 
     55 C           4.2069  -10.4418  -40.0475 C.2       3 UNK         0.5000 
     56 O           4.2288   -9.3861  -39.4137 O.2       3 UNK        -0.5000 
     57 CA          5.5302  -11.0936  -40.4997 C.3       3 UNK         0.1400 
     58 CB          5.8754  -12.3168  -39.6274 C.3       3 UNK        -0.1800 
     59 N           5.5839  -11.4245  -41.9345 N.am      3 UNK        -0.5000 
     60 C           4.8602  -12.3208  -42.6212 C.2       2 UNK         0.5000 
     61 O           3.9939  -13.0352  -42.1121 O.2       2 UNK        -0.5000 
     62 CA          5.1554  -12.4210  -44.1288 C.3       2 UNK         0.1400 
     63 CB          5.6542  -13.8244  -44.5102 C.3       2 UNK        -0.1800 
     64 N           4.0163  -11.9990  -44.9533 N.am      2 UNK        -0.5000 
     65 C           2.8086  -12.5686  -45.0892 C.2       1 UNK         0.5000 
     66 O           2.4678  -13.6435  -44.5834 O.2       1 UNK        -0.5000 
     67 C          -1.8805  -21.6730  -48.1349 C.2       11 UNK         0.5000 
     68 O          -2.3776  -22.3635  -49.0225 O.2       11 UNK        -0.5000 
     69 N          -2.5775  -21.2055  -47.0880 N.am      12 UNK        -0.5000 
     70 CA         -3.9982  -21.4749  -46.8387 C.3       12 UNK         0.1400 
     71 CB         -4.5016  -20.5843  -45.6928 C.3       12 UNK        -0.1800 
     72 C          -4.3174  -22.9528  -46.5386 C.2       12 UNK         0.5000 
     73 O          -5.4641  -23.3670  -46.7255 O.2       12 UNK        -0.5000 
     74 N          -3.3119  -23.7177  -46.0898 N.am      13 UNK        -0.5000 
     75 CA         -3.3944  -25.1500  -45.8048 C.3       13 UNK         0.1400 
     76 CB         -2.0323  -25.6337  -45.2868 C.3       13 UNK        -0.1800 
     77 C          -3.8291  -25.9805  -47.0283 C.2       13 UNK         0.5000 
     78 O          -3.5352  -25.6080  -48.1671 O.2       13 UNK        -0.5000 
     79 N          -4.5298  -27.0913  -46.7590 N.am      14 UNK        -0.5000 
     80 CA         -5.1120  -28.0155  -47.7404 C.3       14 UNK         0.1400 
     81 CB         -4.0036  -28.7862  -48.4892 C.3       14 UNK        -0.1800 
     82 C          -6.1097  -27.3197  -48.6919 C.2       14 UNK         0.5000 
     83 O          -6.1062  -27.5919  -49.8925 O.2       14 UNK        -0.5000 
     84 N          -6.9262  -26.4133  -48.1310 N.am      15 UNK        -0.5000 
     85 CA         -7.9177  -25.5742  -48.8131 C.3       15 UNK         0.1400 
     86 CB         -9.0834  -26.4336  -49.3469 C.3       15 UNK        -0.1800 
     87 C          -7.2723  -24.6940  -49.9015 C.2       15 UNK         0.5000 
     88 O          -7.6086  -24.8161  -51.0802 O.2       15 UNK        -0.5000 
     89 N          -6.3192  -23.8514  -49.4796 N.am      16 UNK        -0.5000 
     90 CA         -5.5068  -22.9618  -50.3164 C.3       16 UNK         0.1400 
     91 CB         -6.3683  -21.8354  -50.9238 C.3       16 UNK        -0.1800 
     92 C          -4.6803  -23.7316  -51.3660 C.2       16 UNK         0.5000 
     93 O          -4.6935  -23.3746  -52.5475 O.2       16 UNK        -0.5000 
     94 N          -4.0083  -24.7998  -50.9097 N.am      17 UNK        -0.5000 
     95 CA         -3.2040  -25.7407  -51.6934 C.3       17 UNK         0.1400 
     96 CB         -1.9116  -25.0554  -52.1845 C.3       17 UNK        -0.1800 
     97 C          -4.0146  -26.3938  -52.8325 C.2       17 UNK         0.5000 
     98 O          -3.5771  -26.3859  -53.9830 O.2       17 UNK        -0.5000 
     99 N          -5.2037  -26.9099  -52.4868 N.am      18 UNK        -0.5000 
    100 CA        -6.2358  -27.4451  -53.3805 C.3       18 UNK         0.1400 
    101 CB        -5.7569  -28.7441  -54.0618 C.3       18 UNK        -0.1800 
    102 C         -6.7554  -26.3846  -54.3753 C.2       18 UNK         0.5000 
    103 O         -6.9076  -26.6691  -55.5649 O.2       18 UNK        -0.5000 
    104 N         -7.0068  -25.1752  -53.8516 N.am      19 UNK        -0.5000 
    105 CA        -7.4465  -23.9624  -54.5467 C.3       19 UNK         0.1400 
    106 CB        -8.9136  -24.1089  -54.9997 C.3       19 UNK        -0.1800 
    107 C         -6.4960  -23.5386  -55.6871 C.2       19 UNK         0.5000 
    108 O         -6.9570  -23.1796  -56.7730 O.2       19 UNK        -0.5000 
    109 N         -5.1840  -23.6055  -55.4265 N.am      20 UNK        -0.5000 
    110 CA        -4.1327  -23.3794  -56.4193 C.3       20 UNK         0.1400 
    111 CB        -3.7484  -24.7169  -57.0786 C.3       20 UNK        -0.1800 
    112 C         -2.9077  -22.6345  -55.8571 C.2       20 UNK         0.5000 
    113 O         -1.9020  -22.5417  -56.5621 O.2       20 UNK        -0.5000 
    114 N         -2.9954  -22.0934  -54.6305 N.am      21 UNK        -0.5000 
    115 CA        -1.9316  -21.3036  -53.9961 C.3       21 UNK         0.1400 
    116 CB        -2.3237  -20.9653  -52.5494 C.3       21 UNK        -0.1800 
    117 C         -1.5741  -20.0236  -54.7795 C.2       21 UNK         0.5000 
    118 O         -0.3952  -19.7790  -55.0372 O.2       21 UNK        -0.5000 
    119 N         -2.6057  -19.2651  -55.1712 N.am      22 UNK        -0.5000 
    120 CA        -2.5213  -18.0808  -56.0471 C.3       22 UNK         0.1400 
    121 C         -3.5794  -18.1074  -57.1918 C.2       22 UNK         0.5000 
    122 N         -4.2917  -19.2045  -57.4221 N.am      22 UNK        -0.7600 
    123 O         -3.7494  -17.1228  -57.9057 O.2       22 UNK        -0.5000 
    124 C124       -2.5593  -16.7472  -55.2472 C.3       23 UNK        -0.0398 
    125 S125       -1.0082  -16.4142  -54.3468 S.3       23 UNK        -0.2404 
    126 C126       -1.5436  -16.6096  -52.6229 C.3       23 UNK        -0.0205 
    127 H127       -2.6801  -11.5331  -45.5698 H         1 UNK         0.0600 
    128 H128       -2.1074  -10.8345  -44.0498 H         1 UNK         0.0600 
    129 H129       -1.8111  -12.5364  -44.4080 H         1 UNK         0.0600 
    130 H130        0.3849  -12.8325  -44.8565 H         1 UNK         0.3000 
    131 H131        2.0526  -10.7284  -45.8474 H         1 UNK         0.0600 
    132 H132        1.3227  -11.4100  -48.0353 H         1 UNK         0.0800 
    133 H133        2.9137  -12.0796  -47.8161 H         1 UNK         0.0800 
    134 H134        0.9908  -13.0305  -50.1470 H         1 UNK         0.0800 
    135 H135        2.5848  -13.6963  -49.8603 H         1 UNK         0.0800 
    136 H136       -0.5536  -14.3866  -51.3761 H         1 UNK         0.1150 
    137 H137        0.0901  -18.5933  -51.7979 H         1 UNK         0.1150 
    138 H138        2.6418  -16.2770  -49.2424 H         1 UNK         0.1150 
    139 H139        3.1546  -18.8614  -50.6223 H         1 UNK         0.0800 
    140 H140        2.5564  -18.7187  -48.9878 H         1 UNK         0.0800 
    141 H141       -0.9526  -20.0274  -49.9004 H         1 UNK         0.0800 
    142 H142       -0.0727  -19.2068  -48.6528 H         1 UNK         0.0800 
    143 H143        0.0829  -22.2263  -48.6492 H         1 UNK         0.0600 
    144 H144        0.5111  -20.1540  -46.6931 H         1 UNK         0.3000 
    145 H145        1.0071  -22.4938  -43.9920 H         1 UNK         0.0600 
    146 H146        3.1453  -22.2097  -45.2257 H         1 UNK         0.0600 
    147 H147        2.7876  -20.5121  -45.5063 H         1 UNK         0.0600 
    148 H148        3.0550  -21.0996  -43.8668 H         1 UNK         0.0600 
    149 H149        0.9332  -19.6363  -44.0534 H         1 UNK         0.3000 
    150 H150       -2.5299  -19.2809  -43.2487 H         1 UNK         0.0600 
    151 H151       -1.4198  -19.8298  -41.0683 H         1 UNK         0.0600 
    152 H152       -1.6034  -18.0964  -41.2889 H         1 UNK         0.0600 
    153 H153       -0.0293  -18.8525  -41.5298 H         1 UNK         0.0600 
    154 H154       -0.4850  -17.3399  -43.4366 H         1 UNK         0.3000 
    155 H155       -0.7570  -16.7457  -46.9921 H         1 UNK         0.0600 
    156 H156       -1.0218  -14.4815  -46.0509 H         1 UNK         0.0600 
    157 H157       -1.2841  -15.1375  -44.4361 H         1 UNK         0.0600 
    158 H158       -2.4601  -15.4243  -45.7098 H         1 UNK         0.0600 
    159 H159        1.0681  -15.6928  -45.0937 H         1 UNK         0.3000 
    160 H160        3.6174  -18.1353  -45.3549 H         1 UNK         0.0600 
    161 H161        3.5011  -15.3098  -46.5253 H         1 UNK         0.0600 
    162 H162        3.9439  -16.7710  -47.4020 H         1 UNK         0.0600 
    163 H163        4.9570  -16.2077  -46.0904 H         1 UNK         0.0600 
    164 H164        3.1704  -15.5299  -44.0711 H         1 UNK         0.3000 
    165 H165        2.2848  -17.0081  -40.9294 H         1 UNK         0.0600 
    166 H166        4.2111  -15.6017  -40.2011 H         1 UNK         0.0600 
    167 H167        4.7564  -17.0904  -40.9595 H         1 UNK         0.0600 
    168 H168        4.8325  -15.5770  -41.8501 H         1 UNK         0.0600 
    169 H169        2.6733  -14.2970  -41.8154 H         1 UNK         0.3000 
    170 H170        0.2021  -13.2771  -43.0338 H         1 UNK         0.0600 
    171 H171       -1.9244  -14.3290  -42.2260 H         1 UNK         0.0600 
    172 H172       -1.4524  -14.0189  -40.5604 H         1 UNK         0.0600 
    173 H173       -1.7964  -12.6805  -41.6535 H         1 UNK         0.0600 
    174 H174        1.4768  -13.1470  -40.4502 H         1 UNK         0.3000 
    175 H175        1.6698   -9.5489  -40.5034 H         1 UNK         0.0600 
    176 H176        1.8288  -10.1573  -38.1049 H         1 UNK         0.0600 
    177 H177        0.2037  -10.4969  -38.6755 H         1 UNK         0.0600 
    178 H178        1.3470  -11.8160  -38.4482 H         1 UNK         0.0600 
    179 H179        3.2101  -11.8934  -40.9988 H         1 UNK         0.3000 
    180 H180        6.3134  -10.3510  -40.3392 H         1 UNK         0.0600 
    181 H181        5.1306  -13.1083  -39.7136 H         1 UNK         0.0600 
    182 H182        5.9309  -12.0384  -38.5744 H         1 UNK         0.0600 
    183 H183        6.8424  -12.7367  -39.9038 H         1 UNK         0.0600 
    184 H184        6.2475  -10.8701  -42.4579 H         1 UNK         0.3000 
    185 H185        5.9605  -11.7231  -44.3635 H         1 UNK         0.0600 
    186 H186        6.5934  -14.0515  -44.0049 H         1 UNK         0.0600 
    187 H187        4.9438  -14.5964  -44.2248 H         1 UNK         0.0600 
    188 H188        5.8318  -13.9036  -45.5825 H         1 UNK         0.0600 
    189 H189        4.1588  -11.1133  -45.4182 H         1 UNK         0.3000 
    190 H190       -2.1250  -20.5566  -46.4519 H         1 UNK         0.3000 
    191 H191       -4.5513  -21.1987  -47.7375 H         1 UNK         0.0600 
    192 H192       -4.4247  -19.5282  -45.9499 H         1 UNK         0.0600 
    193 H193       -5.5513  -20.7828  -45.4725 H         1 UNK         0.0600 
    194 H194       -3.9370  -20.7523  -44.7758 H         1 UNK         0.0600 
    195 H195       -2.3994  -23.2936  -45.9977 H         1 UNK         0.3000 
    196 H196       -4.1357  -25.2802  -45.0140 H         1 UNK         0.0600 
    197 H197       -2.0761  -26.6812  -44.9860 H         1 UNK         0.0600 
    198 H198       -1.7105  -25.0583  -44.4182 H         1 UNK         0.0600 
    199 H199       -1.2603  -25.5452  -46.0522 H         1 UNK         0.0600 
    200 H200       -4.7169  -27.3162  -45.7914 H         1 UNK         0.3000 
    201 H201       -5.6931  -28.7444  -47.1739 H         1 UNK         0.0600 
    202 H202       -3.3289  -29.2819  -47.7914 H         1 UNK         0.0600 
    203 H203       -3.4067  -28.1291  -49.1218 H         1 UNK         0.0600 
    204 H204       -4.4292  -29.5583  -49.1311 H         1 UNK         0.0600 
    205 H205       -6.8187  -26.2391  -47.1418 H         1 UNK         0.3000 
    206 H206       -8.3249  -24.8946  -48.0630 H         1 UNK         0.0600 
    207 H207       -9.5426  -27.0145  -48.5473 H         1 UNK         0.0600 
    208 H208       -9.8622  -25.8051  -49.7804 H         1 UNK         0.0600 
    209 H209       -8.7583  -27.1288  -50.1216 H         1 UNK         0.0600 
    210 H210       -6.0903  -23.8413  -48.4889 H         1 UNK         0.3000 
    211 H211       -4.7893  -22.4894  -49.6519 H         1 UNK         0.0600 
    212 H212       -7.1175  -22.2209  -51.6145 H         1 UNK         0.0600 
    213 H213       -5.7499  -21.1255  -51.4743 H         1 UNK         0.0600 
    214 H214       -6.8876  -21.2765  -50.1455 H         1 UNK         0.0600 
    215 H215       -4.0339  -24.9949  -49.9113 H         1 UNK         0.3000 
    216 H216       -2.9177  -26.5434  -51.0129 H         1 UNK         0.0600 
    217 H217       -1.2445  -25.7756  -52.6590 H         1 UNK         0.0600 
    218 H218       -1.3672  -24.6024  -51.3557 H         1 UNK         0.0600 
    219 H219       -2.1198  -24.2733  -52.9145 H         1 UNK         0.0600 
    220 H220       -5.4658  -26.9047  -51.5031 H         1 UNK         0.3000 
    221 H221       -7.0822  -27.7022  -52.7417 H         1 UNK         0.0600 
    222 H222       -4.9413  -28.5602  -54.7616 H         1 UNK         0.0600 
    223 H223       -5.4111  -29.4696  -53.3256 H         1 UNK         0.0600 
    224 H224       -6.5676  -29.2114  -54.6217 H         1 UNK         0.0600 
    225 H225       -6.9024  -25.0680  -52.8458 H         1 UNK         0.3000 
    226 H226       -7.4088  -23.1601  -53.8096 H         1 UNK         0.0600 
    227 H227       -9.5581  -24.3751  -54.1619 H         1 UNK         0.0600 
    228 H228       -9.2913  -23.1732  -55.4136 H         1 UNK         0.0600 
    229 H229       -9.0254  -24.8761  -55.7664 H         1 UNK         0.0600 
    230 H230       -4.8878  -23.8889  -54.4968 H         1 UNK         0.3000 
    231 H231       -4.5187  -22.7258  -57.2039 H         1 UNK         0.0600 
    232 H232       -3.2709  -25.3908  -56.3684 H         1 UNK         0.0600 
    233 H233       -3.0517  -24.5644  -57.9037 H         1 UNK         0.0600 
    234 H234       -4.6232  -25.2249  -57.4850 H         1 UNK         0.0600 
    235 H235       -3.8228  -22.2679  -54.0715 H         1 UNK         0.3000 
    236 H236       -1.0343  -21.9252  -53.9614 H         1 UNK         0.0600 
    237 H237       -1.5891  -20.3006  -52.0970 H         1 UNK         0.0600 
    238 H238       -3.2936  -20.4702  -52.4947 H         1 UNK         0.0600 
    239 H239       -2.3674  -21.8625  -51.9323 H         1 UNK         0.0600 
    240 H240       -3.5374  -19.5391  -54.8960 H         1 UNK         0.3000 
    241 H241       -1.5717  -18.1149  -56.5844 H         1 UNK         0.0600 
    242 H242       -4.9659  -19.2002  -58.1719 H         1 UNK         0.3800 
    243 H243       -4.1340  -20.0476  -56.8986 H         1 UNK         0.3800 
    244 H244       -2.7038  -15.8947  -55.9126 H         1 UNK         0.0800 
    245 H245       -3.4084  -16.7359  -54.5624 H         1 UNK         0.0800 
    246 H246       -2.0358  -17.5761  -52.5019 H         1 UNK         0.0800 
    247 H247       -2.2877  -15.8485  -52.3829 H         1 UNK         0.0800 
@<TRIPOS>BOND
     1    1    2 1    
     2    1  127 1    
     3    1  128 1    
     4    1  129 1    
     5    2    3 2    
     6    2    4 am   BACKBONE|DICT|INTERRES
     7    4    5 1    
     8    4  130 1    
     9    5    6 1    
    10    5   65 1    
    11    5  131 1    
    12    6    7 1    
    13    6  132 1    
    14    6  133 1    
    15    7    8 1    
    16    8    9 1    
    17    8  134 1    
    18    8  135 1    
    19    9   10 ar   
    20    9   14 ar   
    21   10   11 ar   
    22   10  136 1    
    23   11   12 ar   
    24   11  126 1    
    25   12   13 ar   
    26   12  137 1    
    27   13   14 ar   
    28   13   15 1    
    29   14  138 1    
    30   15   16 1    
    31   15  139 1    
    32   15  140 1    
    33   16   17 1    
    34   17   18 1    
    35   17  141 1    
    36   17  142 1    
    37   18   19 1    
    38   18   67 1    
    39   18  143 1    
    40   19   20 am   BACKBONE|DICT|INTERRES
    41   19  144 1    
    42   20   21 2    
    43   20   22 1    
    44   22   23 1    
    45   22   24 1    
    46   22  145 1    
    47   23  146 1    
    48   23  147 1    
    49   23  148 1    
    50   24   25 am   BACKBONE|DICT|INTERRES
    51   24  149 1    
    52   25   26 2    
    53   25   27 1    
    54   27   28 1    
    55   27   29 1    
    56   27  150 1    
    57   28  151 1    
    58   28  152 1    
    59   28  153 1    
    60   29   30 am   BACKBONE|DICT|INTERRES
    61   29  154 1    
    62   30   31 2    
    63   30   32 1    
    64   32   33 1    
    65   32   34 1    
    66   32  155 1    
    67   33  156 1    
    68   33  157 1    
    69   33  158 1    
    70   34   35 am   BACKBONE|DICT|INTERRES
    71   34  159 1    
    72   35   36 2    
    73   35   37 1    
    74   37   38 1    
    75   37   39 1    
    76   37  160 1    
    77   38  161 1    
    78   38  162 1    
    79   38  163 1    
    80   39   40 am   BACKBONE|DICT|INTERRES
    81   39  164 1    
    82   40   41 2    
    83   40   42 1    
    84   42   43 1    
    85   42   44 1    
    86   42  165 1    
    87   43  166 1    
    88   43  167 1    
    89   43  168 1    
    90   44   45 am   BACKBONE|DICT|INTERRES
    91   44  169 1    
    92   45   46 2    
    93   45   47 1    
    94   47   48 1    
    95   47   49 1    
    96   47  170 1    
    97   48  171 1    
    98   48  172 1    
    99   48  173 1    
   100   49   50 am   BACKBONE|DICT|INTERRES
   101   49  174 1    
   102   50   51 2    
   103   50   52 1    
   104   52   53 1    
   105   52   54 1    
   106   52  175 1    
   107   53  176 1    
   108   53  177 1    
   109   53  178 1    
   110   54   55 am   BACKBONE|DICT|INTERRES
   111   54  179 1    
   112   55   56 2    
   113   55   57 1    
   114   57   58 1    
   115   57   59 1    
   116   57  180 1    
   117   58  181 1    
   118   58  182 1    
   119   58  183 1    
   120   59   60 am   BACKBONE|DICT|INTERRES
   121   59  184 1    
   122   60   61 2    
   123   60   62 1    
   124   62   63 1    
   125   62   64 1    
   126   62  185 1    
   127   63  186 1    
   128   63  187 1    
   129   63  188 1    
   130   64   65 am   BACKBONE|DICT|INTERRES
   131   64  189 1    
   132   65   66 2    
   133   67   68 2    
   134   67   69 am   BACKBONE|DICT|INTERRES
   135   69   70 1    
   136   69  190 1    
   137   70   71 1    
   138   70   72 1    
   139   70  191 1    
   140   71  192 1    
   141   71  193 1    
   142   71  194 1    
   143   72   73 2    
   144   72   74 am   BACKBONE|DICT|INTERRES
   145   74   75 1    
   146   74  195 1    
   147   75   76 1    
   148   75   77 1    
   149   75  196 1    
   150   76  197 1    
   151   76  198 1    
   152   76  199 1    
   153   77   78 2    
   154   77   79 am   BACKBONE|DICT|INTERRES
   155   79   80 1    
   156   79  200 1    
   157   80   81 1    
   158   80   82 1    
   159   80  201 1    
   160   81  202 1    
   161   81  203 1    
   162   81  204 1    
   163   82   83 2    
   164   82   84 am   BACKBONE|DICT|INTERRES
   165   84   85 1    
   166   84  205 1    
   167   85   86 1    
   168   85   87 1    
   169   85  206 1    
   170   86  207 1    
   171   86  208 1    
   172   86  209 1    
   173   87   88 2    
   174   87   89 am   BACKBONE|DICT|INTERRES
   175   89   90 1    
   176   89  210 1    
   177   90   91 1    
   178   90   92 1    
   179   90  211 1    
   180   91  212 1    
   181   91  213 1    
   182   91  214 1    
   183   92   93 2    
   184   92   94 am   BACKBONE|DICT|INTERRES
   185   94   95 1    
   186   94  215 1    
   187   95   96 1    
   188   95   97 1    
   189   95  216 1    
   190   96  217 1    
   191   96  218 1    
   192   96  219 1    
   193   97   98 2    
   194   97   99 am   BACKBONE|DICT|INTERRES
   195   99  100 1    
   196   99  220 1    
   197  100  101 1    
   198  100  102 1    
   199  100  221 1    
   200  101  222 1    
   201  101  223 1    
   202  101  224 1    
   203  102  103 2    
   204  102  104 am   BACKBONE|DICT|INTERRES
   205  104  105 1    
   206  104  225 1    
   207  105  106 1    
   208  105  107 1    
   209  105  226 1    
   210  106  227 1    
   211  106  228 1    
   212  106  229 1    
   213  107  108 2    
   214  107  109 am   BACKBONE|DICT|INTERRES
   215  109  110 1    
   216  109  230 1    
   217  110  111 1    
   218  110  112 1    
   219  110  231 1    
   220  111  232 1    
   221  111  233 1    
   222  111  234 1    
   223  112  113 2    
   224  112  114 am   BACKBONE|DICT|INTERRES
   225  114  115 1    
   226  114  235 1    
   227  115  116 1    
   228  115  117 1    
   229  115  236 1    
   230  116  237 1    
   231  116  238 1    
   232  116  239 1    
   233  117  118 2    
   234  117  119 am   BACKBONE|DICT|INTERRES
   235  119  120 1    
   236  119  240 1    
   237  120  121 1    
   238  120  124 1    
   239  120  241 1    
   240  121  122 am   BACKBONE|DICT|INTERRES
   241  121  123 2    
   242  122  242 1    
   243  122  243 1    
   244  124  125 1    
   245  124  244 1    
   246  124  245 1    
   247  125  126 1    
   248  126  246 1    
   249  126  247 1    
@<TRIPOS>SUBSTRUCTURE
     1 UNK         1 GROUP             0       ****    0 ROOT    
