@<TRIPOS>MOLECULE
3R540
247   249    1
SMALL
USER_CHARGES


@<TRIPOS>ATOM
      1 CA         -6.8189  -14.6007  -50.2245 C.3       0 UNK        -0.1800 
      2 C          -6.0028  -14.4980  -48.9444 C.2       0 UNK         0.5000 
      3 O          -6.3144  -13.6724  -48.0858 O.2       0 UNK        -0.5000 
      4 N          -4.9578  -15.3276  -48.8276 N.am      1 UNK        -0.5000 
      5 CA         -3.9936  -15.3730  -47.7191 C.3       1 UNK         0.1400 
      6 C6         -4.6077  -15.7685  -46.3418 C.3       23 UNK        -0.0398 
      7 S7         -5.6304  -17.2827  -46.3496 S.3       23 UNK        -0.2404 
      8 C8         -4.3907  -18.5988  -46.0923 C.3       23 UNK        -0.0205 
      9 C9         -3.4655  -18.7552  -47.2903 C.ar      23 UNK        -0.0193 
     10 C10        -4.0019  -18.9136  -48.5705 C.ar      23 UNK        -0.1150 
     11 C11        -3.1724  -18.9421  -49.6932 C.ar      23 UNK        -0.0193 
     12 C12        -1.7869  -18.9178  -49.5124 C.ar      23 UNK        -0.1150 
     13 C13        -1.2315  -18.8190  -48.2351 C.ar      23 UNK        -0.0193 
     14 C14        -2.0779  -18.7087  -47.1292 C.ar      23 UNK        -0.1150 
     15 C15         0.2808  -18.8009  -48.0675 C.3       23 UNK        -0.0205 
     16 S16         0.9257  -20.4254  -47.5441 S.3       23 UNK        -0.2404 
     17 C17         0.9490  -20.2400  -45.7277 C.3       23 UNK        -0.0398 
     18 CA          0.2861  -21.3861  -44.9255 C.3       11 UNK         0.1400 
     19 N           0.5721  -21.2317  -43.4960 N.am      11 UNK        -0.5000 
     20 C           0.2411  -22.0980  -42.5275 C.2       10 UNK         0.5000 
     21 O          -0.3054  -23.1826  -42.7386 O.2       10 UNK        -0.5000 
     22 CA          0.6074  -21.6774  -41.0858 C.3       10 UNK         0.1400 
     23 CB          0.5130  -22.8351  -40.0699 C.3       10 UNK        -0.1800 
     24 N           1.9144  -21.0156  -41.0031 N.am      10 UNK        -0.5000 
     25 C           3.1059  -21.5217  -41.3591 C.2       9 UNK         0.5000 
     26 O           3.2734  -22.6840  -41.7308 O.2       9 UNK        -0.5000 
     27 CA          4.3178  -20.5724  -41.3132 C.3       9 UNK         0.1400 
     28 CB          4.9684  -20.4494  -42.7025 C.3       9 UNK        -0.1800 
     29 N           3.9589  -19.2291  -40.8468 N.am      9 UNK        -0.5000 
     30 C           4.5013  -18.6215  -39.7842 C.2       8 UNK         0.5000 
     31 O           5.3411  -19.1447  -39.0505 O.2       8 UNK        -0.5000 
     32 CA          4.0496  -17.1801  -39.4875 C.3       8 UNK         0.1400 
     33 CB          4.9754  -16.1724  -40.1867 C.3       8 UNK        -0.1800 
     34 N           2.6625  -16.8898  -39.8556 N.am      8 UNK        -0.5000 
     35 C           1.5920  -17.3436  -39.1879 C.2       7 UNK         0.5000 
     36 O           1.6530  -18.1785  -38.2855 O.2       7 UNK        -0.5000 
     37 CA          0.2272  -16.7590  -39.5851 C.3       7 UNK         0.1400 
     38 CB          0.0719  -15.3319  -39.0356 C.3       7 UNK        -0.1800 
     39 N           0.0745  -16.7308  -41.0364 N.am      7 UNK        -0.5000 
     40 C          -0.6560  -17.6033  -41.7428 C.2       6 UNK         0.5000 
     41 O          -1.3397  -18.4941  -41.2391 O.2       6 UNK        -0.5000 
     42 CA         -0.5821  -17.4855  -43.2782 C.3       6 UNK         0.1400 
     43 CB         -1.6831  -16.5550  -43.8028 C.3       6 UNK        -0.1800 
     44 N           0.7136  -17.0041  -43.7641 N.am      6 UNK        -0.5000 
     45 C           1.8883  -17.6131  -43.5446 C.2       5 UNK         0.5000 
     46 O           1.9887  -18.7011  -42.9787 O.2       5 UNK        -0.5000 
     47 CA          3.1694  -16.8834  -43.9896 C.3       5 UNK         0.1400 
     48 CB          3.6263  -17.4091  -45.3582 C.3       5 UNK        -0.1800 
     49 N           3.0348  -15.4281  -44.0637 N.am      5 UNK        -0.5000 
     50 C           2.6261  -14.6072  -43.0842 C.2       4 UNK         0.5000 
     51 O           2.3571  -14.9840  -41.9424 O.2       4 UNK        -0.5000 
     52 CA          2.4248  -13.1279  -43.4667 C.3       4 UNK         0.1400 
     53 CB          3.6313  -12.2923  -43.0150 C.3       4 UNK        -0.1800 
     54 N           2.2007  -12.9179  -44.9034 N.am      4 UNK        -0.5000 
     55 C           1.1536  -13.3894  -45.5952 C.2       3 UNK         0.5000 
     56 O           0.2487  -14.0642  -45.0981 O.2       3 UNK        -0.5000 
     57 CA          1.1593  -13.1227  -47.1040 C.3       3 UNK         0.1400 
     58 CB          1.8258  -14.2898  -47.8554 C.3       3 UNK        -0.1800 
     59 N          -0.2141  -12.9560  -47.5613 N.am      3 UNK        -0.5000 
     60 C          -0.5937  -12.2934  -48.6580 C.2       2 UNK         0.5000 
     61 O           0.2055  -11.7552  -49.4268 O.2       2 UNK        -0.5000 
     62 CA         -2.1099  -12.2303  -48.9514 C.3       2 UNK         0.1400 
     63 CB         -2.4177  -11.6887  -50.3594 C.3       2 UNK        -0.1800 
     64 N          -2.7846  -13.5215  -48.7972 N.am      2 UNK        -0.5000 
     65 C          -3.1689  -14.0679  -47.6354 C.2       1 UNK         0.5000 
     66 O          -2.9026  -13.5684  -46.5408 O.2       1 UNK        -0.5000 
     67 C          -1.2332  -21.4751  -45.1919 C.2       11 UNK         0.5000 
     68 O          -2.0119  -20.7557  -44.5616 O.2       11 UNK        -0.5000 
     69 N          -1.6118  -22.3389  -46.1386 N.am      12 UNK        -0.5000 
     70 CA         -2.9813  -22.5562  -46.5921 C.3       12 UNK         0.1400 
     71 CB         -3.7446  -23.4520  -45.5964 C.3       12 UNK        -0.1800 
     72 C          -2.9335  -23.1356  -48.0135 C.2       12 UNK         0.5000 
     73 O          -3.5265  -24.1814  -48.2831 O.2       12 UNK        -0.5000 
     74 N          -2.2008  -22.4554  -48.9084 N.am      13 UNK        -0.5000 
     75 CA         -1.9063  -22.9079  -50.2752 C.3       13 UNK         0.1400 
     76 CB         -0.8869  -21.9590  -50.9189 C.3       13 UNK        -0.1800 
     77 C          -3.1376  -23.0609  -51.1913 C.2       13 UNK         0.5000 
     78 O          -3.0183  -23.6613  -52.2603 O.2       13 UNK        -0.5000 
     79 N          -4.2913  -22.5280  -50.7687 N.am      14 UNK        -0.5000 
     80 CA         -5.5914  -22.7245  -51.4087 C.3       14 UNK         0.1400 
     81 CB         -6.6109  -21.7442  -50.8069 C.3       14 UNK        -0.1800 
     82 C          -6.0967  -24.1728  -51.2690 C.2       14 UNK         0.5000 
     83 O          -6.7038  -24.6908  -52.2055 O.2       14 UNK        -0.5000 
     84 N          -5.8058  -24.8144  -50.1263 N.am      15 UNK        -0.5000 
     85 CA         -6.1485  -26.2136  -49.8556 C.3       15 UNK         0.1400 
     86 CB         -6.0804  -26.4749  -48.3432 C.3       15 UNK        -0.1800 
     87 C          -5.2341  -27.1883  -50.6194 C.2       15 UNK         0.5000 
     88 O          -5.6805  -28.2670  -51.0103 O.2       15 UNK        -0.5000 
     89 N          -3.9817  -26.7703  -50.8495 N.am      16 UNK        -0.5000 
     90 CA         -3.0032  -27.4696  -51.6850 C.3       16 UNK         0.1400 
     91 CB         -1.5975  -26.9672  -51.3175 C.3       16 UNK        -0.1800 
     92 C          -3.2567  -27.2806  -53.1957 C.2       16 UNK         0.5000 
     93 O          -2.6591  -27.9984  -53.9979 O.2       16 UNK        -0.5000 
     94 N          -4.1067  -26.3033  -53.5499 N.am      17 UNK        -0.5000 
     95 CA         -4.4372  -25.8349  -54.9009 C.3       17 UNK         0.1400 
     96 CB         -5.1236  -26.9446  -55.7240 C.3       17 UNK        -0.1800 
     97 C          -3.2399  -25.1908  -55.6347 C.2       17 UNK         0.5000 
     98 O          -3.2283  -25.1368  -56.8657 O.2       17 UNK        -0.5000 
     99 N          -2.2609  -24.6994  -54.8645 N.am      18 UNK        -0.5000 
    100 CA        -1.0804  -23.9914  -55.3548 C.3       18 UNK         0.1400 
    101 CB         0.0984  -24.2725  -54.4108 C.3       18 UNK        -0.1800 
    102 C         -1.3398  -22.4800  -55.4801 C.2       18 UNK         0.5000 
    103 O         -0.7755  -21.8461  -56.3718 O.2       18 UNK        -0.5000 
    104 N         -2.1996  -21.9413  -54.5981 N.am      19 UNK        -0.5000 
    105 CA        -2.7045  -20.5610  -54.5787 C.3       19 UNK         0.1400 
    106 CB        -3.6370  -20.3195  -55.7835 C.3       19 UNK        -0.1800 
    107 C         -1.6052  -19.4798  -54.4515 C.2       19 UNK         0.5000 
    108 O         -1.7650  -18.3738  -54.9731 O.2       19 UNK        -0.5000 
    109 N         -0.5236  -19.8135  -53.7317 N.am      20 UNK        -0.5000 
    110 CA         0.7309  -19.0566  -53.6127 C.3       20 UNK         0.1400 
    111 CB         1.6661  -19.8151  -52.6574 C.3       20 UNK        -0.1800 
    112 C          0.6066  -17.5839  -53.1677 C.2       20 UNK         0.5000 
    113 O          1.4520  -16.7696  -53.5400 O.2       20 UNK        -0.5000 
    114 N         -0.4390  -17.2710  -52.3956 N.am      21 UNK        -0.5000 
    115 CA        -0.7923  -15.9229  -51.9482 C.3       21 UNK         0.1400 
    116 CB        -0.3320  -15.7228  -50.4932 C.3       21 UNK        -0.1800 
    117 C         -2.3011  -15.6781  -52.1375 C.2       21 UNK         0.5000 
    118 O         -2.9134  -14.9663  -51.3384 O.2       21 UNK        -0.5000 
    119 N         -2.8743  -16.3039  -53.1739 N.am      22 UNK        -0.5000 
    120 CA        -4.2956  -16.2248  -53.5464 C.3       22 UNK         0.1400 
    121 C         -4.4952  -15.9687  -55.0650 C.2       22 UNK         0.5000 
    122 N         -3.5905  -16.3938  -55.9400 N.am      22 UNK        -0.7600 
    123 O         -5.4862  -15.3598  -55.4579 O.2       22 UNK        -0.5000 
    124 C124       -5.0932  -17.4819  -53.1075 C.3       23 UNK        -0.0398 
    125 S125       -5.0932  -17.7328  -51.3036 S.3       23 UNK        -0.2404 
    126 C126       -3.7652  -18.9648  -51.0961 C.3       23 UNK        -0.0205 
    127 H127       -7.6398  -15.3055  -50.0925 H         1 UNK         0.0600 
    128 H128       -6.2042  -14.9368  -51.0592 H         1 UNK         0.0600 
    129 H129       -7.2379  -13.6298  -50.4892 H         1 UNK         0.0600 
    130 H130       -4.7649  -15.9704  -49.5856 H         1 UNK         0.3000 
    131 H131       -3.2702  -16.1392  -47.9941 H         1 UNK         0.0600 
    132 H132       -3.8211  -15.8940  -45.5989 H         1 UNK         0.0800 
    133 H133       -5.2367  -14.9596  -45.9674 H         1 UNK         0.0800 
    134 H134       -4.9091  -19.5437  -45.9265 H         1 UNK         0.0800 
    135 H135       -3.8253  -18.3953  -45.1820 H         1 UNK         0.0800 
    136 H136       -5.0750  -18.9436  -48.6972 H         1 UNK         0.1150 
    137 H137       -1.1279  -18.9572  -50.3651 H         1 UNK         0.1150 
    138 H138       -1.6576  -18.5922  -46.1418 H         1 UNK         0.1150 
    139 H139        0.7563  -18.5359  -49.0132 H         1 UNK         0.0800 
    140 H140        0.5734  -18.0195  -47.3648 H         1 UNK         0.0800 
    141 H141        0.4956  -19.2890  -45.4581 H         1 UNK         0.0800 
    142 H142        1.9979  -20.1622  -45.4398 H         1 UNK         0.0800 
    143 H143        0.7450  -22.3274  -45.2351 H         1 UNK         0.0600 
    144 H144        1.0391  -20.3720  -43.2244 H         1 UNK         0.3000 
    145 H145       -0.1309  -20.9292  -40.7951 H         1 UNK         0.0600 
    146 H146        0.7625  -22.4973  -39.0641 H         1 UNK         0.0600 
    147 H147       -0.4989  -23.2402  -40.0333 H         1 UNK         0.0600 
    148 H148        1.1839  -23.6558  -40.3248 H         1 UNK         0.0600 
    149 H149        1.8937  -20.0493  -40.7132 H         1 UNK         0.3000 
    150 H150        5.0430  -21.0341  -40.6405 H         1 UNK         0.0600 
    151 H151        5.3210  -21.4184  -43.0578 H         1 UNK         0.0600 
    152 H152        5.8295  -19.7815  -42.6774 H         1 UNK         0.0600 
    153 H153        4.2675  -20.0658  -43.4437 H         1 UNK         0.0600 
    154 H154        3.2687  -18.7401  -41.4048 H         1 UNK         0.3000 
    155 H155        4.1465  -17.0268  -38.4104 H         1 UNK         0.0600 
    156 H156        6.0146  -16.3269  -39.8934 H         1 UNK         0.0600 
    157 H157        4.7130  -15.1474  -39.9235 H         1 UNK         0.0600 
    158 H158        4.9248  -16.2611  -41.2716 H         1 UNK         0.0600 
    159 H159        2.5301  -16.1892  -40.5812 H         1 UNK         0.3000 
    160 H160       -0.5480  -17.3785  -39.1290 H         1 UNK         0.0600 
    161 H161        0.8116  -14.6507  -39.4586 H         1 UNK         0.0600 
    162 H162        0.1905  -15.3154  -37.9515 H         1 UNK         0.0600 
    163 H163       -0.9167  -14.9314  -39.2605 H         1 UNK         0.0600 
    164 H164        0.6392  -16.0526  -41.5347 H         1 UNK         0.3000 
    165 H165       -0.7525  -18.4815  -43.6876 H         1 UNK         0.0600 
    166 H166       -1.6559  -16.4913  -44.8904 H         1 UNK         0.0600 
    167 H167       -2.6710  -16.9170  -43.5160 H         1 UNK         0.0600 
    168 H168       -1.5754  -15.5431  -43.4098 H         1 UNK         0.0600 
    169 H169        0.7102  -16.1022  -44.2257 H         1 UNK         0.3000 
    170 H170        3.9458  -17.1095  -43.2575 H         1 UNK         0.0600 
    171 H171        4.5667  -16.9500  -45.6636 H         1 UNK         0.0600 
    172 H172        3.7907  -18.4866  -45.3311 H         1 UNK         0.0600 
    173 H173        2.8869  -17.2087  -46.1349 H         1 UNK         0.0600 
    174 H174        3.2326  -15.0111  -44.9606 H         1 UNK         0.3000 
    175 H175        1.5406  -12.7730  -42.9332 H         1 UNK         0.0600 
    176 H176        3.8094  -12.4097  -41.9450 H         1 UNK         0.0600 
    177 H177        4.5438  -12.5887  -43.5338 H         1 UNK         0.0600 
    178 H178        3.4680  -11.2305  -43.2005 H         1 UNK         0.0600 
    179 H179        2.9058  -12.3821  -45.3894 H         1 UNK         0.3000 
    180 H180        1.7158  -12.2019  -47.2919 H         1 UNK         0.0600 
    181 H181        2.8465  -14.4517  -47.5073 H         1 UNK         0.0600 
    182 H182        1.2772  -15.2224  -47.7153 H         1 UNK         0.0600 
    183 H183        1.8791  -14.0916  -48.9259 H         1 UNK         0.0600 
    184 H184       -0.9266  -13.3339  -46.9418 H         1 UNK         0.3000 
    185 H185       -2.5387  -11.5300  -48.2319 H         1 UNK         0.0600 
    186 H186       -2.0142  -10.6843  -50.4926 H         1 UNK         0.0600 
    187 H187       -1.9877  -12.3233  -51.1354 H         1 UNK         0.0600 
    188 H188       -3.4924  -11.6305  -50.5333 H         1 UNK         0.0600 
    189 H189       -2.9936  -14.0182  -49.6602 H         1 UNK         0.3000 
    190 H190       -0.9073  -22.8780  -46.6240 H         1 UNK         0.3000 
    191 H191       -3.4947  -21.5958  -46.6592 H         1 UNK         0.0600 
    192 H192       -3.2650  -24.4251  -45.4847 H         1 UNK         0.0600 
    193 H193       -4.7687  -23.6245  -45.9295 H         1 UNK         0.0600 
    194 H194       -3.7997  -22.9915  -44.6099 H         1 UNK         0.0600 
    195 H195       -1.7587  -21.5950  -48.6147 H         1 UNK         0.3000 
    196 H196       -1.4432  -23.8926  -50.1911 H         1 UNK         0.0600 
    197 H197       -0.0621  -21.7322  -50.2432 H         1 UNK         0.0600 
    198 H198       -1.3517  -21.0231  -51.2202 H         1 UNK         0.0600 
    199 H199       -0.4537  -22.4033  -51.8132 H         1 UNK         0.0600 
    200 H200       -4.2901  -22.0462  -49.8823 H         1 UNK         0.3000 
    201 H201       -5.4890  -22.5056  -52.4739 H         1 UNK         0.0600 
    202 H202       -7.5978  -21.8887  -51.2485 H         1 UNK         0.0600 
    203 H203       -6.7118  -21.8776  -49.7292 H         1 UNK         0.0600 
    204 H204       -6.3292  -20.7083  -50.9908 H         1 UNK         0.0600 
    205 H205       -5.2436  -24.3482  -49.4230 H         1 UNK         0.3000 
    206 H206       -7.1751  -26.3897  -50.1842 H         1 UNK         0.0600 
    207 H207       -6.7373  -25.7991  -47.7955 H         1 UNK         0.0600 
    208 H208       -6.3939  -27.4933  -48.1104 H         1 UNK         0.0600 
    209 H209       -5.0694  -26.3480  -47.9547 H         1 UNK         0.0600 
    210 H210       -3.6990  -25.8820  -50.4618 H         1 UNK         0.3000 
    211 H211       -3.0552  -28.5387  -51.4690 H         1 UNK         0.0600 
    212 H212       -0.8312  -27.5259  -51.8564 H         1 UNK         0.0600 
    213 H213       -1.3981  -27.0887  -50.2526 H         1 UNK         0.0600 
    214 H214       -1.4672  -25.9143  -51.5680 H         1 UNK         0.0600 
    215 H215       -4.5321  -25.7736  -52.8024 H         1 UNK         0.3000 
    216 H216       -5.1651  -25.0338  -54.7649 H         1 UNK         0.0600 
    217 H217       -5.5197  -26.5488  -56.6598 H         1 UNK         0.0600 
    218 H218       -5.9605  -27.3793  -55.1775 H         1 UNK         0.0600 
    219 H219       -4.4331  -27.7491  -55.9780 H         1 UNK         0.0600 
    220 H220       -2.3926  -24.7259  -53.8597 H         1 UNK         0.3000 
    221 H221       -0.8136  -24.3654  -56.3456 H         1 UNK         0.0600 
    222 H222       -0.1381  -24.0153  -53.3794 H         1 UNK         0.0600 
    223 H223        0.3695  -25.3282  -54.4319 H         1 UNK         0.0600 
    224 H224        0.9824  -23.7038  -54.7022 H         1 UNK         0.0600 
    225 H225       -2.5930  -22.5622  -53.8988 H         1 UNK         0.3000 
    226 H226       -3.3117  -20.4804  -53.6772 H         1 UNK         0.0600 
    227 H227       -4.4233  -21.0730  -55.8291 H         1 UNK         0.0600 
    228 H228       -4.1267  -19.3476  -55.7225 H         1 UNK         0.0600 
    229 H229       -3.0914  -20.3484  -56.7272 H         1 UNK         0.0600 
    230 H230       -0.4956  -20.7523  -53.3654 H         1 UNK         0.3000 
    231 H231        1.1893  -19.0503  -54.6035 H         1 UNK         0.0600 
    232 H232        1.8539  -20.8303  -53.0080 H         1 UNK         0.0600 
    233 H233        1.2488  -19.8777  -51.6516 H         1 UNK         0.0600 
    234 H234        2.6337  -19.3175  -52.5790 H         1 UNK         0.0600 
    235 H235       -1.0933  -18.0008  -52.1646 H         1 UNK         0.3000 
    236 H236       -0.2862  -15.1817  -52.5697 H         1 UNK         0.0600 
    237 H237       -0.4132  -14.6752  -50.2101 H         1 UNK         0.0600 
    238 H238        0.7105  -16.0121  -50.3610 H         1 UNK         0.0600 
    239 H239       -0.9344  -16.2965  -49.7902 H         1 UNK         0.0600 
    240 H240       -2.2889  -16.8466  -53.7981 H         1 UNK         0.3000 
    241 H241       -4.7391  -15.3605  -53.0482 H         1 UNK         0.0600 
    242 H242       -3.7345  -16.2033  -56.9189 H         1 UNK         0.3800 
    243 H243       -2.8116  -16.9826  -55.6612 H         1 UNK         0.3800 
    244 H244       -6.1364  -17.3916  -53.4156 H         1 UNK         0.0800 
    245 H245       -4.7120  -18.3763  -53.5990 H         1 UNK         0.0800 
    246 H246       -4.1549  -19.9540  -51.3193 H         1 UNK         0.0800 
    247 H247       -2.9850  -18.7681  -51.8284 H         1 UNK         0.0800 
@<TRIPOS>BOND
     1    1    2 1    
     2    1  127 1    
     3    1  128 1    
     4    1  129 1    
     5    2    3 2    
     6    2    4 am   BACKBONE|DICT|INTERRES
     7    4    5 1    
     8    4  130 1    
     9    5    6 1    
    10    5   65 1    
    11    5  131 1    
    12    6    7 1    
    13    6  132 1    
    14    6  133 1    
    15    7    8 1    
    16    8    9 1    
    17    8  134 1    
    18    8  135 1    
    19    9   10 ar   
    20    9   14 ar   
    21   10   11 ar   
    22   10  136 1    
    23   11   12 ar   
    24   11  126 1    
    25   12   13 ar   
    26   12  137 1    
    27   13   14 ar   
    28   13   15 1    
    29   14  138 1    
    30   15   16 1    
    31   15  139 1    
    32   15  140 1    
    33   16   17 1    
    34   17   18 1    
    35   17  141 1    
    36   17  142 1    
    37   18   19 1    
    38   18   67 1    
    39   18  143 1    
    40   19   20 am   BACKBONE|DICT|INTERRES
    41   19  144 1    
    42   20   21 2    
    43   20   22 1    
    44   22   23 1    
    45   22   24 1    
    46   22  145 1    
    47   23  146 1    
    48   23  147 1    
    49   23  148 1    
    50   24   25 am   BACKBONE|DICT|INTERRES
    51   24  149 1    
    52   25   26 2    
    53   25   27 1    
    54   27   28 1    
    55   27   29 1    
    56   27  150 1    
    57   28  151 1    
    58   28  152 1    
    59   28  153 1    
    60   29   30 am   BACKBONE|DICT|INTERRES
    61   29  154 1    
    62   30   31 2    
    63   30   32 1    
    64   32   33 1    
    65   32   34 1    
    66   32  155 1    
    67   33  156 1    
    68   33  157 1    
    69   33  158 1    
    70   34   35 am   BACKBONE|DICT|INTERRES
    71   34  159 1    
    72   35   36 2    
    73   35   37 1    
    74   37   38 1    
    75   37   39 1    
    76   37  160 1    
    77   38  161 1    
    78   38  162 1    
    79   38  163 1    
    80   39   40 am   BACKBONE|DICT|INTERRES
    81   39  164 1    
    82   40   41 2    
    83   40   42 1    
    84   42   43 1    
    85   42   44 1    
    86   42  165 1    
    87   43  166 1    
    88   43  167 1    
    89   43  168 1    
    90   44   45 am   BACKBONE|DICT|INTERRES
    91   44  169 1    
    92   45   46 2    
    93   45   47 1    
    94   47   48 1    
    95   47   49 1    
    96   47  170 1    
    97   48  171 1    
    98   48  172 1    
    99   48  173 1    
   100   49   50 am   BACKBONE|DICT|INTERRES
   101   49  174 1    
   102   50   51 2    
   103   50   52 1    
   104   52   53 1    
   105   52   54 1    
   106   52  175 1    
   107   53  176 1    
   108   53  177 1    
   109   53  178 1    
   110   54   55 am   BACKBONE|DICT|INTERRES
   111   54  179 1    
   112   55   56 2    
   113   55   57 1    
   114   57   58 1    
   115   57   59 1    
   116   57  180 1    
   117   58  181 1    
   118   58  182 1    
   119   58  183 1    
   120   59   60 am   BACKBONE|DICT|INTERRES
   121   59  184 1    
   122   60   61 2    
   123   60   62 1    
   124   62   63 1    
   125   62   64 1    
   126   62  185 1    
   127   63  186 1    
   128   63  187 1    
   129   63  188 1    
   130   64   65 am   BACKBONE|DICT|INTERRES
   131   64  189 1    
   132   65   66 2    
   133   67   68 2    
   134   67   69 am   BACKBONE|DICT|INTERRES
   135   69   70 1    
   136   69  190 1    
   137   70   71 1    
   138   70   72 1    
   139   70  191 1    
   140   71  192 1    
   141   71  193 1    
   142   71  194 1    
   143   72   73 2    
   144   72   74 am   BACKBONE|DICT|INTERRES
   145   74   75 1    
   146   74  195 1    
   147   75   76 1    
   148   75   77 1    
   149   75  196 1    
   150   76  197 1    
   151   76  198 1    
   152   76  199 1    
   153   77   78 2    
   154   77   79 am   BACKBONE|DICT|INTERRES
   155   79   80 1    
   156   79  200 1    
   157   80   81 1    
   158   80   82 1    
   159   80  201 1    
   160   81  202 1    
   161   81  203 1    
   162   81  204 1    
   163   82   83 2    
   164   82   84 am   BACKBONE|DICT|INTERRES
   165   84   85 1    
   166   84  205 1    
   167   85   86 1    
   168   85   87 1    
   169   85  206 1    
   170   86  207 1    
   171   86  208 1    
   172   86  209 1    
   173   87   88 2    
   174   87   89 am   BACKBONE|DICT|INTERRES
   175   89   90 1    
   176   89  210 1    
   177   90   91 1    
   178   90   92 1    
   179   90  211 1    
   180   91  212 1    
   181   91  213 1    
   182   91  214 1    
   183   92   93 2    
   184   92   94 am   BACKBONE|DICT|INTERRES
   185   94   95 1    
   186   94  215 1    
   187   95   96 1    
   188   95   97 1    
   189   95  216 1    
   190   96  217 1    
   191   96  218 1    
   192   96  219 1    
   193   97   98 2    
   194   97   99 am   BACKBONE|DICT|INTERRES
   195   99  100 1    
   196   99  220 1    
   197  100  101 1    
   198  100  102 1    
   199  100  221 1    
   200  101  222 1    
   201  101  223 1    
   202  101  224 1    
   203  102  103 2    
   204  102  104 am   BACKBONE|DICT|INTERRES
   205  104  105 1    
   206  104  225 1    
   207  105  106 1    
   208  105  107 1    
   209  105  226 1    
   210  106  227 1    
   211  106  228 1    
   212  106  229 1    
   213  107  108 2    
   214  107  109 am   BACKBONE|DICT|INTERRES
   215  109  110 1    
   216  109  230 1    
   217  110  111 1    
   218  110  112 1    
   219  110  231 1    
   220  111  232 1    
   221  111  233 1    
   222  111  234 1    
   223  112  113 2    
   224  112  114 am   BACKBONE|DICT|INTERRES
   225  114  115 1    
   226  114  235 1    
   227  115  116 1    
   228  115  117 1    
   229  115  236 1    
   230  116  237 1    
   231  116  238 1    
   232  116  239 1    
   233  117  118 2    
   234  117  119 am   BACKBONE|DICT|INTERRES
   235  119  120 1    
   236  119  240 1    
   237  120  121 1    
   238  120  124 1    
   239  120  241 1    
   240  121  122 am   BACKBONE|DICT|INTERRES
   241  121  123 2    
   242  122  242 1    
   243  122  243 1    
   244  124  125 1    
   245  124  244 1    
   246  124  245 1    
   247  125  126 1    
   248  126  246 1    
   249  126  247 1    
@<TRIPOS>SUBSTRUCTURE
     1 UNK         1 GROUP             0       ****    0 ROOT    
