@<TRIPOS>MOLECULE
3R540
247   249    1
SMALL
USER_CHARGES


@<TRIPOS>ATOM
      1 CA          0.2579   -8.9704  -45.3813 C.3       0 UNK        -0.1800 
      2 C           0.5349  -10.4526  -45.1850 C.2       0 UNK         0.5000 
      3 O           1.6479  -10.8206  -44.8070 O.2       0 UNK        -0.5000 
      4 N          -0.4709  -11.3038  -45.4315 N.am      1 UNK        -0.5000 
      5 CA         -0.3949  -12.7706  -45.3544 C.3       1 UNK         0.1400 
      6 C6         -1.6989  -13.4558  -45.8305 C.3       23 UNK        -0.0398 
      7 S7         -2.1086  -13.0290  -47.5557 S.3       23 UNK        -0.2404 
      8 C8         -3.6706  -13.9344  -47.7915 C.3       23 UNK        -0.0205 
      9 C9         -3.4571  -15.4392  -47.8692 C.ar      23 UNK        -0.0193 
     10 C10        -2.9232  -16.0114  -49.0291 C.ar      23 UNK        -0.1150 
     11 C11        -2.7263  -17.3928  -49.1111 C.ar      23 UNK        -0.0193 
     12 C12        -3.0722  -18.1992  -48.0264 C.ar      23 UNK        -0.1150 
     13 C13        -3.6126  -17.6432  -46.8657 C.ar      23 UNK        -0.0193 
     14 C14        -3.8023  -16.2603  -46.7899 C.ar      23 UNK        -0.1150 
     15 C15        -3.9442  -18.5465  -45.6902 C.3       23 UNK        -0.0205 
     16 S16        -5.2556  -19.7370  -46.0923 S.3       23 UNK        -0.2404 
     17 C17        -4.9123  -21.0526  -44.8762 C.3       23 UNK        -0.0398 
     18 CA         -4.0939  -22.2042  -45.5078 C.3       11 UNK         0.1400 
     19 N          -2.6993  -21.8291  -45.7841 N.am      11 UNK        -0.5000 
     20 C          -1.8596  -22.5423  -46.5482 C.2       10 UNK         0.5000 
     21 O          -2.1806  -23.5932  -47.1012 O.2       10 UNK        -0.5000 
     22 CA         -0.4171  -22.0343  -46.6998 C.3       10 UNK         0.1400 
     23 CB         -0.2649  -21.2283  -47.9977 C.3       10 UNK        -0.1800 
     24 N           0.0376  -21.2409  -45.5555 N.am      10 UNK        -0.5000 
     25 C           0.3113  -21.7637  -44.3494 C.2       9 UNK         0.5000 
     26 O           0.1646  -22.9574  -44.0874 O.2       9 UNK        -0.5000 
     27 CA          0.8235  -20.8170  -43.2440 C.3       9 UNK         0.1400 
     28 CB          2.3541  -20.8945  -43.1427 C.3       9 UNK        -0.1800 
     29 N           0.4366  -19.4197  -43.4297 N.am      9 UNK        -0.5000 
     30 C          -0.8175  -18.9532  -43.3646 C.2       8 UNK         0.5000 
     31 O          -1.7938  -19.6540  -43.0948 O.2       8 UNK        -0.5000 
     32 CA         -1.0220  -17.4631  -43.7105 C.3       8 UNK         0.1400 
     33 CB         -1.0244  -16.6136  -42.4319 C.3       8 UNK        -0.1800 
     34 N          -0.0495  -16.9163  -44.6651 N.am      8 UNK        -0.5000 
     35 C           0.2319  -17.4269  -45.8755 C.2       7 UNK         0.5000 
     36 O          -0.3030  -18.4399  -46.3214 O.2       7 UNK        -0.5000 
     37 CA          1.3188  -16.7357  -46.7190 C.3       7 UNK         0.1400 
     38 CB          0.6915  -15.9414  -47.8733 C.3       7 UNK        -0.1800 
     39 N           2.1984  -15.8537  -45.9537 N.am      7 UNK        -0.5000 
     40 C           3.0957  -16.2447  -45.0387 C.2       6 UNK         0.5000 
     41 O           3.2453  -17.4211  -44.7020 O.2       6 UNK        -0.5000 
     42 CA          3.9475  -15.1364  -44.3752 C.3       6 UNK         0.1400 
     43 CB          5.3811  -15.6105  -44.0629 C.3       6 UNK        -0.1800 
     44 N           3.9804  -13.8602  -45.1057 N.am      6 UNK        -0.5000 
     45 C           4.4235  -13.6365  -46.3537 C.2       5 UNK         0.5000 
     46 O           4.8491  -14.5153  -47.1035 O.2       5 UNK        -0.5000 
     47 CA          4.3769  -12.1818  -46.8556 C.3       5 UNK         0.1400 
     48 CB          3.0905  -11.9205  -47.6530 C.3       5 UNK        -0.1800 
     49 N           4.4960  -11.2090  -45.7652 N.am      5 UNK        -0.5000 
     50 C           5.6715  -10.8903  -45.2032 C.2       4 UNK         0.5000 
     51 O           6.7476  -11.3679  -45.5668 O.2       4 UNK        -0.5000 
     52 CA          5.6729   -9.8638  -44.0550 C.3       4 UNK         0.1400 
     53 CB          5.9529   -8.4556  -44.6025 C.3       4 UNK        -0.1800 
     54 N           4.4570   -9.8171  -43.2422 N.am      4 UNK        -0.5000 
     55 C           3.9645  -10.8168  -42.4992 C.2       3 UNK         0.5000 
     56 O           4.4019  -11.9684  -42.5249 O.2       3 UNK        -0.5000 
     57 CA          2.8046  -10.4754  -41.5470 C.3       3 UNK         0.1400 
     58 CB          2.3451   -9.0031  -41.5991 C.3       3 UNK        -0.1800 
     59 N           1.6679  -11.3318  -41.8571 N.am      3 UNK        -0.5000 
     60 C           1.0292  -12.1270  -40.9903 C.2       2 UNK         0.5000 
     61 O           1.3597  -12.2503  -39.8098 O.2       2 UNK        -0.5000 
     62 CA         -0.2044  -12.8975  -41.5065 C.3       2 UNK         0.1400 
     63 CB         -1.4495  -12.5742  -40.6639 C.3       2 UNK        -0.1800 
     64 N          -0.5110  -12.6086  -42.9091 N.am      2 UNK        -0.5000 
     65 C          -0.0090  -13.2791  -43.9521 C.2       1 UNK         0.5000 
     66 O           0.7464  -14.2436  -43.8455 O.2       1 UNK        -0.5000 
     67 C          -4.1931  -23.4925  -44.6645 C.2       11 UNK         0.5000 
     68 O          -5.1280  -24.2687  -44.8632 O.2       11 UNK        -0.5000 
     69 N          -3.1960  -23.7452  -43.8028 N.am      12 UNK        -0.5000 
     70 CA         -3.0509  -24.9955  -43.0494 C.3       12 UNK         0.1400 
     71 CB         -2.0063  -24.7981  -41.9406 C.3       12 UNK        -0.1800 
     72 C          -2.6786  -26.1994  -43.9420 C.2       12 UNK         0.5000 
     73 O          -2.9079  -27.3416  -43.5443 O.2       12 UNK        -0.5000 
     74 N          -2.1405  -25.9205  -45.1364 N.am      13 UNK        -0.5000 
     75 CA         -1.8057  -26.8857  -46.1813 C.3       13 UNK         0.1400 
     76 CB         -0.3836  -26.5804  -46.6858 C.3       13 UNK        -0.1800 
     77 C          -2.8375  -26.8577  -47.3294 C.2       13 UNK         0.5000 
     78 O          -2.5178  -27.2953  -48.4350 O.2       13 UNK        -0.5000 
     79 N          -4.0447  -26.3301  -47.0657 N.am      14 UNK        -0.5000 
     80 CA         -5.1772  -26.2005  -47.9908 C.3       14 UNK         0.1400 
     81 CB         -5.7375  -27.5899  -48.3620 C.3       14 UNK        -0.1800 
     82 C          -4.8371  -25.3397  -49.2248 C.2       14 UNK         0.5000 
     83 O          -5.0136  -25.7832  -50.3601 O.2       14 UNK        -0.5000 
     84 N          -4.3121  -24.1346  -48.9632 N.am      15 UNK        -0.5000 
     85 CA         -3.7992  -23.1548  -49.9298 C.3       15 UNK         0.1400 
     86 CB         -4.9210  -22.6347  -50.8541 C.3       15 UNK        -0.1800 
     87 C          -2.5721  -23.6901  -50.6958 C.2       15 UNK         0.5000 
     88 O          -2.4437  -23.4568  -51.8964 O.2       15 UNK        -0.5000 
     89 N          -1.7041  -24.4143  -49.9712 N.am      16 UNK        -0.5000 
     90 CA         -0.5273  -25.1407  -50.4610 C.3       16 UNK         0.1400 
     91 CB          0.5694  -24.1570  -50.9194 C.3       16 UNK        -0.1800 
     92 C          -0.8996  -26.1871  -51.5337 C.2       16 UNK         0.5000 
     93 O          -0.3490  -26.1722  -52.6360 O.2       16 UNK        -0.5000 
     94 N          -1.8489  -27.0651  -51.1764 N.am      17 UNK        -0.5000 
     95 CA         -2.4774  -28.0921  -52.0124 C.3       17 UNK         0.1400 
     96 CB         -1.4620  -29.1878  -52.3989 C.3       17 UNK        -0.1800 
     97 C          -3.2055  -27.4765  -53.2246 C.2       17 UNK         0.5000 
     98 O          -2.9043  -27.8085  -54.3736 O.2       17 UNK        -0.5000 
     99 N          -4.1371  -26.5604  -52.9291 N.am      18 UNK        -0.5000 
    100 CA        -4.9619  -25.7463  -53.8271 C.3       18 UNK         0.1400 
    101 CB        -5.8313  -26.6126  -54.7584 C.3       18 UNK        -0.1800 
    102 C         -4.1753  -24.6823  -54.6134 C.2       18 UNK         0.5000 
    103 O         -4.5720  -23.5172  -54.5950 O.2       18 UNK        -0.5000 
    104 N         -3.0895  -25.0923  -55.2843 N.am      19 UNK        -0.5000 
    105 CA        -2.1752  -24.2763  -56.0887 C.3       19 UNK         0.1400 
    106 CB        -1.2528  -23.4569  -55.1581 C.3       19 UNK        -0.1800 
    107 C         -2.9269  -23.4277  -57.1407 C.2       19 UNK         0.5000 
    108 O         -3.6396  -23.9925  -57.9726 O.2       19 UNK        -0.5000 
    109 N         -2.7786  -22.0994  -57.0677 N.am      20 UNK        -0.5000 
    110 CA        -3.4863  -21.1102  -57.8838 C.3       20 UNK         0.1400 
    111 CB        -2.4639  -20.0726  -58.3818 C.3       20 UNK        -0.1800 
    112 C         -4.6387  -20.4397  -57.1028 C.2       20 UNK         0.5000 
    113 O         -5.0711  -19.3481  -57.4789 O.2       20 UNK        -0.5000 
    114 N         -5.0884  -21.0685  -56.0035 N.am      21 UNK        -0.5000 
    115 CA        -6.1386  -20.6206  -55.0774 C.3       21 UNK         0.1400 
    116 CB        -7.5128  -20.6110  -55.7786 C.3       21 UNK        -0.1800 
    117 C         -5.8205  -19.2846  -54.3708 C.2       21 UNK         0.5000 
    118 O         -6.7375  -18.5998  -53.9140 O.2       21 UNK        -0.5000 
    119 N         -4.5268  -18.9386  -54.3045 N.am      22 UNK        -0.5000 
    120 CA        -3.9796  -17.6794  -53.7697 C.3       22 UNK         0.1400 
    121 C         -4.3939  -16.4075  -54.5748 C.2       22 UNK         0.5000 
    122 N         -4.8300  -16.5311  -55.8244 N.am      22 UNK        -0.7600 
    123 O         -4.2881  -15.2886  -54.0798 O.2       22 UNK        -0.5000 
    124 C124       -4.1864  -17.5365  -52.2350 C.3       23 UNK        -0.0398 
    125 S125       -3.3951  -18.9083  -51.3220 S.3       23 UNK        -0.2404 
    126 C126       -2.1287  -18.0292  -50.3554 C.3       23 UNK        -0.0205 
    127 H127        1.0049   -8.5359  -46.0455 H         1 UNK         0.0600 
    128 H128        0.3053   -8.4499  -44.4252 H         1 UNK         0.0600 
    129 H129       -0.7264   -8.7968  -45.8167 H         1 UNK         0.0600 
    130 H130       -1.3541  -10.9361  -45.7563 H         1 UNK         0.3000 
    131 H131        0.4050  -13.0847  -46.0258 H         1 UNK         0.0600 
    132 H132       -2.5384  -13.1760  -45.1915 H         1 UNK         0.0800 
    133 H133       -1.6072  -14.5415  -45.7630 H         1 UNK         0.0800 
    134 H134       -4.3653  -13.6801  -46.9895 H         1 UNK         0.0800 
    135 H135       -4.1374  -13.5926  -48.7163 H         1 UNK         0.0800 
    136 H136       -2.6543  -15.3778  -49.8625 H         1 UNK         0.1150 
    137 H137       -2.9238  -19.2676  -48.0848 H         1 UNK         0.1150 
    138 H138       -4.2131  -15.8227  -45.8910 H         1 UNK         0.1150 
    139 H139       -3.0374  -19.0854  -45.4221 H         1 UNK         0.0800 
    140 H140       -4.2434  -17.9682  -44.8150 H         1 UNK         0.0800 
    141 H141       -5.8814  -21.4144  -44.5268 H         1 UNK         0.0800 
    142 H142       -4.4079  -20.6429  -43.9992 H         1 UNK         0.0800 
    143 H143       -4.5568  -22.4435  -46.4676 H         1 UNK         0.0600 
    144 H144       -2.3520  -20.9931  -45.3368 H         1 UNK         0.3000 
    145 H145        0.2271  -22.9126  -46.7789 H         1 UNK         0.0600 
    146 H146       -0.8946  -20.3404  -47.9986 H         1 UNK         0.0600 
    147 H147        0.7662  -20.9069  -48.1446 H         1 UNK         0.0600 
    148 H148       -0.5469  -21.8256  -48.8653 H         1 UNK         0.0600 
    149 H149        0.1204  -20.2390  -45.7036 H         1 UNK         0.3000 
    150 H150        0.3997  -21.1611  -42.2983 H         1 UNK         0.0600 
    151 H151        2.6853  -21.9214  -42.9822 H         1 UNK         0.0600 
    152 H152        2.7250  -20.3002  -42.3074 H         1 UNK         0.0600 
    153 H153        2.8353  -20.5312  -44.0519 H         1 UNK         0.0600 
    154 H154        1.1735  -18.7758  -43.6841 H         1 UNK         0.3000 
    155 H155       -2.0049  -17.3650  -44.1675 H         1 UNK         0.0600 
    156 H156       -1.6800  -17.0426  -41.6729 H         1 UNK         0.0600 
    157 H157       -1.3895  -15.6073  -42.6332 H         1 UNK         0.0600 
    158 H158       -0.0263  -16.5339  -41.9995 H         1 UNK         0.0600 
    159 H159        0.4371  -16.0725  -44.3757 H         1 UNK         0.3000 
    160 H160        1.9368  -17.5255  -47.1511 H         1 UNK         0.0600 
    161 H161        0.0570  -15.1346  -47.5105 H         1 UNK         0.0600 
    162 H162        0.0734  -16.5867  -48.4983 H         1 UNK         0.0600 
    163 H163        1.4563  -15.5051  -48.5159 H         1 UNK         0.0600 
    164 H164        2.1331  -14.8662  -46.1441 H         1 UNK         0.3000 
    165 H165        3.4605  -14.9191  -43.4234 H         1 UNK         0.0600 
    166 H166        5.9168  -15.9004  -44.9672 H         1 UNK         0.0600 
    167 H167        5.9547  -14.8257  -43.5693 H         1 UNK         0.0600 
    168 H168        5.3743  -16.4730  -43.3956 H         1 UNK         0.0600 
    169 H169        3.6797  -13.0565  -44.5693 H         1 UNK         0.3000 
    170 H170        5.2163  -12.0441  -47.5410 H         1 UNK         0.0600 
    171 H171        2.2001  -12.1068  -47.0573 H         1 UNK         0.0600 
    172 H172        3.0474  -10.8914  -48.0098 H         1 UNK         0.0600 
    173 H173        3.0370  -12.5710  -48.5269 H         1 UNK         0.0600 
    174 H174        3.6365  -10.8140  -45.3973 H         1 UNK         0.3000 
    175 H175        6.4938  -10.1352  -43.3880 H         1 UNK         0.0600 
    176 H176        5.1440   -8.1078  -45.2464 H         1 UNK         0.0600 
    177 H177        6.0748   -7.7336  -43.7948 H         1 UNK         0.0600 
    178 H178        6.8712   -8.4388  -45.1912 H         1 UNK         0.0600 
    179 H179        4.0057   -8.9168  -43.1759 H         1 UNK         0.3000 
    180 H180        3.1735  -10.6758  -40.5393 H         1 UNK         0.0600 
    181 H181        1.9793   -8.7246  -42.5879 H         1 UNK         0.0600 
    182 H182        3.1552   -8.3233  -41.3321 H         1 UNK         0.0600 
    183 H183        1.5367   -8.8253  -40.8896 H         1 UNK         0.0600 
    184 H184        1.3904  -11.3415  -42.8319 H         1 UNK         0.3000 
    185 H185        0.0143  -13.9605  -41.3891 H         1 UNK         0.0600 
    186 H186       -2.3133  -13.1460  -41.0035 H         1 UNK         0.0600 
    187 H187       -1.2911  -12.8245  -39.6141 H         1 UNK         0.0600 
    188 H188       -1.7055  -11.5153  -40.7145 H         1 UNK         0.0600 
    189 H189       -1.1044  -11.8107  -43.0860 H         1 UNK         0.3000 
    190 H190       -2.4414  -23.0784  -43.7184 H         1 UNK         0.3000 
    191 H191       -4.0091  -25.2214  -42.5768 H         1 UNK         0.0600 
    192 H192       -1.0156  -24.6000  -42.3501 H         1 UNK         0.0600 
    193 H193       -2.2735  -23.9670  -41.2878 H         1 UNK         0.0600 
    194 H194       -1.9285  -25.6892  -41.3164 H         1 UNK         0.0600 
    195 H195       -2.0175  -24.9498  -45.3936 H         1 UNK         0.3000 
    196 H196       -1.8102  -27.8994  -45.7764 H         1 UNK         0.0600 
    197 H197        0.3379  -26.6203  -45.8697 H         1 UNK         0.0600 
    198 H198       -0.3194  -25.5902  -47.1370 H         1 UNK         0.0600 
    199 H199       -0.0634  -27.3070  -47.4335 H         1 UNK         0.0600 
    200 H200       -4.2049  -25.9654  -46.1358 H         1 UNK         0.3000 
    201 H201       -5.9587  -25.6654  -47.4493 H         1 UNK         0.0600 
    202 H202       -6.6421  -27.4966  -48.9640 H         1 UNK         0.0600 
    203 H203       -5.9989  -28.1598  -47.4705 H         1 UNK         0.0600 
    204 H204       -5.0226  -28.1781  -48.9381 H         1 UNK         0.0600 
    205 H205       -4.0908  -23.9279  -47.9981 H         1 UNK         0.3000 
    206 H206       -3.4421  -22.3051  -49.3461 H         1 UNK         0.0600 
    207 H207       -5.7600  -22.2476  -50.2764 H         1 UNK         0.0600 
    208 H208       -5.2980  -23.4126  -51.5173 H         1 UNK         0.0600 
    209 H209       -4.5601  -21.8220  -51.4855 H         1 UNK         0.0600 
    210 H210       -1.9078  -24.5182  -48.9840 H         1 UNK         0.3000 
    211 H211       -0.1311  -25.7003  -49.6132 H         1 UNK         0.0600 
    212 H212        0.8419  -23.4698  -50.1189 H         1 UNK         0.0600 
    213 H213        1.4749  -24.6915  -51.2087 H         1 UNK         0.0600 
    214 H214        0.2523  -23.5644  -51.7781 H         1 UNK         0.0600 
    215 H215       -2.2054  -27.0133  -50.2234 H         1 UNK         0.3000 
    216 H216       -3.2454  -28.5603  -51.3947 H         1 UNK         0.0600 
    217 H217       -1.9539  -30.0004  -52.9347 H         1 UNK         0.0600 
    218 H218       -0.6714  -28.8043  -53.0443 H         1 UNK         0.0600 
    219 H219       -0.9933  -29.6188  -51.5143 H         1 UNK         0.0600 
    220 H220       -4.2881  -26.3457  -51.9443 H         1 UNK         0.3000 
    221 H221       -5.6432  -25.2036  -53.1702 H         1 UNK         0.0600 
    222 H222       -5.2327  -27.1795  -55.4716 H         1 UNK         0.0600 
    223 H223       -6.4346  -27.3194  -54.1888 H         1 UNK         0.0600 
    224 H224       -6.5166  -25.9903  -55.3350 H         1 UNK         0.0600 
    225 H225       -2.8652  -26.0812  -55.2189 H         1 UNK         0.3000 
    226 H226       -1.5489  -24.9728  -56.6476 H         1 UNK         0.0600 
    227 H227       -0.7152  -24.1122  -54.4726 H         1 UNK         0.0600 
    228 H228       -0.5015  -22.9056  -55.7248 H         1 UNK         0.0600 
    229 H229       -1.8110  -22.7441  -54.5497 H         1 UNK         0.0600 
    230 H230       -2.1852  -21.7311  -56.3382 H         1 UNK         0.3000 
    231 H231       -3.9320  -21.5899  -58.7573 H         1 UNK         0.0600 
    232 H232       -2.9279  -19.3539  -59.0584 H         1 UNK         0.0600 
    233 H233       -1.6529  -20.5517  -58.9307 H         1 UNK         0.0600 
    234 H234       -2.0246  -19.5116  -57.5561 H         1 UNK         0.0600 
    235 H235       -4.6701  -21.9593  -55.7474 H         1 UNK         0.3000 
    236 H236       -6.1822  -21.3684  -54.2847 H         1 UNK         0.0600 
    237 H237       -8.3167  -20.4303  -55.0641 H         1 UNK         0.0600 
    238 H238       -7.5734  -19.8342  -56.5412 H         1 UNK         0.0600 
    239 H239       -7.7168  -21.5689  -56.2571 H         1 UNK         0.0600 
    240 H240       -3.8528  -19.5756  -54.7007 H         1 UNK         0.3000 
    241 H241       -2.9036  -17.7456  -53.9343 H         1 UNK         0.0600 
    242 H242       -5.0849  -15.7056  -56.3432 H         1 UNK         0.3800 
    243 H243       -4.9189  -17.4418  -56.2567 H         1 UNK         0.3800 
    244 H244       -3.7774  -16.5908  -51.8777 H         1 UNK         0.0800 
    245 H245       -5.2474  -17.5144  -51.9849 H         1 UNK         0.0800 
    246 H246       -1.6278  -17.2862  -50.9778 H         1 UNK         0.0800 
    247 H247       -1.3590  -18.7418  -50.0551 H         1 UNK         0.0800 
@<TRIPOS>BOND
     1    1    2 1    
     2    1  127 1    
     3    1  128 1    
     4    1  129 1    
     5    2    3 2    
     6    2    4 am   BACKBONE|DICT|INTERRES
     7    4    5 1    
     8    4  130 1    
     9    5    6 1    
    10    5   65 1    
    11    5  131 1    
    12    6    7 1    
    13    6  132 1    
    14    6  133 1    
    15    7    8 1    
    16    8    9 1    
    17    8  134 1    
    18    8  135 1    
    19    9   10 ar   
    20    9   14 ar   
    21   10   11 ar   
    22   10  136 1    
    23   11   12 ar   
    24   11  126 1    
    25   12   13 ar   
    26   12  137 1    
    27   13   14 ar   
    28   13   15 1    
    29   14  138 1    
    30   15   16 1    
    31   15  139 1    
    32   15  140 1    
    33   16   17 1    
    34   17   18 1    
    35   17  141 1    
    36   17  142 1    
    37   18   19 1    
    38   18   67 1    
    39   18  143 1    
    40   19   20 am   BACKBONE|DICT|INTERRES
    41   19  144 1    
    42   20   21 2    
    43   20   22 1    
    44   22   23 1    
    45   22   24 1    
    46   22  145 1    
    47   23  146 1    
    48   23  147 1    
    49   23  148 1    
    50   24   25 am   BACKBONE|DICT|INTERRES
    51   24  149 1    
    52   25   26 2    
    53   25   27 1    
    54   27   28 1    
    55   27   29 1    
    56   27  150 1    
    57   28  151 1    
    58   28  152 1    
    59   28  153 1    
    60   29   30 am   BACKBONE|DICT|INTERRES
    61   29  154 1    
    62   30   31 2    
    63   30   32 1    
    64   32   33 1    
    65   32   34 1    
    66   32  155 1    
    67   33  156 1    
    68   33  157 1    
    69   33  158 1    
    70   34   35 am   BACKBONE|DICT|INTERRES
    71   34  159 1    
    72   35   36 2    
    73   35   37 1    
    74   37   38 1    
    75   37   39 1    
    76   37  160 1    
    77   38  161 1    
    78   38  162 1    
    79   38  163 1    
    80   39   40 am   BACKBONE|DICT|INTERRES
    81   39  164 1    
    82   40   41 2    
    83   40   42 1    
    84   42   43 1    
    85   42   44 1    
    86   42  165 1    
    87   43  166 1    
    88   43  167 1    
    89   43  168 1    
    90   44   45 am   BACKBONE|DICT|INTERRES
    91   44  169 1    
    92   45   46 2    
    93   45   47 1    
    94   47   48 1    
    95   47   49 1    
    96   47  170 1    
    97   48  171 1    
    98   48  172 1    
    99   48  173 1    
   100   49   50 am   BACKBONE|DICT|INTERRES
   101   49  174 1    
   102   50   51 2    
   103   50   52 1    
   104   52   53 1    
   105   52   54 1    
   106   52  175 1    
   107   53  176 1    
   108   53  177 1    
   109   53  178 1    
   110   54   55 am   BACKBONE|DICT|INTERRES
   111   54  179 1    
   112   55   56 2    
   113   55   57 1    
   114   57   58 1    
   115   57   59 1    
   116   57  180 1    
   117   58  181 1    
   118   58  182 1    
   119   58  183 1    
   120   59   60 am   BACKBONE|DICT|INTERRES
   121   59  184 1    
   122   60   61 2    
   123   60   62 1    
   124   62   63 1    
   125   62   64 1    
   126   62  185 1    
   127   63  186 1    
   128   63  187 1    
   129   63  188 1    
   130   64   65 am   BACKBONE|DICT|INTERRES
   131   64  189 1    
   132   65   66 2    
   133   67   68 2    
   134   67   69 am   BACKBONE|DICT|INTERRES
   135   69   70 1    
   136   69  190 1    
   137   70   71 1    
   138   70   72 1    
   139   70  191 1    
   140   71  192 1    
   141   71  193 1    
   142   71  194 1    
   143   72   73 2    
   144   72   74 am   BACKBONE|DICT|INTERRES
   145   74   75 1    
   146   74  195 1    
   147   75   76 1    
   148   75   77 1    
   149   75  196 1    
   150   76  197 1    
   151   76  198 1    
   152   76  199 1    
   153   77   78 2    
   154   77   79 am   BACKBONE|DICT|INTERRES
   155   79   80 1    
   156   79  200 1    
   157   80   81 1    
   158   80   82 1    
   159   80  201 1    
   160   81  202 1    
   161   81  203 1    
   162   81  204 1    
   163   82   83 2    
   164   82   84 am   BACKBONE|DICT|INTERRES
   165   84   85 1    
   166   84  205 1    
   167   85   86 1    
   168   85   87 1    
   169   85  206 1    
   170   86  207 1    
   171   86  208 1    
   172   86  209 1    
   173   87   88 2    
   174   87   89 am   BACKBONE|DICT|INTERRES
   175   89   90 1    
   176   89  210 1    
   177   90   91 1    
   178   90   92 1    
   179   90  211 1    
   180   91  212 1    
   181   91  213 1    
   182   91  214 1    
   183   92   93 2    
   184   92   94 am   BACKBONE|DICT|INTERRES
   185   94   95 1    
   186   94  215 1    
   187   95   96 1    
   188   95   97 1    
   189   95  216 1    
   190   96  217 1    
   191   96  218 1    
   192   96  219 1    
   193   97   98 2    
   194   97   99 am   BACKBONE|DICT|INTERRES
   195   99  100 1    
   196   99  220 1    
   197  100  101 1    
   198  100  102 1    
   199  100  221 1    
   200  101  222 1    
   201  101  223 1    
   202  101  224 1    
   203  102  103 2    
   204  102  104 am   BACKBONE|DICT|INTERRES
   205  104  105 1    
   206  104  225 1    
   207  105  106 1    
   208  105  107 1    
   209  105  226 1    
   210  106  227 1    
   211  106  228 1    
   212  106  229 1    
   213  107  108 2    
   214  107  109 am   BACKBONE|DICT|INTERRES
   215  109  110 1    
   216  109  230 1    
   217  110  111 1    
   218  110  112 1    
   219  110  231 1    
   220  111  232 1    
   221  111  233 1    
   222  111  234 1    
   223  112  113 2    
   224  112  114 am   BACKBONE|DICT|INTERRES
   225  114  115 1    
   226  114  235 1    
   227  115  116 1    
   228  115  117 1    
   229  115  236 1    
   230  116  237 1    
   231  116  238 1    
   232  116  239 1    
   233  117  118 2    
   234  117  119 am   BACKBONE|DICT|INTERRES
   235  119  120 1    
   236  119  240 1    
   237  120  121 1    
   238  120  124 1    
   239  120  241 1    
   240  121  122 am   BACKBONE|DICT|INTERRES
   241  121  123 2    
   242  122  242 1    
   243  122  243 1    
   244  124  125 1    
   245  124  244 1    
   246  124  245 1    
   247  125  126 1    
   248  126  246 1    
   249  126  247 1    
@<TRIPOS>SUBSTRUCTURE
     1 UNK         1 GROUP             0       ****    0 ROOT    
