@<TRIPOS>MOLECULE
3R540
247   249    1
SMALL
USER_CHARGES


@<TRIPOS>ATOM
      1 CA         -0.7973  -10.8730  -47.9018 C.3       0 UNK        -0.1800 
      2 C          -1.2715  -12.1761  -47.2617 C.2       0 UNK         0.5000 
      3 O          -2.1984  -12.1458  -46.4567 O.2       0 UNK        -0.5000 
      4 N          -0.6870  -13.3413  -47.5779 N.am      1 UNK        -0.5000 
      5 CA          0.4758  -13.5543  -48.4511 C.3       1 UNK         0.1400 
      6 C6          0.6609  -15.0617  -48.7552 C.3       23 UNK        -0.0398 
      7 S7          1.6650  -15.4017  -50.2412 S.3       23 UNK        -0.2404 
      8 C8          0.4165  -15.4440  -51.5719 C.3       23 UNK        -0.0205 
      9 C9         -0.7045  -16.4403  -51.3064 C.ar      23 UNK        -0.0193 
     10 C10        -2.0134  -15.9904  -51.1200 C.ar      23 UNK        -0.1150 
     11 C11        -3.0427  -16.8920  -50.8383 C.ar      23 UNK        -0.0193 
     12 C12        -2.7514  -18.2569  -50.7382 C.ar      23 UNK        -0.1150 
     13 C13        -1.4438  -18.7243  -50.9110 C.ar      23 UNK        -0.0193 
     14 C14        -0.4305  -17.8065  -51.2158 C.ar      23 UNK        -0.1150 
     15 C15        -1.1483  -20.2189  -50.7761 C.3       23 UNK        -0.0205 
     16 S16         0.4634  -20.5939  -49.9986 S.3       23 UNK        -0.2404 
     17 C17         0.1270  -20.2014  -48.2473 C.3       23 UNK        -0.0398 
     18 CA          0.0781  -21.4639  -47.3500 C.3       11 UNK         0.1400 
     19 N           0.0936  -21.1311  -45.9225 N.am      11 UNK        -0.5000 
     20 C           0.2413  -22.0243  -44.9316 C.2       10 UNK         0.5000 
     21 O           0.4496  -23.2222  -45.1141 O.2       10 UNK        -0.5000 
     22 CA          0.0765  -21.5027  -43.4948 C.3       10 UNK         0.1400 
     23 CB          1.4176  -21.0041  -42.9392 C.3       10 UNK        -0.1800 
     24 N          -0.9319  -20.4445  -43.4177 N.am      10 UNK        -0.5000 
     25 C          -2.2498  -20.6778  -43.5109 C.2       9 UNK         0.5000 
     26 O          -2.7329  -21.8024  -43.6425 O.2       9 UNK        -0.5000 
     27 CA         -3.1859  -19.4564  -43.5063 C.3       9 UNK         0.1400 
     28 CB         -3.5609  -19.0677  -42.0699 C.3       9 UNK        -0.1800 
     29 N          -2.6318  -18.2997  -44.2142 N.am      9 UNK        -0.5000 
     30 C          -2.3874  -18.2847  -45.5325 C.2       8 UNK         0.5000 
     31 O          -2.5657  -19.2663  -46.2552 O.2       8 UNK        -0.5000 
     32 CA         -1.8186  -17.0042  -46.1728 C.3       8 UNK         0.1400 
     33 CB         -2.7292  -16.5162  -47.3158 C.3       8 UNK        -0.1800 
     34 N          -1.4869  -15.9302  -45.2287 N.am      8 UNK        -0.5000 
     35 C          -2.3097  -15.0890  -44.5832 C.2       7 UNK         0.5000 
     36 O          -3.5346  -15.0796  -44.7071 O.2       7 UNK        -0.5000 
     37 CA         -1.6082  -14.1237  -43.6031 C.3       7 UNK         0.1400 
     38 CB         -2.5880  -13.3211  -42.7222 C.3       7 UNK        -0.1800 
     39 N          -0.6020  -14.8140  -42.7866 N.am      7 UNK        -0.5000 
     40 C          -0.8270  -15.8300  -41.9381 C.2       6 UNK         0.5000 
     41 O          -1.9469  -16.2786  -41.6948 O.2       6 UNK        -0.5000 
     42 CA          0.4185  -16.4766  -41.2991 C.3       6 UNK         0.1400 
     43 CB          0.1139  -17.8141  -40.5925 C.3       6 UNK        -0.1800 
     44 N           1.5195  -16.6428  -42.2518 N.am      6 UNK        -0.5000 
     45 C           1.5082  -17.3402  -43.3992 C.2       5 UNK         0.5000 
     46 O           0.5206  -17.9469  -43.8178 O.2       5 UNK        -0.5000 
     47 CA          2.7970  -17.3425  -44.2468 C.3       5 UNK         0.1400 
     48 CB          2.4966  -16.9220  -45.6949 C.3       5 UNK        -0.1800 
     49 N           3.8221  -16.4532  -43.7001 N.am      5 UNK        -0.5000 
     50 C           4.7694  -16.8080  -42.8209 C.2       4 UNK         0.5000 
     51 O           4.9422  -17.9616  -42.4285 O.2       4 UNK        -0.5000 
     52 CA          5.6536  -15.6736  -42.2628 C.3       4 UNK         0.1400 
     53 CB          6.9786  -15.5983  -43.0364 C.3       4 UNK        -0.1800 
     54 N           5.0049  -14.3589  -42.3043 N.am      4 UNK        -0.5000 
     55 C           3.9368  -13.9998  -41.5762 C.2       3 UNK         0.5000 
     56 O           3.3930  -14.7348  -40.7527 O.2       3 UNK        -0.5000 
     57 CA          3.3304  -12.6172  -41.8852 C.3       3 UNK         0.1400 
     58 CB          4.0475  -11.5174  -41.0884 C.3       3 UNK        -0.1800 
     59 N           3.3829  -12.3006  -43.3162 N.am      3 UNK        -0.5000 
     60 C           2.6973  -12.9645  -44.2545 C.2       2 UNK         0.5000 
     61 O           1.8816  -13.8590  -44.0030 O.2       2 UNK        -0.5000 
     62 CA          3.0287  -12.6279  -45.7140 C.3       2 UNK         0.1400 
     63 CB          4.3590  -13.2972  -46.1176 C.3       2 UNK        -0.1800 
     64 N           1.9324  -13.1207  -46.5377 N.am      2 UNK        -0.5000 
     65 C           1.7576  -12.9371  -47.8510 C.2       1 UNK         0.5000 
     66 O           2.5167  -12.2814  -48.5645 O.2       1 UNK        -0.5000 
     67 C          -1.1257  -22.3662  -47.6840 C.2       11 UNK         0.5000 
     68 O          -0.9416  -23.4373  -48.2627 O.2       11 UNK        -0.5000 
     69 N          -2.3237  -21.9390  -47.2599 N.am      12 UNK        -0.5000 
     70 CA         -3.5744  -22.6752  -47.4304 C.3       12 UNK         0.1400 
     71 CB         -4.7474  -21.8065  -46.9552 C.3       12 UNK        -0.1800 
     72 C          -3.5759  -24.0439  -46.7251 C.2       12 UNK         0.5000 
     73 O          -4.1334  -24.9958  -47.2672 O.2       12 UNK        -0.5000 
     74 N          -2.9291  -24.1349  -45.5547 N.am      13 UNK        -0.5000 
     75 CA         -2.7201  -25.3892  -44.8333 C.3       13 UNK         0.1400 
     76 CB         -2.2348  -25.0953  -43.4057 C.3       13 UNK        -0.1800 
     77 C          -1.7446  -26.3318  -45.5629 C.2       13 UNK         0.5000 
     78 O          -2.0584  -27.5103  -45.7313 O.2       13 UNK        -0.5000 
     79 N          -0.5891  -25.8004  -45.9885 N.am      14 UNK        -0.5000 
     80 CA          0.4809  -26.5522  -46.6481 C.3       14 UNK         0.1400 
     81 CB          1.7439  -25.6820  -46.7375 C.3       14 UNK        -0.1800 
     82 C           0.0912  -27.0802  -48.0392 C.2       14 UNK         0.5000 
     83 O           0.3598  -28.2431  -48.3437 O.2       14 UNK        -0.5000 
     84 N          -0.5403  -26.2249  -48.8532 N.am      15 UNK        -0.5000 
     85 CA         -0.9990  -26.5602  -50.2036 C.3       15 UNK         0.1400 
     86 CB         -1.0331  -25.2756  -51.0467 C.3       15 UNK        -0.1800 
     87 C          -2.3651  -27.2769  -50.2213 C.2       15 UNK         0.5000 
     88 O          -2.7738  -27.7585  -51.2781 O.2       15 UNK        -0.5000 
     89 N          -3.0481  -27.3204  -49.0666 N.am      16 UNK        -0.5000 
     90 CA         -4.3820  -27.8849  -48.8105 C.3       16 UNK         0.1400 
     91 CB         -4.4246  -29.3927  -49.1332 C.3       16 UNK        -0.1800 
     92 C          -5.5423  -27.1073  -49.4737 C.2       16 UNK         0.5000 
     93 O          -6.6880  -27.5579  -49.4214 O.2       16 UNK        -0.5000 
     94 N          -5.2346  -25.9440  -50.0519 N.am      17 UNK        -0.5000 
     95 CA         -6.1278  -24.9823  -50.6790 C.3       17 UNK         0.1400 
     96 CB         -6.6799  -25.5392  -52.0048 C.3       17 UNK        -0.1800 
     97 C          -5.3081  -23.7101  -50.9290 C.2       17 UNK         0.5000 
     98 O          -4.0791  -23.7793  -51.0118 O.2       17 UNK        -0.5000 
     99 N          -5.9847  -22.5693  -51.0929 N.am      18 UNK        -0.5000 
    100 CA        -5.3790  -21.2784  -51.4356 C.3       18 UNK         0.1400 
    101 CB        -6.3293  -20.1636  -50.9665 C.3       18 UNK        -0.1800 
    102 C         -5.0468  -21.2000  -52.9447 C.2       18 UNK         0.5000 
    103 O         -5.5622  -20.3379  -53.6550 O.2       18 UNK        -0.5000 
    104 N         -4.2353  -22.1550  -53.4126 N.am      19 UNK        -0.5000 
    105 CA        -4.0516  -22.4984  -54.8237 C.3       19 UNK         0.1400 
    106 CB        -3.6854  -23.9907  -54.8988 C.3       19 UNK        -0.1800 
    107 C         -3.0079  -21.6509  -55.5771 C.2       19 UNK         0.5000 
    108 O         -2.9030  -21.7957  -56.7963 O.2       19 UNK        -0.5000 
    109 N         -2.2354  -20.8217  -54.8621 N.am      20 UNK        -0.5000 
    110 CA        -1.1850  -19.9710  -55.4276 C.3       20 UNK         0.1400 
    111 CB        -0.0586  -19.7981  -54.3917 C.3       20 UNK        -0.1800 
    112 C         -1.7718  -18.6418  -55.9507 C.2       20 UNK         0.5000 
    113 O         -2.6284  -18.6653  -56.8359 O.2       20 UNK        -0.5000 
    114 N         -1.3137  -17.5016  -55.4113 N.am      21 UNK        -0.5000 
    115 CA        -1.6994  -16.1471  -55.8315 C.3       21 UNK         0.1400 
    116 CB        -0.8825  -15.1207  -55.0334 C.3       21 UNK        -0.1800 
    117 C         -3.2058  -15.8468  -55.6985 C.2       21 UNK         0.5000 
    118 O         -3.7371  -15.0470  -56.4700 O.2       21 UNK        -0.5000 
    119 N         -3.8614  -16.5132  -54.7426 N.am      22 UNK        -0.5000 
    120 CA        -5.3180  -16.5001  -54.5496 C.3       22 UNK         0.1400 
    121 C         -6.1095  -17.4047  -55.5434 C.2       22 UNK         0.5000 
    122 N         -5.4751  -18.1695  -56.4248 N.am      22 UNK        -0.7600 
    123 O         -7.3377  -17.3906  -55.5345 O.2       22 UNK        -0.5000 
    124 C124       -5.6853  -16.8111  -53.0778 C.3       23 UNK        -0.0398 
    125 S125       -5.1751  -15.4669  -51.9546 S.3       23 UNK        -0.2404 
    126 C126       -4.4472  -16.3750  -50.5541 C.3       23 UNK        -0.0205 
    127 H127       -1.5583  -10.1002  -47.7916 H         1 UNK         0.0600 
    128 H128       -0.6059  -10.9900  -48.9678 H         1 UNK         0.0600 
    129 H129        0.1111  -10.5167  -47.4166 H         1 UNK         0.0600 
    130 H130       -1.0642  -14.1757  -47.1554 H         1 UNK         0.3000 
    131 H131        0.2697  -13.0497  -49.3966 H         1 UNK         0.0600 
    132 H132       -0.3082  -15.5394  -48.8811 H         1 UNK         0.0800 
    133 H133        1.1178  -15.5799  -47.9121 H         1 UNK         0.0800 
    134 H134        0.0165  -14.4385  -51.7109 H         1 UNK         0.0800 
    135 H135        0.9122  -15.7082  -52.5067 H         1 UNK         0.0800 
    136 H136       -2.2330  -14.9333  -51.1732 H         1 UNK         0.1150 
    137 H137       -3.5394  -18.9525  -50.4919 H         1 UNK         0.1150 
    138 H138        0.5848  -18.1475  -51.3599 H         1 UNK         0.1150 
    139 H139       -1.9344  -20.7146  -50.2044 H         1 UNK         0.0800 
    140 H140       -1.1659  -20.6713  -51.7670 H         1 UNK         0.0800 
    141 H141        0.9281  -19.5431  -47.9091 H         1 UNK         0.0800 
    142 H142       -0.7906  -19.6175  -48.1670 H         1 UNK         0.0800 
    143 H143        0.9822  -22.0451  -47.5457 H         1 UNK         0.0600 
    144 H144       -0.1173  -20.1767  -45.6722 H         1 UNK         0.3000 
    145 H145       -0.2531  -22.3345  -42.8685 H         1 UNK         0.0600 
    146 H146        1.2998  -20.5503  -41.9551 H         1 UNK         0.0600 
    147 H147        2.1214  -21.8306  -42.8353 H         1 UNK         0.0600 
    148 H148        1.8794  -20.2712  -43.5986 H         1 UNK         0.0600 
    149 H149       -0.5939  -19.4868  -43.3816 H         1 UNK         0.3000 
    150 H150       -4.1037  -19.7457  -44.0228 H         1 UNK         0.0600 
    151 H151       -4.0761  -19.8877  -41.5682 H         1 UNK         0.0600 
    152 H152       -4.2271  -18.2049  -42.0532 H         1 UNK         0.0600 
    153 H153       -2.6812  -18.8247  -41.4746 H         1 UNK         0.0600 
    154 H154       -2.4366  -17.4741  -43.6633 H         1 UNK         0.3000 
    155 H155       -0.8677  -17.2973  -46.6199 H         1 UNK         0.0600 
    156 H156       -2.3589  -15.6046  -47.7797 H         1 UNK         0.0600 
    157 H157       -3.7473  -16.3273  -46.9756 H         1 UNK         0.0600 
    158 H158       -2.7929  -17.2759  -48.0930 H         1 UNK         0.0600 
    159 H159       -0.5184  -15.9142  -44.9417 H         1 UNK         0.3000 
    160 H160       -1.0613  -13.4070  -44.2171 H         1 UNK         0.0600 
    161 H161       -2.0536  -12.6482  -42.0518 H         1 UNK         0.0600 
    162 H162       -3.2480  -12.7089  -43.3381 H         1 UNK         0.0600 
    163 H163       -3.2187  -13.9705  -42.1147 H         1 UNK         0.0600 
    164 H164        0.3600  -14.5382  -42.9646 H         1 UNK         0.3000 
    165 H165        0.7681  -15.7750  -40.5406 H         1 UNK         0.0600 
    166 H166       -0.2680  -18.5625  -41.2859 H         1 UNK         0.0600 
    167 H167        1.0085  -18.2220  -40.1220 H         1 UNK         0.0600 
    168 H168       -0.6329  -17.6828  -39.8086 H         1 UNK         0.0600 
    169 H169        2.3710  -16.1570  -41.9991 H         1 UNK         0.3000 
    170 H170        3.1739  -18.3665  -44.2657 H         1 UNK         0.0600 
    171 H171        1.7890  -17.6053  -46.1659 H         1 UNK         0.0600 
    172 H172        2.0688  -15.9216  -45.7394 H         1 UNK         0.0600 
    173 H173        3.4011  -16.9269  -46.3032 H         1 UNK         0.0600 
    174 H174        3.7307  -15.4762  -43.9349 H         1 UNK         0.3000 
    175 H175        5.8756  -15.9106  -41.2202 H         1 UNK         0.0600 
    176 H176        6.8188  -15.3451  -44.0854 H         1 UNK         0.0600 
    177 H177        7.6445  -14.8496  -42.6070 H         1 UNK         0.0600 
    178 H178        7.5040  -16.5538  -43.0056 H         1 UNK         0.0600 
    179 H179        5.3894  -13.6881  -42.9528 H         1 UNK         0.3000 
    180 H180        2.2827  -12.6358  -41.5769 H         1 UNK         0.0600 
    181 H181        5.0988  -11.4354  -41.3671 H         1 UNK         0.0600 
    182 H182        4.0065  -11.7221  -40.0177 H         1 UNK         0.0600 
    183 H183        3.5803  -10.5458  -41.2502 H         1 UNK         0.0600 
    184 H184        4.0277  -11.5747  -43.5952 H         1 UNK         0.3000 
    185 H185        3.1006  -11.5441  -45.8233 H         1 UNK         0.0600 
    186 H186        5.1759  -12.9808  -45.4681 H         1 UNK         0.0600 
    187 H187        4.2965  -14.3844  -46.0616 H         1 UNK         0.0600 
    188 H188        4.6481  -13.0349  -47.1349 H         1 UNK         0.0600 
    189 H189        1.2383  -13.6288  -46.0055 H         1 UNK         0.3000 
    190 H190       -2.3912  -21.0336  -46.7997 H         1 UNK         0.3000 
    191 H191       -3.6988  -22.8581  -48.4985 H         1 UNK         0.0600 
    192 H192       -4.7958  -20.8714  -47.5138 H         1 UNK         0.0600 
    193 H193       -5.6982  -22.3213  -47.0985 H         1 UNK         0.0600 
    194 H194       -4.6599  -21.5600  -45.8964 H         1 UNK         0.0600 
    195 H195       -2.5548  -23.2936  -45.1317 H         1 UNK         0.3000 
    196 H196       -3.6827  -25.9000  -44.7591 H         1 UNK         0.0600 
    197 H197       -2.0877  -26.0195  -42.8455 H         1 UNK         0.0600 
    198 H198       -2.9626  -24.4962  -42.8583 H         1 UNK         0.0600 
    199 H199       -1.2879  -24.5556  -43.4028 H         1 UNK         0.0600 
    200 H200       -0.3925  -24.8227  -45.7924 H         1 UNK         0.3000 
    201 H201        0.7134  -27.4162  -46.0220 H         1 UNK         0.0600 
    202 H202        2.0962  -25.3972  -45.7460 H         1 UNK         0.0600 
    203 H203        1.5624  -24.7671  -47.3032 H         1 UNK         0.0600 
    204 H204        2.5567  -26.2182  -47.2290 H         1 UNK         0.0600 
    205 H205       -0.7064  -25.2694  -48.5407 H         1 UNK         0.3000 
    206 H206       -0.2795  -27.2388  -50.6665 H         1 UNK         0.0600 
    207 H207       -0.0363  -24.8465  -51.1477 H         1 UNK         0.0600 
    208 H208       -1.4091  -25.4675  -52.0525 H         1 UNK         0.0600 
    209 H209       -1.6720  -24.5184  -50.5950 H         1 UNK         0.0600 
    210 H210       -2.6244  -26.8681  -48.2677 H         1 UNK         0.3000 
    211 H211       -4.5364  -27.7805  -47.7356 H         1 UNK         0.0600 
    212 H212       -4.3636  -29.5820  -50.2050 H         1 UNK         0.0600 
    213 H213       -5.3530  -29.8414  -48.7781 H         1 UNK         0.0600 
    214 H214       -3.6041  -29.9228  -48.6495 H         1 UNK         0.0600 
    215 H215       -4.2717  -25.6318  -50.0199 H         1 UNK         0.3000 
    216 H216       -6.9454  -24.7528  -49.9933 H         1 UNK         0.0600 
    217 H217       -7.2993  -26.4208  -51.8413 H         1 UNK         0.0600 
    218 H218       -5.8752  -25.8189  -52.6859 H         1 UNK         0.0600 
    219 H219       -7.3007  -24.8013  -52.5142 H         1 UNK         0.0600 
    220 H220       -6.9937  -22.5891  -51.0532 H         1 UNK         0.3000 
    221 H221       -4.4408  -21.1695  -50.8878 H         1 UNK         0.0600 
    222 H222       -5.9062  -19.1807  -51.1582 H         1 UNK         0.0600 
    223 H223       -7.2919  -20.2115  -51.4770 H         1 UNK         0.0600 
    224 H224       -6.5140  -20.2293  -49.8940 H         1 UNK         0.0600 
    225 H225       -3.8740  -22.8219  -52.7373 H         1 UNK         0.3000 
    226 H226       -5.0038  -22.3601  -55.3404 H         1 UNK         0.0600 
    227 H227       -3.5763  -24.3201  -55.9328 H         1 UNK         0.0600 
    228 H228       -2.7456  -24.1994  -54.3858 H         1 UNK         0.0600 
    229 H229       -4.4590  -24.6097  -54.4442 H         1 UNK         0.0600 
    230 H230       -2.4093  -20.7474  -53.8718 H         1 UNK         0.3000 
    231 H231       -0.7459  -20.4757  -56.2907 H         1 UNK         0.0600 
    232 H232        0.7877  -19.2555  -54.8150 H         1 UNK         0.0600 
    233 H233        0.3190  -20.7647  -54.0573 H         1 UNK         0.0600 
    234 H234       -0.3978  -19.2542  -53.5140 H         1 UNK         0.0600 
    235 H235       -0.6166  -17.5619  -54.6838 H         1 UNK         0.3000 
    236 H236       -1.4380  -16.0467  -56.8868 H         1 UNK         0.0600 
    237 H237        0.1885  -15.2986  -55.1307 H         1 UNK         0.0600 
    238 H238       -1.0772  -14.1080  -55.3886 H         1 UNK         0.0600 
    239 H239       -1.1383  -15.1478  -53.9746 H         1 UNK         0.0600 
    240 H240       -3.3383  -17.1428  -54.1536 H         1 UNK         0.3000 
    241 H241       -5.6688  -15.4881  -54.7611 H         1 UNK         0.0600 
    242 H242       -6.0168  -18.7372  -57.0558 H         1 UNK         0.3800 
    243 H243       -4.4614  -18.2086  -56.4693 H         1 UNK         0.3800 
    244 H244       -5.2212  -17.7489  -52.7743 H         1 UNK         0.0800 
    245 H245       -6.7615  -16.9443  -52.9552 H         1 UNK         0.0800 
    246 H246       -4.3942  -15.6968  -49.7016 H         1 UNK         0.0800 
    247 H247       -5.1158  -17.1811  -50.2519 H         1 UNK         0.0800 
@<TRIPOS>BOND
     1    1    2 1    
     2    1  127 1    
     3    1  128 1    
     4    1  129 1    
     5    2    3 2    
     6    2    4 am   BACKBONE|DICT|INTERRES
     7    4    5 1    
     8    4  130 1    
     9    5    6 1    
    10    5   65 1    
    11    5  131 1    
    12    6    7 1    
    13    6  132 1    
    14    6  133 1    
    15    7    8 1    
    16    8    9 1    
    17    8  134 1    
    18    8  135 1    
    19    9   10 ar   
    20    9   14 ar   
    21   10   11 ar   
    22   10  136 1    
    23   11   12 ar   
    24   11  126 1    
    25   12   13 ar   
    26   12  137 1    
    27   13   14 ar   
    28   13   15 1    
    29   14  138 1    
    30   15   16 1    
    31   15  139 1    
    32   15  140 1    
    33   16   17 1    
    34   17   18 1    
    35   17  141 1    
    36   17  142 1    
    37   18   19 1    
    38   18   67 1    
    39   18  143 1    
    40   19   20 am   BACKBONE|DICT|INTERRES
    41   19  144 1    
    42   20   21 2    
    43   20   22 1    
    44   22   23 1    
    45   22   24 1    
    46   22  145 1    
    47   23  146 1    
    48   23  147 1    
    49   23  148 1    
    50   24   25 am   BACKBONE|DICT|INTERRES
    51   24  149 1    
    52   25   26 2    
    53   25   27 1    
    54   27   28 1    
    55   27   29 1    
    56   27  150 1    
    57   28  151 1    
    58   28  152 1    
    59   28  153 1    
    60   29   30 am   BACKBONE|DICT|INTERRES
    61   29  154 1    
    62   30   31 2    
    63   30   32 1    
    64   32   33 1    
    65   32   34 1    
    66   32  155 1    
    67   33  156 1    
    68   33  157 1    
    69   33  158 1    
    70   34   35 am   BACKBONE|DICT|INTERRES
    71   34  159 1    
    72   35   36 2    
    73   35   37 1    
    74   37   38 1    
    75   37   39 1    
    76   37  160 1    
    77   38  161 1    
    78   38  162 1    
    79   38  163 1    
    80   39   40 am   BACKBONE|DICT|INTERRES
    81   39  164 1    
    82   40   41 2    
    83   40   42 1    
    84   42   43 1    
    85   42   44 1    
    86   42  165 1    
    87   43  166 1    
    88   43  167 1    
    89   43  168 1    
    90   44   45 am   BACKBONE|DICT|INTERRES
    91   44  169 1    
    92   45   46 2    
    93   45   47 1    
    94   47   48 1    
    95   47   49 1    
    96   47  170 1    
    97   48  171 1    
    98   48  172 1    
    99   48  173 1    
   100   49   50 am   BACKBONE|DICT|INTERRES
   101   49  174 1    
   102   50   51 2    
   103   50   52 1    
   104   52   53 1    
   105   52   54 1    
   106   52  175 1    
   107   53  176 1    
   108   53  177 1    
   109   53  178 1    
   110   54   55 am   BACKBONE|DICT|INTERRES
   111   54  179 1    
   112   55   56 2    
   113   55   57 1    
   114   57   58 1    
   115   57   59 1    
   116   57  180 1    
   117   58  181 1    
   118   58  182 1    
   119   58  183 1    
   120   59   60 am   BACKBONE|DICT|INTERRES
   121   59  184 1    
   122   60   61 2    
   123   60   62 1    
   124   62   63 1    
   125   62   64 1    
   126   62  185 1    
   127   63  186 1    
   128   63  187 1    
   129   63  188 1    
   130   64   65 am   BACKBONE|DICT|INTERRES
   131   64  189 1    
   132   65   66 2    
   133   67   68 2    
   134   67   69 am   BACKBONE|DICT|INTERRES
   135   69   70 1    
   136   69  190 1    
   137   70   71 1    
   138   70   72 1    
   139   70  191 1    
   140   71  192 1    
   141   71  193 1    
   142   71  194 1    
   143   72   73 2    
   144   72   74 am   BACKBONE|DICT|INTERRES
   145   74   75 1    
   146   74  195 1    
   147   75   76 1    
   148   75   77 1    
   149   75  196 1    
   150   76  197 1    
   151   76  198 1    
   152   76  199 1    
   153   77   78 2    
   154   77   79 am   BACKBONE|DICT|INTERRES
   155   79   80 1    
   156   79  200 1    
   157   80   81 1    
   158   80   82 1    
   159   80  201 1    
   160   81  202 1    
   161   81  203 1    
   162   81  204 1    
   163   82   83 2    
   164   82   84 am   BACKBONE|DICT|INTERRES
   165   84   85 1    
   166   84  205 1    
   167   85   86 1    
   168   85   87 1    
   169   85  206 1    
   170   86  207 1    
   171   86  208 1    
   172   86  209 1    
   173   87   88 2    
   174   87   89 am   BACKBONE|DICT|INTERRES
   175   89   90 1    
   176   89  210 1    
   177   90   91 1    
   178   90   92 1    
   179   90  211 1    
   180   91  212 1    
   181   91  213 1    
   182   91  214 1    
   183   92   93 2    
   184   92   94 am   BACKBONE|DICT|INTERRES
   185   94   95 1    
   186   94  215 1    
   187   95   96 1    
   188   95   97 1    
   189   95  216 1    
   190   96  217 1    
   191   96  218 1    
   192   96  219 1    
   193   97   98 2    
   194   97   99 am   BACKBONE|DICT|INTERRES
   195   99  100 1    
   196   99  220 1    
   197  100  101 1    
   198  100  102 1    
   199  100  221 1    
   200  101  222 1    
   201  101  223 1    
   202  101  224 1    
   203  102  103 2    
   204  102  104 am   BACKBONE|DICT|INTERRES
   205  104  105 1    
   206  104  225 1    
   207  105  106 1    
   208  105  107 1    
   209  105  226 1    
   210  106  227 1    
   211  106  228 1    
   212  106  229 1    
   213  107  108 2    
   214  107  109 am   BACKBONE|DICT|INTERRES
   215  109  110 1    
   216  109  230 1    
   217  110  111 1    
   218  110  112 1    
   219  110  231 1    
   220  111  232 1    
   221  111  233 1    
   222  111  234 1    
   223  112  113 2    
   224  112  114 am   BACKBONE|DICT|INTERRES
   225  114  115 1    
   226  114  235 1    
   227  115  116 1    
   228  115  117 1    
   229  115  236 1    
   230  116  237 1    
   231  116  238 1    
   232  116  239 1    
   233  117  118 2    
   234  117  119 am   BACKBONE|DICT|INTERRES
   235  119  120 1    
   236  119  240 1    
   237  120  121 1    
   238  120  124 1    
   239  120  241 1    
   240  121  122 am   BACKBONE|DICT|INTERRES
   241  121  123 2    
   242  122  242 1    
   243  122  243 1    
   244  124  125 1    
   245  124  244 1    
   246  124  245 1    
   247  125  126 1    
   248  126  246 1    
   249  126  247 1    
@<TRIPOS>SUBSTRUCTURE
     1 UNK         1 GROUP             0       ****    0 ROOT    
