@<TRIPOS>MOLECULE
3R540
247   249    1
SMALL
USER_CHARGES


@<TRIPOS>ATOM
      1 CA         -5.0202  -14.1928  -46.1480 C.3       0 UNK        -0.1800 
      2 C          -4.6460  -14.0633  -47.6181 C.2       0 UNK         0.5000 
      3 O          -5.4999  -13.7260  -48.4389 O.2       0 UNK        -0.5000 
      4 N          -3.3821  -14.3432  -47.9529 N.am      1 UNK        -0.5000 
      5 CA         -2.8479  -14.2803  -49.3161 C.3       1 UNK         0.1400 
      6 C6         -1.6427  -15.2347  -49.5099 C.3       23 UNK        -0.0398 
      7 S7         -2.0736  -16.9630  -49.1094 S.3       23 UNK        -0.2404 
      8 C8         -0.7637  -17.4100  -47.9306 C.3       23 UNK        -0.0205 
      9 C9          0.4338  -17.9955  -48.6577 C.ar      23 UNK        -0.0193 
     10 C10         1.3700  -17.1607  -49.2733 C.ar      23 UNK        -0.1150 
     11 C11         2.4061  -17.7080  -50.0343 C.ar      23 UNK        -0.0193 
     12 C12         2.5555  -19.0968  -50.0998 C.ar      23 UNK        -0.1150 
     13 C13         1.6306  -19.9426  -49.4828 C.ar      23 UNK        -0.0193 
     14 C14         0.5665  -19.3818  -48.7704 C.ar      23 UNK        -0.1150 
     15 C15         1.7431  -21.4517  -49.6640 C.3       23 UNK        -0.0205 
     16 S16         2.2414  -22.3056  -48.1334 S.3       23 UNK        -0.2404 
     17 C17         0.6356  -22.5191  -47.2982 C.3       23 UNK        -0.0398 
     18 CA          0.3634  -23.9838  -46.8933 C.3       11 UNK         0.1400 
     19 N           1.3092  -24.4843  -45.8928 N.am      11 UNK        -0.5000 
     20 C           1.4340  -25.7721  -45.5432 C.2       10 UNK         0.5000 
     21 O           0.7716  -26.6829  -46.0382 O.2       10 UNK        -0.5000 
     22 CA          2.4313  -26.0857  -44.4140 C.3       10 UNK         0.1400 
     23 CB          3.8689  -26.1226  -44.9533 C.3       10 UNK        -0.1800 
     24 N           2.3469  -25.1228  -43.3156 N.am      10 UNK        -0.5000 
     25 C           1.2767  -24.9701  -42.5226 C.2       9 UNK         0.5000 
     26 O           0.2608  -25.6592  -42.6033 O.2       9 UNK        -0.5000 
     27 CA          1.3299  -23.8150  -41.5063 C.3       9 UNK         0.1400 
     28 CB          2.0112  -24.2689  -40.2068 C.3       9 UNK        -0.1800 
     29 N           2.0060  -22.6200  -42.0208 N.am      9 UNK        -0.5000 
     30 C           1.5964  -21.9137  -43.0825 C.2       8 UNK         0.5000 
     31 O           0.6237  -22.2208  -43.7767 O.2       8 UNK        -0.5000 
     32 CA          2.4495  -20.6923  -43.4648 C.3       8 UNK         0.1400 
     33 CB          3.5306  -21.0945  -44.4790 C.3       8 UNK        -0.1800 
     34 N           1.6250  -19.6328  -44.0431 N.am      8 UNK        -0.5000 
     35 C           0.7752  -18.8764  -43.3389 C.2       7 UNK         0.5000 
     36 O           0.6498  -18.9427  -42.1128 O.2       7 UNK        -0.5000 
     37 CA         -0.1020  -17.9009  -44.1458 C.3       7 UNK         0.1400 
     38 CB         -1.4671  -18.5419  -44.4419 C.3       7 UNK        -0.1800 
     39 N          -0.3165  -16.6413  -43.4345 N.am      7 UNK        -0.5000 
     40 C           0.6422  -15.7593  -43.1282 C.2       6 UNK         0.5000 
     41 O           1.8104  -15.8568  -43.5098 O.2       6 UNK        -0.5000 
     42 CA          0.2032  -14.5489  -42.2830 C.3       6 UNK         0.1400 
     43 CB          1.3750  -13.9206  -41.5076 C.3       6 UNK        -0.1800 
     44 N          -0.3967  -13.5255  -43.1327 N.am      6 UNK        -0.5000 
     45 C          -1.6396  -13.5549  -43.6313 C.2       5 UNK         0.5000 
     46 O          -2.4602  -14.4352  -43.3702 O.2       5 UNK        -0.5000 
     47 CA         -2.0269  -12.4098  -44.5875 C.3       5 UNK         0.1400 
     48 CB         -2.7936  -11.3120  -43.8356 C.3       5 UNK        -0.1800 
     49 N          -0.8709  -11.8162  -45.2634 N.am      5 UNK        -0.5000 
     50 C          -0.1958  -12.4162  -46.2512 C.2       4 UNK         0.5000 
     51 O          -0.4898  -13.5213  -46.7147 O.2       4 UNK        -0.5000 
     52 CA          1.0384  -11.6777  -46.7797 C.3       4 UNK         0.1400 
     53 CB          2.3068  -12.1971  -46.0747 C.3       4 UNK        -0.1800 
     54 N           1.1198  -11.8902  -48.2196 N.am      4 UNK        -0.5000 
     55 C           1.9144  -11.2285  -49.0685 C.2       3 UNK         0.5000 
     56 O           2.6983  -10.3417  -48.7279 O.2       3 UNK        -0.5000 
     57 CA          1.8077  -11.6165  -50.5543 C.3       3 UNK         0.1400 
     58 CB          2.6334  -12.8787  -50.8405 C.3       3 UNK        -0.1800 
     59 N           0.4252  -11.8353  -50.9822 N.am      3 UNK        -0.5000 
     60 C          -0.4764  -10.8588  -51.1607 C.2       2 UNK         0.5000 
     61 O          -0.2255   -9.6610  -51.0226 O.2       2 UNK        -0.5000 
     62 CA         -1.9017  -11.2928  -51.5554 C.3       2 UNK         0.1400 
     63 CB         -2.0466  -11.3501  -53.0840 C.3       2 UNK        -0.1800 
     64 N          -2.2866  -12.5887  -50.9940 N.am      2 UNK        -0.5000 
     65 C          -2.4790  -12.8297  -49.6918 C.2       1 UNK         0.5000 
     66 O          -2.3547  -11.9662  -48.8197 O.2       1 UNK        -0.5000 
     67 C          -1.0941  -24.1313  -46.4224 C.2       11 UNK         0.5000 
     68 O          -1.9578  -24.4539  -47.2380 O.2       11 UNK        -0.5000 
     69 N          -1.3417  -23.8995  -45.1268 N.am      12 UNK        -0.5000 
     70 CA         -2.6416  -24.0935  -44.4889 C.3       12 UNK         0.1400 
     71 CB         -2.6198  -23.4839  -43.0795 C.3       12 UNK        -0.1800 
     72 C          -3.0524  -25.5769  -44.4527 C.2       12 UNK         0.5000 
     73 O          -4.1904  -25.8952  -44.7967 O.2       12 UNK        -0.5000 
     74 N          -2.1104  -26.4580  -44.0844 N.am      13 UNK        -0.5000 
     75 CA         -2.2918  -27.9115  -44.0470 C.3       13 UNK         0.1400 
     76 CB         -1.0799  -28.5632  -43.3641 C.3       13 UNK        -0.1800 
     77 C          -2.5259  -28.5278  -45.4388 C.2       13 UNK         0.5000 
     78 O          -3.3767  -29.4071  -45.5786 O.2       13 UNK        -0.5000 
     79 N          -1.7896  -28.0385  -46.4460 N.am      14 UNK        -0.5000 
     80 CA         -1.9290  -28.4350  -47.8497 C.3       14 UNK         0.1400 
     81 CB         -0.6667  -28.0011  -48.6123 C.3       14 UNK        -0.1800 
     82 C          -3.1817  -27.8522  -48.5351 C.2       14 UNK         0.5000 
     83 O          -3.5355  -28.3102  -49.6219 O.2       14 UNK        -0.5000 
     84 N          -3.7976  -26.8350  -47.9133 N.am      15 UNK        -0.5000 
     85 CA         -4.8961  -26.0034  -48.4187 C.3       15 UNK         0.1400 
     86 CB         -6.1725  -26.8352  -48.6586 C.3       15 UNK        -0.1800 
     87 C          -4.4943  -25.1477  -49.6404 C.2       15 UNK         0.5000 
     88 O          -5.3570  -24.7175  -50.4062 O.2       15 UNK        -0.5000 
     89 N          -3.1892  -24.8798  -49.7801 N.am      16 UNK        -0.5000 
     90 CA         -2.6078  -24.0020  -50.7938 C.3       16 UNK         0.1400 
     91 CB         -1.0944  -24.2527  -50.8694 C.3       16 UNK        -0.1800 
     92 C          -2.8948  -22.5219  -50.4936 C.2       16 UNK         0.5000 
     93 O          -3.0754  -21.7382  -51.4245 O.2       16 UNK        -0.5000 
     94 N          -2.9842  -22.1827  -49.1981 N.am      17 UNK        -0.5000 
     95 CA         -3.3040  -20.8483  -48.6798 C.3       17 UNK         0.1400 
     96 CB         -3.0242  -20.8303  -47.1673 C.3       17 UNK        -0.1800 
     97 C          -4.7483  -20.3798  -48.9663 C.2       17 UNK         0.5000 
     98 O          -5.0727  -19.2257  -48.6875 O.2       17 UNK        -0.5000 
     99 N          -5.5983  -21.2694  -49.5007 N.am      18 UNK        -0.5000 
    100 CA        -6.9558  -20.9549  -49.9467 C.3       18 UNK         0.1400 
    101 CB        -7.7203  -22.2639  -50.1943 C.3       18 UNK        -0.1800 
    102 C         -6.9812  -20.0665  -51.2071 C.2       18 UNK         0.5000 
    103 O         -7.9466  -19.3262  -51.4005 O.2       18 UNK        -0.5000 
    104 N         -5.9290  -20.1446  -52.0340 N.am      19 UNK        -0.5000 
    105 CA        -5.7197  -19.2651  -53.1800 C.3       19 UNK         0.1400 
    106 CB        -4.8804  -20.0016  -54.2352 C.3       19 UNK        -0.1800 
    107 C         -5.0098  -17.9825  -52.7205 C.2       19 UNK         0.5000 
    108 O         -4.0440  -18.0617  -51.9589 O.2       19 UNK        -0.5000 
    109 N         -5.4717  -16.8249  -53.2104 N.am      20 UNK        -0.5000 
    110 CA        -4.8975  -15.5179  -52.8789 C.3       20 UNK         0.1400 
    111 CB        -5.8225  -14.4022  -53.3856 C.3       20 UNK        -0.1800 
    112 C         -3.4728  -15.3290  -53.4303 C.2       20 UNK         0.5000 
    113 O         -2.6410  -14.7051  -52.7707 O.2       20 UNK        -0.5000 
    114 N         -3.2049  -15.8976  -54.6117 N.am      21 UNK        -0.5000 
    115 CA        -1.9110  -15.8710  -55.2923 C.3       21 UNK         0.1400 
    116 CB        -2.1527  -15.9984  -56.8075 C.3       21 UNK        -0.1800 
    117 C         -0.9597  -16.9559  -54.7442 C.2       21 UNK         0.5000 
    118 O         -0.5020  -17.8147  -55.5004 O.2       21 UNK        -0.5000 
    119 N         -0.6879  -16.8944  -53.4349 N.am      22 UNK        -0.5000 
    120 CA         0.1794  -17.8181  -52.6841 C.3       22 UNK         0.1400 
    121 C         -0.3412  -19.2863  -52.6546 C.2       22 UNK         0.5000 
    122 N         -1.6223  -19.4919  -52.3832 N.am      22 UNK        -0.7600 
    123 O          0.4037  -20.2425  -52.8545 O.2       22 UNK        -0.5000 
    124 C124        1.6852  -17.6768  -53.0672 C.3       23 UNK        -0.0398 
    125 S125        2.4192  -16.1645  -52.3470 S.3       23 UNK        -0.2404 
    126 C126        3.2986  -16.8068  -50.8752 C.3       23 UNK        -0.0205 
    127 H127       -5.1686  -13.2066  -45.7080 H         1 UNK         0.0600 
    128 H128       -4.2488  -14.7132  -45.5798 H         1 UNK         0.0600 
    129 H129       -5.9477  -14.7560  -46.0447 H         1 UNK         0.0600 
    130 H130       -2.7009  -14.5545  -47.2373 H         1 UNK         0.3000 
    131 H131       -3.6324  -14.6003  -50.0034 H         1 UNK         0.0600 
    132 H132       -1.2921  -15.2190  -50.5422 H         1 UNK         0.0800 
    133 H133       -0.7989  -14.9093  -48.9024 H         1 UNK         0.0800 
    134 H134       -0.4702  -16.5524  -47.3229 H         1 UNK         0.0800 
    135 H135       -1.1713  -18.1483  -47.2413 H         1 UNK         0.0800 
    136 H136        1.2514  -16.0880  -49.2258 H         1 UNK         0.1150 
    137 H137        3.3552  -19.5210  -50.6904 H         1 UNK         0.1150 
    138 H138       -0.1807  -20.0179  -48.3246 H         1 UNK         0.1150 
    139 H139        0.7993  -21.8486  -50.0400 H         1 UNK         0.0800 
    140 H140        2.4820  -21.6809  -50.4333 H         1 UNK         0.0800 
    141 H141       -0.1522  -22.1868  -47.9738 H         1 UNK         0.0800 
    142 H142        0.6002  -21.8553  -46.4331 H         1 UNK         0.0800 
    143 H143        0.4721  -24.6058  -47.7844 H         1 UNK         0.0600 
    144 H144        1.8616  -23.7918  -45.4108 H         1 UNK         0.3000 
    145 H145        2.1880  -27.0742  -44.0186 H         1 UNK         0.0600 
    146 H146        4.5738  -26.4183  -44.1760 H         1 UNK         0.0600 
    147 H147        3.9615  -26.8442  -45.7661 H         1 UNK         0.0600 
    148 H148        4.1820  -25.1516  -45.3392 H         1 UNK         0.0600 
    149 H149        3.1388  -24.5127  -43.1782 H         1 UNK         0.3000 
    150 H150        0.3005  -23.5370  -41.2714 H         1 UNK         0.0600 
    151 H151        3.0578  -24.5292  -40.3690 H         1 UNK         0.0600 
    152 H152        1.5146  -25.1474  -39.7925 H         1 UNK         0.0600 
    153 H153        1.9726  -23.4877  -39.4474 H         1 UNK         0.0600 
    154 H154        2.8202  -22.3104  -41.5098 H         1 UNK         0.3000 
    155 H155        2.9378  -20.3043  -42.5682 H         1 UNK         0.0600 
    156 H156        3.0953  -21.4866  -45.3978 H         1 UNK         0.0600 
    157 H157        4.1852  -21.8657  -44.0711 H         1 UNK         0.0600 
    158 H158        4.1591  -20.2440  -44.7437 H         1 UNK         0.0600 
    159 H159        1.6527  -19.5422  -45.0476 H         1 UNK         0.3000 
    160 H160        0.3954  -17.6742  -45.0910 H         1 UNK         0.0600 
    161 H161       -2.0025  -18.7872  -43.5238 H         1 UNK         0.0600 
    162 H162       -1.3475  -19.4680  -45.0053 H         1 UNK         0.0600 
    163 H163       -2.1011  -17.8773  -45.0292 H         1 UNK         0.0600 
    164 H164       -1.2582  -16.4532  -43.1179 H         1 UNK         0.3000 
    165 H165       -0.5344  -14.8902  -41.5533 H         1 UNK         0.0600 
    166 H166        1.0309  -13.1115  -40.8631 H         1 UNK         0.0600 
    167 H167        1.8600  -14.6600  -40.8690 H         1 UNK         0.0600 
    168 H168        2.1348  -13.5149  -42.1769 H         1 UNK         0.0600 
    169 H169        0.2119  -12.7769  -43.4263 H         1 UNK         0.3000 
    170 H170       -2.6880  -12.8227  -45.3496 H         1 UNK         0.0600 
    171 H171       -3.6792  -11.7203  -43.3465 H         1 UNK         0.0600 
    172 H172       -2.1785  -10.8452  -43.0653 H         1 UNK         0.0600 
    173 H173       -3.1319  -10.5307  -44.5165 H         1 UNK         0.0600 
    174 H174       -0.5743  -10.9067  -44.9393 H         1 UNK         0.3000 
    175 H175        0.9236  -10.6085  -46.5897 H         1 UNK         0.0600 
    176 H176        2.2299  -12.0801  -44.9931 H         1 UNK         0.0600 
    177 H177        2.4717  -13.2561  -46.2783 H         1 UNK         0.0600 
    178 H178        3.1961  -11.6534  -46.3925 H         1 UNK         0.0600 
    179 H179        0.4716  -12.5810  -48.5723 H         1 UNK         0.3000 
    180 H180        2.2261  -10.7982  -51.1445 H         1 UNK         0.0600 
    181 H181        2.2430  -13.7461  -50.3070 H         1 UNK         0.0600 
    182 H182        3.6719  -12.7455  -50.5349 H         1 UNK         0.0600 
    183 H183        2.6373  -13.1114  -51.9054 H         1 UNK         0.0600 
    184 H184        0.1387  -12.7887  -51.1430 H         1 UNK         0.3000 
    185 H185       -2.5946  -10.5397  -51.1741 H         1 UNK         0.0600 
    186 H186       -1.7921  -10.3915  -53.5379 H         1 UNK         0.0600 
    187 H187       -1.3934  -12.1062  -53.5219 H         1 UNK         0.0600 
    188 H188       -3.0707  -11.5859  -53.3742 H         1 UNK         0.0600 
    189 H189       -2.4064  -13.3484  -51.6635 H         1 UNK         0.3000 
    190 H190       -0.5873  -23.5581  -44.5384 H         1 UNK         0.3000 
    191 H191       -3.3880  -23.5555  -45.0769 H         1 UNK         0.0600 
    192 H192       -2.3653  -22.4242  -43.1133 H         1 UNK         0.0600 
    193 H193       -3.5967  -23.5706  -42.6025 H         1 UNK         0.0600 
    194 H194       -1.8948  -23.9804  -42.4349 H         1 UNK         0.0600 
    195 H195       -1.2095  -26.1089  -43.7686 H         1 UNK         0.3000 
    196 H196       -3.1752  -28.1208  -43.4404 H         1 UNK         0.0600 
    197 H197       -1.1929  -29.6469  -43.3157 H         1 UNK         0.0600 
    198 H198       -0.9635  -28.2027  -42.3419 H         1 UNK         0.0600 
    199 H199       -0.1541  -28.3517  -43.9003 H         1 UNK         0.0600 
    200 H200       -1.0538  -27.3697  -46.2363 H         1 UNK         0.3000 
    201 H201       -2.0026  -29.5233  -47.8988 H         1 UNK         0.0600 
    202 H202       -0.7144  -28.3045  -49.6589 H         1 UNK         0.0600 
    203 H203        0.2276  -28.4546  -48.1845 H         1 UNK         0.0600 
    204 H204       -0.5368  -26.9183  -48.5898 H         1 UNK         0.0600 
    205 H205       -3.4118  -26.5362  -47.0272 H         1 UNK         0.3000 
    206 H206       -5.1163  -25.2929  -47.6207 H         1 UNK         0.0600 
    207 H207       -6.4247  -27.4309  -47.7813 H         1 UNK         0.0600 
    208 H208       -7.0256  -26.1885  -48.8667 H         1 UNK         0.0600 
    209 H209       -6.0646  -27.5122  -49.5062 H         1 UNK         0.0600 
    210 H210       -2.5709  -25.1923  -49.0408 H         1 UNK         0.3000 
    211 H211       -3.0498  -24.2440  -51.7626 H         1 UNK         0.0600 
    212 H212       -0.6013  -24.0348  -49.9222 H         1 UNK         0.0600 
    213 H213       -0.6326  -23.6239  -51.6321 H         1 UNK         0.0600 
    214 H214       -0.8793  -25.2897  -51.1279 H         1 UNK         0.0600 
    215 H215       -2.8419  -22.9123  -48.5104 H         1 UNK         0.3000 
    216 H216       -2.6368  -20.1315  -49.1636 H         1 UNK         0.0600 
    217 H217       -3.2280  -19.8459  -46.7440 H         1 UNK         0.0600 
    218 H218       -1.9838  -21.0626  -46.9478 H         1 UNK         0.0600 
    219 H219       -3.6476  -21.5503  -46.6363 H         1 UNK         0.0600 
    220 H220       -5.2617  -22.2005  -49.6996 H         1 UNK         0.3000 
    221 H221       -7.4611  -20.4110  -49.1458 H         1 UNK         0.0600 
    222 H222       -7.2760  -22.8408  -51.0063 H         1 UNK         0.0600 
    223 H223       -7.7313  -22.8921  -49.3034 H         1 UNK         0.0600 
    224 H224       -8.7579  -22.0640  -50.4647 H         1 UNK         0.0600 
    225 H225       -5.1411  -20.7213  -51.7670 H         1 UNK         0.3000 
    226 H226       -6.6816  -19.0068  -53.6281 H         1 UNK         0.0600 
    227 H227       -4.6924  -19.3652  -55.1007 H         1 UNK         0.0600 
    228 H228       -3.9128  -20.3111  -53.8392 H         1 UNK         0.0600 
    229 H229       -5.3941  -20.8943  -54.5922 H         1 UNK         0.0600 
    230 H230       -6.2692  -16.8291  -53.8301 H         1 UNK         0.3000 
    231 H231       -4.8443  -15.4444  -51.7915 H         1 UNK         0.0600 
    232 H232       -5.9410  -14.4361  -54.4693 H         1 UNK         0.0600 
    233 H233       -5.4240  -13.4194  -53.1291 H         1 UNK         0.0600 
    234 H234       -6.8129  -14.4765  -52.9360 H         1 UNK         0.0600 
    235 H235       -3.9363  -16.4275  -55.0614 H         1 UNK         0.3000 
    236 H236       -1.4340  -14.9046  -55.1149 H         1 UNK         0.0600 
    237 H237       -2.7884  -15.1920  -57.1738 H         1 UNK         0.0600 
    238 H238       -1.2136  -15.9447  -57.3598 H         1 UNK         0.0600 
    239 H239       -2.6315  -16.9449  -57.0618 H         1 UNK         0.0600 
    240 H240       -1.1449  -16.1690  -52.8965 H         1 UNK         0.3000 
    241 H241        0.0789  -17.5066  -51.6459 H         1 UNK         0.0600 
    242 H242       -2.2685  -18.7297  -52.2028 H         1 UNK         0.3800 
    243 H243       -1.9741  -20.4378  -52.2877 H         1 UNK         0.3800 
    244 H244        2.2739  -18.5325  -52.7389 H         1 UNK         0.0800 
    245 H245        1.8109  -17.6482  -54.1495 H         1 UNK         0.0800 
    246 H246        4.1912  -17.3439  -51.1995 H         1 UNK         0.0800 
    247 H247        3.6473  -15.9685  -50.2707 H         1 UNK         0.0800 
@<TRIPOS>BOND
     1    1    2 1    
     2    1  127 1    
     3    1  128 1    
     4    1  129 1    
     5    2    3 2    
     6    2    4 am   BACKBONE|DICT|INTERRES
     7    4    5 1    
     8    4  130 1    
     9    5    6 1    
    10    5   65 1    
    11    5  131 1    
    12    6    7 1    
    13    6  132 1    
    14    6  133 1    
    15    7    8 1    
    16    8    9 1    
    17    8  134 1    
    18    8  135 1    
    19    9   10 ar   
    20    9   14 ar   
    21   10   11 ar   
    22   10  136 1    
    23   11   12 ar   
    24   11  126 1    
    25   12   13 ar   
    26   12  137 1    
    27   13   14 ar   
    28   13   15 1    
    29   14  138 1    
    30   15   16 1    
    31   15  139 1    
    32   15  140 1    
    33   16   17 1    
    34   17   18 1    
    35   17  141 1    
    36   17  142 1    
    37   18   19 1    
    38   18   67 1    
    39   18  143 1    
    40   19   20 am   BACKBONE|DICT|INTERRES
    41   19  144 1    
    42   20   21 2    
    43   20   22 1    
    44   22   23 1    
    45   22   24 1    
    46   22  145 1    
    47   23  146 1    
    48   23  147 1    
    49   23  148 1    
    50   24   25 am   BACKBONE|DICT|INTERRES
    51   24  149 1    
    52   25   26 2    
    53   25   27 1    
    54   27   28 1    
    55   27   29 1    
    56   27  150 1    
    57   28  151 1    
    58   28  152 1    
    59   28  153 1    
    60   29   30 am   BACKBONE|DICT|INTERRES
    61   29  154 1    
    62   30   31 2    
    63   30   32 1    
    64   32   33 1    
    65   32   34 1    
    66   32  155 1    
    67   33  156 1    
    68   33  157 1    
    69   33  158 1    
    70   34   35 am   BACKBONE|DICT|INTERRES
    71   34  159 1    
    72   35   36 2    
    73   35   37 1    
    74   37   38 1    
    75   37   39 1    
    76   37  160 1    
    77   38  161 1    
    78   38  162 1    
    79   38  163 1    
    80   39   40 am   BACKBONE|DICT|INTERRES
    81   39  164 1    
    82   40   41 2    
    83   40   42 1    
    84   42   43 1    
    85   42   44 1    
    86   42  165 1    
    87   43  166 1    
    88   43  167 1    
    89   43  168 1    
    90   44   45 am   BACKBONE|DICT|INTERRES
    91   44  169 1    
    92   45   46 2    
    93   45   47 1    
    94   47   48 1    
    95   47   49 1    
    96   47  170 1    
    97   48  171 1    
    98   48  172 1    
    99   48  173 1    
   100   49   50 am   BACKBONE|DICT|INTERRES
   101   49  174 1    
   102   50   51 2    
   103   50   52 1    
   104   52   53 1    
   105   52   54 1    
   106   52  175 1    
   107   53  176 1    
   108   53  177 1    
   109   53  178 1    
   110   54   55 am   BACKBONE|DICT|INTERRES
   111   54  179 1    
   112   55   56 2    
   113   55   57 1    
   114   57   58 1    
   115   57   59 1    
   116   57  180 1    
   117   58  181 1    
   118   58  182 1    
   119   58  183 1    
   120   59   60 am   BACKBONE|DICT|INTERRES
   121   59  184 1    
   122   60   61 2    
   123   60   62 1    
   124   62   63 1    
   125   62   64 1    
   126   62  185 1    
   127   63  186 1    
   128   63  187 1    
   129   63  188 1    
   130   64   65 am   BACKBONE|DICT|INTERRES
   131   64  189 1    
   132   65   66 2    
   133   67   68 2    
   134   67   69 am   BACKBONE|DICT|INTERRES
   135   69   70 1    
   136   69  190 1    
   137   70   71 1    
   138   70   72 1    
   139   70  191 1    
   140   71  192 1    
   141   71  193 1    
   142   71  194 1    
   143   72   73 2    
   144   72   74 am   BACKBONE|DICT|INTERRES
   145   74   75 1    
   146   74  195 1    
   147   75   76 1    
   148   75   77 1    
   149   75  196 1    
   150   76  197 1    
   151   76  198 1    
   152   76  199 1    
   153   77   78 2    
   154   77   79 am   BACKBONE|DICT|INTERRES
   155   79   80 1    
   156   79  200 1    
   157   80   81 1    
   158   80   82 1    
   159   80  201 1    
   160   81  202 1    
   161   81  203 1    
   162   81  204 1    
   163   82   83 2    
   164   82   84 am   BACKBONE|DICT|INTERRES
   165   84   85 1    
   166   84  205 1    
   167   85   86 1    
   168   85   87 1    
   169   85  206 1    
   170   86  207 1    
   171   86  208 1    
   172   86  209 1    
   173   87   88 2    
   174   87   89 am   BACKBONE|DICT|INTERRES
   175   89   90 1    
   176   89  210 1    
   177   90   91 1    
   178   90   92 1    
   179   90  211 1    
   180   91  212 1    
   181   91  213 1    
   182   91  214 1    
   183   92   93 2    
   184   92   94 am   BACKBONE|DICT|INTERRES
   185   94   95 1    
   186   94  215 1    
   187   95   96 1    
   188   95   97 1    
   189   95  216 1    
   190   96  217 1    
   191   96  218 1    
   192   96  219 1    
   193   97   98 2    
   194   97   99 am   BACKBONE|DICT|INTERRES
   195   99  100 1    
   196   99  220 1    
   197  100  101 1    
   198  100  102 1    
   199  100  221 1    
   200  101  222 1    
   201  101  223 1    
   202  101  224 1    
   203  102  103 2    
   204  102  104 am   BACKBONE|DICT|INTERRES
   205  104  105 1    
   206  104  225 1    
   207  105  106 1    
   208  105  107 1    
   209  105  226 1    
   210  106  227 1    
   211  106  228 1    
   212  106  229 1    
   213  107  108 2    
   214  107  109 am   BACKBONE|DICT|INTERRES
   215  109  110 1    
   216  109  230 1    
   217  110  111 1    
   218  110  112 1    
   219  110  231 1    
   220  111  232 1    
   221  111  233 1    
   222  111  234 1    
   223  112  113 2    
   224  112  114 am   BACKBONE|DICT|INTERRES
   225  114  115 1    
   226  114  235 1    
   227  115  116 1    
   228  115  117 1    
   229  115  236 1    
   230  116  237 1    
   231  116  238 1    
   232  116  239 1    
   233  117  118 2    
   234  117  119 am   BACKBONE|DICT|INTERRES
   235  119  120 1    
   236  119  240 1    
   237  120  121 1    
   238  120  124 1    
   239  120  241 1    
   240  121  122 am   BACKBONE|DICT|INTERRES
   241  121  123 2    
   242  122  242 1    
   243  122  243 1    
   244  124  125 1    
   245  124  244 1    
   246  124  245 1    
   247  125  126 1    
   248  126  246 1    
   249  126  247 1    
@<TRIPOS>SUBSTRUCTURE
     1 UNK         1 GROUP             0       ****    0 ROOT    
