@<TRIPOS>MOLECULE
3R540
247   249    1
SMALL
USER_CHARGES


@<TRIPOS>ATOM
      1 CA         -3.0643  -10.6559  -45.9670 C.3       0 UNK        -0.1800 
      2 C          -2.5020  -11.1532  -47.2906 C.2       0 UNK         0.5000 
      3 O          -1.3877  -10.7820  -47.6589 O.2       0 UNK        -0.5000 
      4 N          -3.2598  -12.0059  -47.9939 N.am      1 UNK        -0.5000 
      5 CA         -2.9230  -12.6040  -49.2964 C.3       1 UNK         0.1400 
      6 C6         -4.1045  -13.4315  -49.8677 C.3       23 UNK        -0.0398 
      7 S7         -4.7305  -14.7275  -48.7326 S.3       23 UNK        -0.2404 
      8 C8         -4.6739  -16.2288  -49.7624 C.3       23 UNK        -0.0205 
      9 C9         -3.2586  -16.7541  -49.9545 C.ar      23 UNK        -0.0193 
     10 C10        -2.5657  -16.4958  -51.1409 C.ar      23 UNK        -0.1150 
     11 C11        -1.2750  -16.9962  -51.3312 C.ar      23 UNK        -0.0193 
     12 C12        -0.6776  -17.7621  -50.3277 C.ar      23 UNK        -0.1150 
     13 C13        -1.3581  -18.0263  -49.1365 C.ar      23 UNK        -0.0193 
     14 C14        -2.6495  -17.5209  -48.9549 C.ar      23 UNK        -0.1150 
     15 C15        -0.6787  -18.8371  -48.0452 C.3       23 UNK        -0.0205 
     16 S16        -1.0996  -20.6023  -48.1540 S.3       23 UNK        -0.2404 
     17 C17        -2.3214  -20.7949  -46.8108 C.3       23 UNK        -0.0398 
     18 CA         -2.0575  -22.0902  -46.0083 C.3       11 UNK         0.1400 
     19 N          -0.8268  -22.0366  -45.2106 N.am      11 UNK        -0.5000 
     20 C          -0.2292  -23.1167  -44.6880 C.2       10 UNK         0.5000 
     21 O          -0.6484  -24.2632  -44.8390 O.2       10 UNK        -0.5000 
     22 CA          1.0069  -22.8833  -43.8011 C.3       10 UNK         0.1400 
     23 CB          2.2633  -22.6358  -44.6490 C.3       10 UNK        -0.1800 
     24 N           0.8117  -21.7880  -42.8510 N.am      10 UNK        -0.5000 
     25 C          -0.0879  -21.8091  -41.8568 C.2       9 UNK         0.5000 
     26 O          -0.8048  -22.7789  -41.6089 O.2       9 UNK        -0.5000 
     27 CA         -0.2473  -20.5215  -41.0268 C.3       9 UNK         0.1400 
     28 CB          0.8144  -20.4506  -39.9195 C.3       9 UNK        -0.1800 
     29 N          -0.1891  -19.3075  -41.8415 N.am      9 UNK        -0.5000 
     30 C          -1.0655  -18.9930  -42.8063 C.2       8 UNK         0.5000 
     31 O          -2.0527  -19.6723  -43.0840 O.2       8 UNK        -0.5000 
     32 CA         -0.7497  -17.7444  -43.6483 C.3       8 UNK         0.1400 
     33 CB         -1.1529  -16.4627  -42.9046 C.3       8 UNK        -0.1800 
     34 N           0.6602  -17.6774  -44.0372 N.am      8 UNK        -0.5000 
     35 C           1.2798  -18.6007  -44.7879 C.2       7 UNK         0.5000 
     36 O           0.7126  -19.5834  -45.2616 O.2       7 UNK        -0.5000 
     37 CA          2.7926  -18.4291  -45.0009 C.3       7 UNK         0.1400 
     38 CB          3.0943  -17.4228  -46.1207 C.3       7 UNK        -0.1800 
     39 N           3.4659  -18.0175  -43.7715 N.am      7 UNK        -0.5000 
     40 C           3.6153  -18.8042  -42.6967 C.2       6 UNK         0.5000 
     41 O           3.2529  -19.9797  -42.6519 O.2       6 UNK        -0.5000 
     42 CA          4.2313  -18.1465  -41.4491 C.3       6 UNK         0.1400 
     43 CB          5.7648  -18.1493  -41.5341 C.3       6 UNK        -0.1800 
     44 N           3.7568  -16.7750  -41.2534 N.am      6 UNK        -0.5000 
     45 C           2.4921  -16.4504  -40.9487 C.2       5 UNK         0.5000 
     46 O           1.6008  -17.2784  -40.7644 O.2       5 UNK        -0.5000 
     47 CA          2.1601  -14.9489  -40.8808 C.3       5 UNK         0.1400 
     48 CB          2.4502  -14.3948  -39.4782 C.3       5 UNK        -0.1800 
     49 N           2.8843  -14.1556  -41.8780 N.am      5 UNK        -0.5000 
     50 C           2.6949  -14.2467  -43.2003 C.2       4 UNK         0.5000 
     51 O           1.9019  -15.0303  -43.7294 O.2       4 UNK        -0.5000 
     52 CA          3.5653  -13.3421  -44.0793 C.3       4 UNK         0.1400 
     53 CB          4.8678  -14.0635  -44.4720 C.3       4 UNK        -0.1800 
     54 N           2.8067  -12.9784  -45.2707 N.am      4 UNK        -0.5000 
     55 C           3.0669  -11.9457  -46.0814 C.2       3 UNK         0.5000 
     56 O           4.0105  -11.1742  -45.8996 O.2       3 UNK        -0.5000 
     57 CA          2.1116  -11.6922  -47.2717 C.3       3 UNK         0.1400 
     58 CB          2.8806  -11.4562  -48.5881 C.3       3 UNK        -0.1800 
     59 N           1.0560  -12.6966  -47.4580 N.am      3 UNK        -0.5000 
     60 C           1.1909  -13.9880  -47.7988 C.2       2 UNK         0.5000 
     61 O           2.2725  -14.5381  -48.0014 O.2       2 UNK        -0.5000 
     62 CA         -0.1015  -14.8198  -47.8937 C.3       2 UNK         0.1400 
     63 CB         -0.3143  -15.6037  -46.5943 C.3       2 UNK        -0.1800 
     64 N          -1.2978  -14.0193  -48.1312 N.am      2 UNK        -0.5000 
     65 C          -1.6140  -13.4241  -49.2876 C.2       1 UNK         0.5000 
     66 O          -0.9207  -13.4797  -50.3038 O.2       1 UNK        -0.5000 
     67 C          -3.2882  -22.5053  -45.1765 C.2       11 UNK         0.5000 
     68 O          -4.1550  -23.2057  -45.6996 O.2       11 UNK        -0.5000 
     69 N          -3.3365  -22.1163  -43.8949 N.am      12 UNK        -0.5000 
     70 CA         -4.3552  -22.5676  -42.9445 C.3       12 UNK         0.1400 
     71 CB         -4.2566  -21.7501  -41.6478 C.3       12 UNK        -0.1800 
     72 C          -4.2650  -24.0785  -42.6512 C.2       12 UNK         0.5000 
     73 O          -5.3008  -24.7201  -42.4705 O.2       12 UNK        -0.5000 
     74 N          -3.0389  -24.6201  -42.6281 N.am      13 UNK        -0.5000 
     75 CA         -2.7693  -26.0481  -42.4819 C.3       13 UNK         0.1400 
     76 CB         -1.3157  -26.2617  -42.0289 C.3       13 UNK        -0.1800 
     77 C          -3.0811  -26.8309  -43.7714 C.2       13 UNK         0.5000 
     78 O          -3.8589  -27.7850  -43.7212 O.2       13 UNK        -0.5000 
     79 N          -2.4828  -26.4193  -44.8976 N.am      14 UNK        -0.5000 
     80 CA         -2.6185  -27.0653  -46.2015 C.3       14 UNK         0.1400 
     81 CB         -1.8682  -28.4143  -46.2172 C.3       14 UNK        -0.1800 
     82 C          -2.1096  -26.1225  -47.3035 C.2       14 UNK         0.5000 
     83 O          -0.9191  -26.1340  -47.6225 O.2       14 UNK        -0.5000 
     84 N          -3.0164  -25.3129  -47.8628 N.am      15 UNK        -0.5000 
     85 CA         -2.7544  -24.4231  -48.9942 C.3       15 UNK         0.1400 
     86 CB         -3.9479  -23.4725  -49.1678 C.3       15 UNK        -0.1800 
     87 C          -2.4989  -25.2114  -50.2906 C.2       15 UNK         0.5000 
     88 O          -3.3750  -25.9627  -50.7273 O.2       15 UNK        -0.5000 
     89 N          -1.3172  -25.0127  -50.8894 N.am      16 UNK        -0.5000 
     90 CA         -0.9001  -25.6193  -52.1540 C.3       16 UNK         0.1400 
     91 CB          0.5681  -25.2591  -52.4290 C.3       16 UNK        -0.1800 
     92 C          -1.8081  -25.1632  -53.3091 C.2       16 UNK         0.5000 
     93 O          -1.8709  -23.9653  -53.5940 O.2       16 UNK        -0.5000 
     94 N          -2.5418  -26.1174  -53.9003 N.am      17 UNK        -0.5000 
     95 CA         -3.5669  -25.9240  -54.9368 C.3       17 UNK         0.1400 
     96 CB         -2.9129  -25.4936  -56.2666 C.3       17 UNK        -0.1800 
     97 C          -4.7100  -24.9765  -54.5004 C.2       17 UNK         0.5000 
     98 O          -5.3003  -24.2994  -55.3424 O.2       17 UNK        -0.5000 
     99 N          -4.9737  -24.9310  -53.1840 N.am      18 UNK        -0.5000 
    100 CA        -5.8963  -24.0352  -52.4761 C.3       18 UNK         0.1400 
    101 CB        -7.3470  -24.2088  -52.9729 C.3       18 UNK        -0.1800 
    102 C         -5.4557  -22.5525  -52.4482 C.2       18 UNK         0.5000 
    103 O         -6.2317  -21.7134  -51.9882 O.2       18 UNK        -0.5000 
    104 N         -4.2210  -22.2583  -52.8906 N.am      19 UNK        -0.5000 
    105 CA        -3.5935  -20.9353  -52.9776 C.3       19 UNK         0.1400 
    106 CB        -3.1813  -20.4460  -51.5716 C.3       19 UNK        -0.1800 
    107 C         -4.4455  -19.9253  -53.7816 C.2       19 UNK         0.5000 
    108 O         -4.9887  -20.2954  -54.8253 O.2       19 UNK        -0.5000 
    109 N         -4.5333  -18.6766  -53.2990 N.am      20 UNK        -0.5000 
    110 CA        -5.3236  -17.5390  -53.7921 C.3       20 UNK         0.1400 
    111 CB        -6.8314  -17.8500  -53.7620 C.3       20 UNK        -0.1800 
    112 C         -4.8946  -16.9873  -55.1656 C.2       20 UNK         0.5000 
    113 O         -4.6951  -15.7785  -55.2919 O.2       20 UNK        -0.5000 
    114 N         -4.7236  -17.8679  -56.1598 N.am      21 UNK        -0.5000 
    115 CA        -4.2964  -17.5550  -57.5294 C.3       21 UNK         0.1400 
    116 CB        -4.3760  -18.8328  -58.3781 C.3       21 UNK        -0.1800 
    117 C         -2.8854  -16.9373  -57.6109 C.2       21 UNK         0.5000 
    118 O         -2.5842  -16.2142  -58.5612 O.2       21 UNK        -0.5000 
    119 N         -2.0660  -17.2142  -56.5922 N.am      22 UNK        -0.5000 
    120 CA        -0.7776  -16.5723  -56.3061 C.3       22 UNK         0.1400 
    121 C         -0.8670  -15.0788  -55.8668 C.2       22 UNK         0.5000 
    122 N         -2.0350  -14.5343  -55.5434 N.am      22 UNK        -0.7600 
    123 O          0.1515  -14.3944  -55.8271 O.2       22 UNK        -0.5000 
    124 C124        0.0540  -17.4165  -55.3012 C.3       23 UNK        -0.0398 
    125 S125       -0.8974  -18.0086  -53.8538 S.3       23 UNK        -0.2404 
    126 C126       -0.5306  -16.7217  -52.6252 C.3       23 UNK        -0.0205 
    127 H127       -2.4003  -10.9355  -45.1490 H         1 UNK         0.0600 
    128 H128       -4.0506  -11.0732  -45.7627 H         1 UNK         0.0600 
    129 H129       -3.1508   -9.5695  -45.9814 H         1 UNK         0.0600 
    130 H130       -4.1560  -12.2859  -47.6201 H         1 UNK         0.3000 
    131 H131       -2.7507  -11.7707  -49.9808 H         1 UNK         0.0600 
    132 H132       -4.9371  -12.7607  -50.0834 H         1 UNK         0.0800 
    133 H133       -3.8354  -13.8690  -50.8300 H         1 UNK         0.0800 
    134 H134       -5.1497  -16.0284  -50.7231 H         1 UNK         0.0800 
    135 H135       -5.2783  -17.0011  -49.2844 H         1 UNK         0.0800 
    136 H136       -3.0276  -15.9076  -51.9211 H         1 UNK         0.1150 
    137 H137        0.3185  -18.1547  -50.4757 H         1 UNK         0.1150 
    138 H138       -3.1799  -17.7226  -48.0351 H         1 UNK         0.1150 
    139 H139        0.4044  -18.7359  -48.1264 H         1 UNK         0.0800 
    140 H140       -0.9384  -18.4379  -47.0661 H         1 UNK         0.0800 
    141 H141       -3.3095  -20.8085  -47.2737 H         1 UNK         0.0800 
    142 H142       -2.3103  -19.9332  -46.1422 H         1 UNK         0.0800 
    143 H143       -1.9158  -22.8939  -46.7294 H         1 UNK         0.0600 
    144 H144       -0.3913  -21.1249  -45.0925 H         1 UNK         0.3000 
    145 H145        1.1725  -23.7943  -43.2221 H         1 UNK         0.0600 
    146 H146        3.1455  -22.5136  -44.0204 H         1 UNK         0.0600 
    147 H147        2.4524  -23.4781  -45.3156 H         1 UNK         0.0600 
    148 H148        2.1688  -21.7456  -45.2694 H         1 UNK         0.0600 
    149 H149        1.3954  -20.9681  -42.9701 H         1 UNK         0.3000 
    150 H150       -1.2298  -20.5538  -40.5517 H         1 UNK         0.0600 
    151 H151        0.7758  -21.3361  -39.2839 H         1 UNK         0.0600 
    152 H152        0.6575  -19.5826  -39.2789 H         1 UNK         0.0600 
    153 H153        1.8219  -20.3840  -40.3305 H         1 UNK         0.0600 
    154 H154        0.5709  -18.6625  -41.6437 H         1 UNK         0.3000 
    155 H155       -1.3411  -17.8040  -44.5640 H         1 UNK         0.0600 
    156 H156       -2.2196  -16.4657  -42.6782 H         1 UNK         0.0600 
    157 H157       -0.9498  -15.5742  -43.5015 H         1 UNK         0.0600 
    158 H158       -0.6200  -16.3581  -41.9603 H         1 UNK         0.0600 
    159 H159        1.1821  -16.8636  -43.7274 H         1 UNK         0.3000 
    160 H160        3.1957  -19.3978  -45.3037 H         1 UNK         0.0600 
    161 H161        2.7701  -16.4152  -45.8614 H         1 UNK         0.0600 
    162 H162        2.5890  -17.7023  -47.0459 H         1 UNK         0.0600 
    163 H163        4.1622  -17.3821  -46.3351 H         1 UNK         0.0600 
    164 H164        3.7549  -17.0534  -43.7104 H         1 UNK         0.3000 
    165 H165        3.9350  -18.7376  -40.5798 H         1 UNK         0.0600 
    166 H166        6.2106  -17.7520  -40.6220 H         1 UNK         0.0600 
    167 H167        6.1457  -19.1629  -41.6659 H         1 UNK         0.0600 
    168 H168        6.1249  -17.5514  -42.3723 H         1 UNK         0.0600 
    169 H169        4.4288  -16.0333  -41.3815 H         1 UNK         0.3000 
    170 H170        1.0914  -14.8375  -41.0746 H         1 UNK         0.0600 
    171 H171        1.9064  -14.9561  -38.7171 H         1 UNK         0.0600 
    172 H172        3.5114  -14.4517  -39.2325 H         1 UNK         0.0600 
    173 H173        2.1409  -13.3528  -39.3940 H         1 UNK         0.0600 
    174 H174        3.5582  -13.4929  -41.5220 H         1 UNK         0.3000 
    175 H175        3.8033  -12.4357  -43.5186 H         1 UNK         0.0600 
    176 H176        4.6696  -14.9508  -45.0740 H         1 UNK         0.0600 
    177 H177        5.5239  -13.4116  -45.0488 H         1 UNK         0.0600 
    178 H178        5.4247  -14.3803  -43.5894 H         1 UNK         0.0600 
    179 H179        2.0092  -13.5714  -45.4580 H         1 UNK         0.3000 
    180 H180        1.5876  -10.7655  -47.0335 H         1 UNK         0.0600 
    181 H181        3.4910  -12.3169  -48.8620 H         1 UNK         0.0600 
    182 H182        3.5487  -10.5984  -48.5036 H         1 UNK         0.0600 
    183 H183        2.1969  -11.2526  -49.4124 H         1 UNK         0.0600 
    184 H184        0.1140  -12.3389  -47.3502 H         1 UNK         0.3000 
    185 H185        0.0117  -15.5233  -48.7194 H         1 UNK         0.0600 
    186 H186        0.4685  -16.3481  -46.4725 H         1 UNK         0.0600 
    187 H187       -0.2914  -14.9523  -45.7203 H         1 UNK         0.0600 
    188 H188       -1.2686  -16.1296  -46.5940 H         1 UNK         0.0600 
    189 H189       -1.9411  -13.9218  -47.3597 H         1 UNK         0.3000 
    190 H190       -2.6373  -21.4673  -43.5455 H         1 UNK         0.3000 
    191 H191       -5.3343  -22.3756  -43.3884 H         1 UNK         0.0600 
    192 H192       -4.3805  -20.6847  -41.8425 H         1 UNK         0.0600 
    193 H193       -5.0341  -22.0443  -40.9420 H         1 UNK         0.0600 
    194 H194       -3.2959  -21.8910  -41.1535 H         1 UNK         0.0600 
    195 H195       -2.2365  -24.0123  -42.7400 H         1 UNK         0.3000 
    196 H196       -3.4165  -26.4377  -41.6931 H         1 UNK         0.0600 
    197 H197       -1.1041  -27.3223  -41.8883 H         1 UNK         0.0600 
    198 H198       -1.1240  -25.7624  -41.0790 H         1 UNK         0.0600 
    199 H199       -0.5987  -25.8787  -42.7545 H         1 UNK         0.0600 
    200 H200       -1.8519  -25.6177  -44.8664 H         1 UNK         0.3000 
    201 H201       -3.6765  -27.2606  -46.3892 H         1 UNK         0.0600 
    202 H202       -2.3182  -29.1326  -45.5322 H         1 UNK         0.0600 
    203 H203       -0.8216  -28.2946  -45.9345 H         1 UNK         0.0600 
    204 H204       -1.8918  -28.8621  -47.2114 H         1 UNK         0.0600 
    205 H205       -3.9689  -25.3405  -47.5285 H         1 UNK         0.3000 
    206 H206       -1.8688  -23.8246  -48.7741 H         1 UNK         0.0600 
    207 H207       -4.0756  -22.8277  -48.3013 H         1 UNK         0.0600 
    208 H208       -3.8058  -22.8232  -50.0290 H         1 UNK         0.0600 
    209 H209       -4.8806  -24.0177  -49.3128 H         1 UNK         0.0600 
    210 H210       -0.6615  -24.3696  -50.4708 H         1 UNK         0.3000 
    211 H211       -0.9703  -26.7039  -52.0478 H         1 UNK         0.0600 
    212 H212        0.7114  -24.1806  -52.5087 H         1 UNK         0.0600 
    213 H213        0.9101  -25.7053  -53.3637 H         1 UNK         0.0600 
    214 H214        1.2199  -25.6267  -51.6362 H         1 UNK         0.0600 
    215 H215       -2.4423  -27.0669  -53.5679 H         1 UNK         0.3000 
    216 H216       -4.0294  -26.8988  -55.0968 H         1 UNK         0.0600 
    217 H217       -3.6413  -25.4875  -57.0783 H         1 UNK         0.0600 
    218 H218       -2.1160  -26.1794  -56.5543 H         1 UNK         0.0600 
    219 H219       -2.4867  -24.4919  -56.2029 H         1 UNK         0.0600 
    220 H220       -4.4126  -25.5177  -52.5756 H         1 UNK         0.3000 
    221 H221       -5.8757  -24.3676  -51.4383 H         1 UNK         0.0600 
    222 H222       -7.4864  -23.8021  -53.9746 H         1 UNK         0.0600 
    223 H223       -7.6361  -25.2596  -52.9916 H         1 UNK         0.0600 
    224 H224       -8.0479  -23.6931  -52.3157 H         1 UNK         0.0600 
    225 H225       -3.6506  -23.0153  -53.2514 H         1 UNK         0.3000 
    226 H226       -2.6782  -21.0746  -53.5545 H         1 UNK         0.0600 
    227 H227       -2.5345  -21.1728  -51.0809 H         1 UNK         0.0600 
    228 H228       -2.6106  -19.5204  -51.6244 H         1 UNK         0.0600 
    229 H229       -4.0429  -20.2733  -50.9256 H         1 UNK         0.0600 
    230 H230       -4.0061  -18.4853  -52.4585 H         1 UNK         0.3000 
    231 H231       -5.1499  -16.7357  -53.0754 H         1 UNK         0.0600 
    232 H232       -7.0991  -18.6461  -54.4572 H         1 UNK         0.0600 
    233 H233       -7.4158  -16.9702  -54.0340 H         1 UNK         0.0600 
    234 H234       -7.1492  -18.1566  -52.7653 H         1 UNK         0.0600 
    235 H235       -4.8862  -18.8482  -55.9375 H         1 UNK         0.3000 
    236 H236       -4.9971  -16.8242  -57.9380 H         1 UNK         0.0600 
    237 H237       -5.3902  -19.2322  -58.3951 H         1 UNK         0.0600 
    238 H238       -4.0871  -18.6359  -59.4114 H         1 UNK         0.0600 
    239 H239       -3.7156  -19.6111  -57.9935 H         1 UNK         0.0600 
    240 H240       -2.4120  -17.8172  -55.8602 H         1 UNK         0.3000 
    241 H241       -0.2212  -16.5562  -57.2451 H         1 UNK         0.0600 
    242 H242       -2.0631  -13.5646  -55.2728 H         1 UNK         0.3800 
    243 H243       -2.8974  -15.0690  -55.5605 H         1 UNK         0.3800 
    244 H244        0.4251  -18.3035  -55.8160 H         1 UNK         0.0800 
    245 H245        0.9483  -16.8851  -54.9702 H         1 UNK         0.0800 
    246 H246        0.5442  -16.6841  -52.4419 H         1 UNK         0.0800 
    247 H247       -0.8144  -15.7424  -53.0123 H         1 UNK         0.0800 
@<TRIPOS>BOND
     1    1    2 1    
     2    1  127 1    
     3    1  128 1    
     4    1  129 1    
     5    2    3 2    
     6    2    4 am   BACKBONE|DICT|INTERRES
     7    4    5 1    
     8    4  130 1    
     9    5    6 1    
    10    5   65 1    
    11    5  131 1    
    12    6    7 1    
    13    6  132 1    
    14    6  133 1    
    15    7    8 1    
    16    8    9 1    
    17    8  134 1    
    18    8  135 1    
    19    9   10 ar   
    20    9   14 ar   
    21   10   11 ar   
    22   10  136 1    
    23   11   12 ar   
    24   11  126 1    
    25   12   13 ar   
    26   12  137 1    
    27   13   14 ar   
    28   13   15 1    
    29   14  138 1    
    30   15   16 1    
    31   15  139 1    
    32   15  140 1    
    33   16   17 1    
    34   17   18 1    
    35   17  141 1    
    36   17  142 1    
    37   18   19 1    
    38   18   67 1    
    39   18  143 1    
    40   19   20 am   BACKBONE|DICT|INTERRES
    41   19  144 1    
    42   20   21 2    
    43   20   22 1    
    44   22   23 1    
    45   22   24 1    
    46   22  145 1    
    47   23  146 1    
    48   23  147 1    
    49   23  148 1    
    50   24   25 am   BACKBONE|DICT|INTERRES
    51   24  149 1    
    52   25   26 2    
    53   25   27 1    
    54   27   28 1    
    55   27   29 1    
    56   27  150 1    
    57   28  151 1    
    58   28  152 1    
    59   28  153 1    
    60   29   30 am   BACKBONE|DICT|INTERRES
    61   29  154 1    
    62   30   31 2    
    63   30   32 1    
    64   32   33 1    
    65   32   34 1    
    66   32  155 1    
    67   33  156 1    
    68   33  157 1    
    69   33  158 1    
    70   34   35 am   BACKBONE|DICT|INTERRES
    71   34  159 1    
    72   35   36 2    
    73   35   37 1    
    74   37   38 1    
    75   37   39 1    
    76   37  160 1    
    77   38  161 1    
    78   38  162 1    
    79   38  163 1    
    80   39   40 am   BACKBONE|DICT|INTERRES
    81   39  164 1    
    82   40   41 2    
    83   40   42 1    
    84   42   43 1    
    85   42   44 1    
    86   42  165 1    
    87   43  166 1    
    88   43  167 1    
    89   43  168 1    
    90   44   45 am   BACKBONE|DICT|INTERRES
    91   44  169 1    
    92   45   46 2    
    93   45   47 1    
    94   47   48 1    
    95   47   49 1    
    96   47  170 1    
    97   48  171 1    
    98   48  172 1    
    99   48  173 1    
   100   49   50 am   BACKBONE|DICT|INTERRES
   101   49  174 1    
   102   50   51 2    
   103   50   52 1    
   104   52   53 1    
   105   52   54 1    
   106   52  175 1    
   107   53  176 1    
   108   53  177 1    
   109   53  178 1    
   110   54   55 am   BACKBONE|DICT|INTERRES
   111   54  179 1    
   112   55   56 2    
   113   55   57 1    
   114   57   58 1    
   115   57   59 1    
   116   57  180 1    
   117   58  181 1    
   118   58  182 1    
   119   58  183 1    
   120   59   60 am   BACKBONE|DICT|INTERRES
   121   59  184 1    
   122   60   61 2    
   123   60   62 1    
   124   62   63 1    
   125   62   64 1    
   126   62  185 1    
   127   63  186 1    
   128   63  187 1    
   129   63  188 1    
   130   64   65 am   BACKBONE|DICT|INTERRES
   131   64  189 1    
   132   65   66 2    
   133   67   68 2    
   134   67   69 am   BACKBONE|DICT|INTERRES
   135   69   70 1    
   136   69  190 1    
   137   70   71 1    
   138   70   72 1    
   139   70  191 1    
   140   71  192 1    
   141   71  193 1    
   142   71  194 1    
   143   72   73 2    
   144   72   74 am   BACKBONE|DICT|INTERRES
   145   74   75 1    
   146   74  195 1    
   147   75   76 1    
   148   75   77 1    
   149   75  196 1    
   150   76  197 1    
   151   76  198 1    
   152   76  199 1    
   153   77   78 2    
   154   77   79 am   BACKBONE|DICT|INTERRES
   155   79   80 1    
   156   79  200 1    
   157   80   81 1    
   158   80   82 1    
   159   80  201 1    
   160   81  202 1    
   161   81  203 1    
   162   81  204 1    
   163   82   83 2    
   164   82   84 am   BACKBONE|DICT|INTERRES
   165   84   85 1    
   166   84  205 1    
   167   85   86 1    
   168   85   87 1    
   169   85  206 1    
   170   86  207 1    
   171   86  208 1    
   172   86  209 1    
   173   87   88 2    
   174   87   89 am   BACKBONE|DICT|INTERRES
   175   89   90 1    
   176   89  210 1    
   177   90   91 1    
   178   90   92 1    
   179   90  211 1    
   180   91  212 1    
   181   91  213 1    
   182   91  214 1    
   183   92   93 2    
   184   92   94 am   BACKBONE|DICT|INTERRES
   185   94   95 1    
   186   94  215 1    
   187   95   96 1    
   188   95   97 1    
   189   95  216 1    
   190   96  217 1    
   191   96  218 1    
   192   96  219 1    
   193   97   98 2    
   194   97   99 am   BACKBONE|DICT|INTERRES
   195   99  100 1    
   196   99  220 1    
   197  100  101 1    
   198  100  102 1    
   199  100  221 1    
   200  101  222 1    
   201  101  223 1    
   202  101  224 1    
   203  102  103 2    
   204  102  104 am   BACKBONE|DICT|INTERRES
   205  104  105 1    
   206  104  225 1    
   207  105  106 1    
   208  105  107 1    
   209  105  226 1    
   210  106  227 1    
   211  106  228 1    
   212  106  229 1    
   213  107  108 2    
   214  107  109 am   BACKBONE|DICT|INTERRES
   215  109  110 1    
   216  109  230 1    
   217  110  111 1    
   218  110  112 1    
   219  110  231 1    
   220  111  232 1    
   221  111  233 1    
   222  111  234 1    
   223  112  113 2    
   224  112  114 am   BACKBONE|DICT|INTERRES
   225  114  115 1    
   226  114  235 1    
   227  115  116 1    
   228  115  117 1    
   229  115  236 1    
   230  116  237 1    
   231  116  238 1    
   232  116  239 1    
   233  117  118 2    
   234  117  119 am   BACKBONE|DICT|INTERRES
   235  119  120 1    
   236  119  240 1    
   237  120  121 1    
   238  120  124 1    
   239  120  241 1    
   240  121  122 am   BACKBONE|DICT|INTERRES
   241  121  123 2    
   242  122  242 1    
   243  122  243 1    
   244  124  125 1    
   245  124  244 1    
   246  124  245 1    
   247  125  126 1    
   248  126  246 1    
   249  126  247 1    
@<TRIPOS>SUBSTRUCTURE
     1 UNK         1 GROUP             0       ****    0 ROOT    
