@<TRIPOS>MOLECULE
3R540
247   249    1
SMALL
USER_CHARGES


@<TRIPOS>ATOM
      1 CA          1.2439   -8.5080  -49.1298 C.3       0 UNK        -0.1800 
      2 C           1.4619   -9.6311  -48.1260 C.2       0 UNK         0.5000 
      3 O           0.6886   -9.7601  -47.1784 O.2       0 UNK        -0.5000 
      4 N           2.5231  -10.4260  -48.3217 N.am      1 UNK        -0.5000 
      5 CA          2.9224  -11.6069  -47.5364 C.3       1 UNK         0.1400 
      6 C6          1.8308  -12.7098  -47.4695 C.3       23 UNK        -0.0398 
      7 S7          1.4626  -13.4899  -49.0725 S.3       23 UNK        -0.2404 
      8 C8          0.4880  -14.9218  -48.5013 C.3       23 UNK        -0.0205 
      9 C9          0.5189  -16.0610  -49.5062 C.ar      23 UNK        -0.0193 
     10 C10        -0.6017  -16.3497  -50.2905 C.ar      23 UNK        -0.1150 
     11 C11        -0.5737  -17.4120  -51.1989 C.ar      23 UNK        -0.0193 
     12 C12         0.5827  -18.1872  -51.3179 C.ar      23 UNK        -0.1150 
     13 C13         1.7114  -17.9042  -50.5446 C.ar      23 UNK        -0.0193 
     14 C14         1.6713  -16.8423  -49.6371 C.ar      23 UNK        -0.1150 
     15 C15         2.9789  -18.7322  -50.7049 C.3       23 UNK        -0.0205 
     16 S16         3.3124  -19.7800  -49.2546 S.3       23 UNK        -0.2404 
     17 C17         1.8366  -20.8516  -49.2363 C.3       23 UNK        -0.0398 
     18 CA          2.0773  -22.1690  -48.4584 C.3       11 UNK         0.1400 
     19 N           2.3401  -21.9183  -47.0351 N.am      11 UNK        -0.5000 
     20 C           2.9649  -22.7657  -46.2073 C.2       10 UNK         0.5000 
     21 O           3.4262  -23.8511  -46.5612 O.2       10 UNK        -0.5000 
     22 CA          3.0542  -22.3485  -44.7265 C.3       10 UNK         0.1400 
     23 CB          4.2383  -21.3972  -44.4964 C.3       10 UNK        -0.1800 
     24 N           1.8228  -21.7302  -44.2272 N.am      10 UNK        -0.5000 
     25 C           0.6420  -22.3566  -44.1196 C.2       9 UNK         0.5000 
     26 O           0.4636  -23.5358  -44.4241 O.2       9 UNK        -0.5000 
     27 CA         -0.5547  -21.5161  -43.6391 C.3       9 UNK         0.1400 
     28 CB         -0.5416  -21.3464  -42.1131 C.3       9 UNK        -0.1800 
     29 N          -0.6107  -20.2078  -44.2917 N.am      9 UNK        -0.5000 
     30 C          -0.8616  -20.0386  -45.5974 C.2       8 UNK         0.5000 
     31 O          -1.1683  -20.9601  -46.3518 O.2       8 UNK        -0.5000 
     32 CA         -0.7237  -18.6202  -46.1757 C.3       8 UNK         0.1400 
     33 CB         -2.0543  -17.8632  -46.0678 C.3       8 UNK        -0.1800 
     34 N           0.3499  -17.8485  -45.5491 N.am      8 UNK        -0.5000 
     35 C           1.6476  -18.1777  -45.6246 C.2       7 UNK         0.5000 
     36 O           2.0618  -19.1590  -46.2386 O.2       7 UNK        -0.5000 
     37 CA          2.6419  -17.3123  -44.8309 C.3       7 UNK         0.1400 
     38 CB          2.8780  -15.9620  -45.5167 C.3       7 UNK        -0.1800 
     39 N           2.2080  -17.0838  -43.4551 N.am      7 UNK        -0.5000 
     40 C           2.0436  -18.0456  -42.5379 C.2       6 UNK         0.5000 
     41 O           2.2759  -19.2369  -42.7424 O.2       6 UNK        -0.5000 
     42 CA          1.4820  -17.6026  -41.1777 C.3       6 UNK         0.1400 
     43 CB          2.5884  -17.0070  -40.2937 C.3       6 UNK        -0.1800 
     44 N           0.3982  -16.6322  -41.3297 N.am      6 UNK        -0.5000 
     45 C          -0.8186  -16.9288  -41.8067 C.2       5 UNK         0.5000 
     46 O          -1.1633  -18.0592  -42.1509 O.2       5 UNK        -0.5000 
     47 CA         -1.8021  -15.7540  -41.9575 C.3       5 UNK         0.1400 
     48 CB         -2.4505  -15.4086  -40.6086 C.3       5 UNK        -0.1800 
     49 N          -1.1709  -14.5571  -42.5168 N.am      5 UNK        -0.5000 
     50 C          -0.6866  -14.4819  -43.7633 C.2       4 UNK         0.5000 
     51 O          -0.7214  -15.4091  -44.5695 O.2       4 UNK        -0.5000 
     52 CA         -0.0130  -13.1665  -44.1782 C.3       4 UNK         0.1400 
     53 CB         -1.0491  -12.1589  -44.6948 C.3       4 UNK        -0.1800 
     54 N           0.8098  -12.5346  -43.1480 N.am      4 UNK        -0.5000 
     55 C           1.8399  -13.1014  -42.5066 C.2       3 UNK         0.5000 
     56 O           2.1190  -14.2998  -42.5806 O.2       3 UNK        -0.5000 
     57 CA          2.7338  -12.1378  -41.6993 C.3       3 UNK         0.1400 
     58 CB          3.7477  -12.8801  -40.8107 C.3       3 UNK        -0.1800 
     59 N           3.4615  -11.2511  -42.6093 N.am      3 UNK        -0.5000 
     60 C           2.9433  -10.1914  -43.2448 C.2       2 UNK         0.5000 
     61 O           1.8098   -9.7589  -43.0273 O.2       2 UNK        -0.5000 
     62 CA          3.8010   -9.5341  -44.3458 C.3       2 UNK         0.1400 
     63 CB          5.3229   -9.6586  -44.1101 C.3       2 UNK        -0.1800 
     64 N           3.4256  -10.0281  -45.6769 N.am      2 UNK        -0.5000 
     65 C           3.4705  -11.2947  -46.1207 C.2       1 UNK         0.5000 
     66 O           3.9466  -12.2211  -45.4636 O.2       1 UNK        -0.5000 
     67 C           0.9017  -23.1473  -48.6888 C.2       11 UNK         0.5000 
     68 O           0.6984  -23.5711  -49.8264 O.2       11 UNK        -0.5000 
     69 N           0.1388  -23.4639  -47.6300 N.am      12 UNK        -0.5000 
     70 CA         -1.0866  -24.2741  -47.6089 C.3       12 UNK         0.1400 
     71 CB         -0.8160  -25.7210  -48.0691 C.3       12 UNK        -0.1800 
     72 C          -2.2704  -23.6266  -48.3594 C.2       12 UNK         0.5000 
     73 O          -3.2462  -24.3063  -48.6720 O.2       12 UNK        -0.5000 
     74 N          -2.1918  -22.3121  -48.5943 N.am      13 UNK        -0.5000 
     75 CA         -3.2362  -21.4940  -49.2038 C.3       13 UNK         0.1400 
     76 CB         -2.6129  -20.1760  -49.6815 C.3       13 UNK        -0.1800 
     77 C          -4.4063  -21.2223  -48.2425 C.2       13 UNK         0.5000 
     78 O          -5.5222  -20.9814  -48.7012 O.2       13 UNK        -0.5000 
     79 N          -4.1337  -21.2783  -46.9309 N.am      14 UNK        -0.5000 
     80 CA         -5.1348  -21.1782  -45.8675 C.3       14 UNK         0.1400 
     81 CB         -4.4240  -20.8546  -44.5441 C.3       14 UNK        -0.1800 
     82 C          -5.9910  -22.4542  -45.7210 C.2       14 UNK         0.5000 
     83 O          -7.0748  -22.3877  -45.1392 O.2       14 UNK        -0.5000 
     84 N          -5.4941  -23.5881  -46.2341 N.am      15 UNK        -0.5000 
     85 CA         -6.1981  -24.8681  -46.2740 C.3       15 UNK         0.1400 
     86 CB         -5.1572  -26.0009  -46.2718 C.3       15 UNK        -0.1800 
     87 C          -7.1038  -24.9606  -47.5161 C.2       15 UNK         0.5000 
     88 O          -7.0083  -24.1330  -48.4270 O.2       15 UNK        -0.5000 
     89 N          -7.9455  -26.0013  -47.5585 N.am      16 UNK        -0.5000 
     90 CA         -8.8576  -26.3263  -48.6615 C.3       16 UNK         0.1400 
     91 CB         -9.9652  -27.2523  -48.1266 C.3       16 UNK        -0.1800 
     92 C          -8.1263  -26.9189  -49.8903 C.2       16 UNK         0.5000 
     93 O          -8.4929  -27.9878  -50.3813 O.2       16 UNK        -0.5000 
     94 N          -7.0958  -26.2078  -50.3581 N.am      17 UNK        -0.5000 
     95 CA         -6.2210  -26.5659  -51.4746 C.3       17 UNK         0.1400 
     96 CB         -4.7623  -26.4823  -50.9894 C.3       17 UNK        -0.1800 
     97 C          -6.4604  -25.6523  -52.6931 C.2       17 UNK         0.5000 
     98 O          -5.5553  -25.4856  -53.5112 O.2       17 UNK        -0.5000 
     99 N          -7.6527  -25.0389  -52.7767 N.am      18 UNK        -0.5000 
    100 CA        -8.0888  -24.0868  -53.8101 C.3       18 UNK         0.1400 
    101 CB        -8.2611  -24.7997  -55.1678 C.3       18 UNK        -0.1800 
    102 C         -7.1784  -22.8409  -53.8922 C.2       18 UNK         0.5000 
    103 O         -6.8524  -22.3766  -54.9853 O.2       18 UNK        -0.5000 
    104 N         -6.7616  -22.3561  -52.7124 N.am      19 UNK        -0.5000 
    105 CA        -5.8099  -21.2648  -52.4696 C.3       19 UNK         0.1400 
    106 CB        -6.3011  -19.9361  -53.0791 C.3       19 UNK        -0.1800 
    107 C         -4.3524  -21.5947  -52.8606 C.2       19 UNK         0.5000 
    108 O         -3.5180  -20.6887  -52.8807 O.2       19 UNK        -0.5000 
    109 N         -4.0540  -22.8791  -53.1156 N.am      20 UNK        -0.5000 
    110 CA        -2.7391  -23.4411  -53.4323 C.3       20 UNK         0.1400 
    111 CB        -1.8637  -23.4872  -52.1603 C.3       20 UNK        -0.1800 
    112 C         -2.0836  -22.7227  -54.6296 C.2       20 UNK         0.5000 
    113 O         -2.6545  -22.7301  -55.7220 O.2       20 UNK        -0.5000 
    114 N         -0.9275  -22.0837  -54.4045 N.am      21 UNK        -0.5000 
    115 CA        -0.1816  -21.3040  -55.3955 C.3       21 UNK         0.1400 
    116 CB         1.1641  -20.8823  -54.7854 C.3       21 UNK        -0.1800 
    117 C         -0.9401  -20.0745  -55.9391 C.2       21 UNK         0.5000 
    118 O         -0.6197  -19.6146  -57.0362 O.2       21 UNK        -0.5000 
    119 N         -1.9313  -19.5792  -55.1866 N.am      22 UNK        -0.5000 
    120 CA        -2.8453  -18.5066  -55.6095 C.3       22 UNK         0.1400 
    121 C         -4.1122  -19.0335  -56.3485 C.2       22 UNK         0.5000 
    122 N         -4.3003  -20.3367  -56.5270 N.am      22 UNK        -0.7600 
    123 O         -4.9423  -18.2394  -56.7825 O.2       22 UNK        -0.5000 
    124 C124       -3.2333  -17.5736  -54.4326 C.3       23 UNK        -0.0398 
    125 S125       -1.7903  -16.8138  -53.6106 S.3       23 UNK        -0.2404 
    126 C126       -1.7930  -17.7353  -52.0448 C.3       23 UNK        -0.0205 
    127 H127        2.0100   -8.5020  -49.9055 H         1 UNK         0.0600 
    128 H128        1.2642   -7.5428  -48.6239 H         1 UNK         0.0600 
    129 H129        0.2730   -8.6210  -49.6121 H         1 UNK         0.0600 
    130 H130        3.1208  -10.2345  -49.1141 H         1 UNK         0.3000 
    131 H131        3.7740  -12.0297  -48.0716 H         1 UNK         0.0600 
    132 H132        0.9030  -12.3247  -47.0478 H         1 UNK         0.0800 
    133 H133        2.1607  -13.5091  -46.8084 H         1 UNK         0.0800 
    134 H134        0.8720  -15.2940  -47.5523 H         1 UNK         0.0800 
    135 H135       -0.5369  -14.6019  -48.3067 H         1 UNK         0.0800 
    136 H136       -1.4959  -15.7499  -50.1955 H         1 UNK         0.1150 
    137 H137        0.6032  -19.0078  -52.0193 H         1 UNK         0.1150 
    138 H138        2.5404  -16.6226  -49.0331 H         1 UNK         0.1150 
    139 H139        2.9249  -19.3587  -51.5966 H         1 UNK         0.0800 
    140 H140        3.8256  -18.0612  -50.8556 H         1 UNK         0.0800 
    141 H141        1.0043  -20.2931  -48.8037 H         1 UNK         0.0800 
    142 H142        1.5632  -21.0609  -50.2724 H         1 UNK         0.0800 
    143 H143        2.9602  -22.6496  -48.8852 H         1 UNK         0.0600 
    144 H144        2.0735  -21.0013  -46.6826 H         1 UNK         0.3000 
    145 H145        3.2302  -23.2525  -44.1400 H         1 UNK         0.0600 
    146 H146        4.3524  -21.1589  -43.4388 H         1 UNK         0.0600 
    147 H147        4.1140  -20.4592  -45.0379 H         1 UNK         0.0600 
    148 H148        5.1729  -21.8485  -44.8316 H         1 UNK         0.0600 
    149 H149        1.8930  -20.7632  -43.9231 H         1 UNK         0.3000 
    150 H150       -1.4609  -22.0637  -43.9031 H         1 UNK         0.0600 
    151 H151        0.3230  -20.7763  -41.7746 H         1 UNK         0.0600 
    152 H152       -1.4378  -20.8300  -41.7687 H         1 UNK         0.0600 
    153 H153       -0.5125  -22.3151  -41.6131 H         1 UNK         0.0600 
    154 H154       -0.4183  -19.3978  -43.7147 H         1 UNK         0.3000 
    155 H155       -0.4792  -18.7210  -47.2353 H         1 UNK         0.0600 
    156 H156       -2.8633  -18.4208  -46.5415 H         1 UNK         0.0600 
    157 H157       -1.9952  -16.8941  -46.5637 H         1 UNK         0.0600 
    158 H158       -2.3351  -17.6923  -45.0276 H         1 UNK         0.0600 
    159 H159        0.0689  -17.0122  -45.0419 H         1 UNK         0.3000 
    160 H160        3.5932  -17.8473  -44.7987 H         1 UNK         0.0600 
    161 H161        1.9806  -15.3478  -45.4777 H         1 UNK         0.0600 
    162 H162        3.1555  -16.0906  -46.5637 H         1 UNK         0.0600 
    163 H163        3.6795  -15.4057  -45.0299 H         1 UNK         0.0600 
    164 H164        2.0282  -16.1202  -43.1851 H         1 UNK         0.3000 
    165 H165        1.0839  -18.4865  -40.6748 H         1 UNK         0.0600 
    166 H166        2.2042  -16.7355  -39.3104 H         1 UNK         0.0600 
    167 H167        3.3932  -17.7271  -40.1410 H         1 UNK         0.0600 
    168 H168        3.0283  -16.1146  -40.7401 H         1 UNK         0.0600 
    169 H169        0.6241  -15.6662  -41.1419 H         1 UNK         0.3000 
    170 H170       -2.5916  -16.0706  -42.6427 H         1 UNK         0.0600 
    171 H171       -2.9404  -16.2824  -40.1767 H         1 UNK         0.0600 
    172 H172       -1.7156  -15.0531  -39.8854 H         1 UNK         0.0600 
    173 H173       -3.2103  -14.6353  -40.7233 H         1 UNK         0.0600 
    174 H174       -1.0894  -13.7508  -41.9150 H         1 UNK         0.3000 
    175 H175        0.6582  -13.4107  -44.9993 H         1 UNK         0.0600 
    176 H176       -1.7306  -11.8420  -43.9046 H         1 UNK         0.0600 
    177 H177       -0.5660  -11.2684  -45.0981 H         1 UNK         0.0600 
    178 H178       -1.6503  -12.5914  -45.4959 H         1 UNK         0.0600 
    179 H179        0.7076  -11.5306  -43.0493 H         1 UNK         0.3000 
    180 H180        2.0886  -11.5419  -41.0505 H         1 UNK         0.0600 
    181 H181        3.2395  -13.5444  -40.1107 H         1 UNK         0.0600 
    182 H182        4.3409  -12.1805  -40.2217 H         1 UNK         0.0600 
    183 H183        4.4348  -13.4877  -41.4011 H         1 UNK         0.0600 
    184 H184        4.3638  -11.5827  -42.9198 H         1 UNK         0.3000 
    185 H185        3.5564   -8.4709  -44.3304 H         1 UNK         0.0600 
    186 H186        5.5966   -9.2769  -43.1257 H         1 UNK         0.0600 
    187 H187        5.6781  -10.6871  -44.1742 H         1 UNK         0.0600 
    188 H188        5.8767   -9.0755  -44.8458 H         1 UNK         0.0600 
    189 H189        2.9779   -9.3515  -46.2787 H         1 UNK         0.3000 
    190 H190        0.3924  -23.0573  -46.7388 H         1 UNK         0.3000 
    191 H191       -1.3903  -24.3173  -46.5620 H         1 UNK         0.0600 
    192 H192       -1.6822  -26.3573  -47.8835 H         1 UNK         0.0600 
    193 H193        0.0261  -26.1553  -47.5303 H         1 UNK         0.0600 
    194 H194       -0.5984  -25.7745  -49.1360 H         1 UNK         0.0600 
    195 H195       -1.4133  -21.8144  -48.1795 H         1 UNK         0.3000 
    196 H196       -3.6318  -22.0301  -50.0674 H         1 UNK         0.0600 
    197 H197       -3.3554  -19.5599  -50.1896 H         1 UNK         0.0600 
    198 H198       -1.8022  -20.3591  -50.3865 H         1 UNK         0.0600 
    199 H199       -2.2107  -19.5924  -48.8531 H         1 UNK         0.0600 
    200 H200       -3.1719  -21.4290  -46.6484 H         1 UNK         0.3000 
    201 H201       -5.8095  -20.3526  -46.1034 H         1 UNK         0.0600 
    202 H202       -5.1447  -20.7226  -43.7362 H         1 UNK         0.0600 
    203 H203       -3.8480  -19.9323  -44.6158 H         1 UNK         0.0600 
    204 H204       -3.7460  -21.6549  -44.2487 H         1 UNK         0.0600 
    205 H205       -4.6456  -23.5349  -46.7787 H         1 UNK         0.3000 
    206 H206       -6.8218  -24.9672  -45.3830 H         1 UNK         0.0600 
    207 H207       -4.5710  -26.0153  -47.1908 H         1 UNK         0.0600 
    208 H208       -4.4656  -25.9017  -45.4349 H         1 UNK         0.0600 
    209 H209       -5.6363  -26.9760  -46.1786 H         1 UNK         0.0600 
    210 H210       -7.9386  -26.6569  -46.7904 H         1 UNK         0.3000 
    211 H211       -9.3355  -25.4027  -48.9945 H         1 UNK         0.0600 
    212 H212       -9.5609  -28.2023  -47.7751 H         1 UNK         0.0600 
    213 H213      -10.7007  -27.4733  -48.9012 H         1 UNK         0.0600 
    214 H214      -10.5011  -26.7884  -47.2982 H         1 UNK         0.0600 
    215 H215       -6.8774  -25.3410  -49.8721 H         1 UNK         0.3000 
    216 H216       -6.4156  -27.5901  -51.7980 H         1 UNK         0.0600 
    217 H217       -4.6038  -27.0936  -50.1008 H         1 UNK         0.0600 
    218 H218       -4.4834  -25.4574  -50.7428 H         1 UNK         0.0600 
    219 H219       -4.0693  -26.8363  -51.7534 H         1 UNK         0.0600 
    220 H220       -8.3242  -25.2339  -52.0480 H         1 UNK         0.3000 
    221 H221       -9.0709  -23.7245  -53.5029 H         1 UNK         0.0600 
    222 H222       -8.7030  -24.1307  -55.9072 H         1 UNK         0.0600 
    223 H223       -7.3078  -25.1452  -55.5689 H         1 UNK         0.0600 
    224 H224       -8.9201  -25.6633  -55.0786 H         1 UNK         0.0600 
    225 H225       -7.0906  -22.8257  -51.8803 H         1 UNK         0.3000 
    226 H226       -5.7962  -21.1312  -51.3879 H         1 UNK         0.0600 
    227 H227       -7.3439  -19.7457  -52.8262 H         1 UNK         0.0600 
    228 H228       -5.7205  -19.0971  -52.6961 H         1 UNK         0.0600 
    229 H229       -6.2104  -19.9281  -54.1654 H         1 UNK         0.0600 
    230 H230       -4.8133  -23.5487  -53.1490 H         1 UNK         0.3000 
    231 H231       -2.9110  -24.4697  -53.7521 H         1 UNK         0.0600 
    232 H232       -0.9017  -23.9627  -52.3553 H         1 UNK         0.0600 
    233 H233       -2.3500  -24.0726  -51.3804 H         1 UNK         0.0600 
    234 H234       -1.6701  -22.4951  -51.7516 H         1 UNK         0.0600 
    235 H235       -0.5434  -22.1102  -53.4716 H         1 UNK         0.3000 
    236 H236        0.0203  -21.9595  -56.2451 H         1 UNK         0.0600 
    237 H237        1.7454  -21.7489  -54.4699 H         1 UNK         0.0600 
    238 H238        1.7674  -20.3345  -55.5105 H         1 UNK         0.0600 
    239 H239        1.0265  -20.2353  -53.9198 H         1 UNK         0.0600 
    240 H240       -2.1733  -20.0391  -54.3156 H         1 UNK         0.3000 
    241 H241       -2.3281  -17.8828  -56.3408 H         1 UNK         0.0600 
    242 H242       -5.1356  -20.6538  -56.9924 H         1 UNK         0.3800 
    243 H243       -3.6315  -21.0210  -56.1924 H         1 UNK         0.3800 
    244 H244       -3.8300  -18.1157  -53.6992 H         1 UNK         0.0800 
    245 H245       -3.8658  -16.7588  -54.7886 H         1 UNK         0.0800 
    246 H246       -2.7057  -17.5107  -51.4911 H         1 UNK         0.0800 
    247 H247       -1.8143  -18.8031  -52.2614 H         1 UNK         0.0800 
@<TRIPOS>BOND
     1    1    2 1    
     2    1  127 1    
     3    1  128 1    
     4    1  129 1    
     5    2    3 2    
     6    2    4 am   BACKBONE|DICT|INTERRES
     7    4    5 1    
     8    4  130 1    
     9    5    6 1    
    10    5   65 1    
    11    5  131 1    
    12    6    7 1    
    13    6  132 1    
    14    6  133 1    
    15    7    8 1    
    16    8    9 1    
    17    8  134 1    
    18    8  135 1    
    19    9   10 ar   
    20    9   14 ar   
    21   10   11 ar   
    22   10  136 1    
    23   11   12 ar   
    24   11  126 1    
    25   12   13 ar   
    26   12  137 1    
    27   13   14 ar   
    28   13   15 1    
    29   14  138 1    
    30   15   16 1    
    31   15  139 1    
    32   15  140 1    
    33   16   17 1    
    34   17   18 1    
    35   17  141 1    
    36   17  142 1    
    37   18   19 1    
    38   18   67 1    
    39   18  143 1    
    40   19   20 am   BACKBONE|DICT|INTERRES
    41   19  144 1    
    42   20   21 2    
    43   20   22 1    
    44   22   23 1    
    45   22   24 1    
    46   22  145 1    
    47   23  146 1    
    48   23  147 1    
    49   23  148 1    
    50   24   25 am   BACKBONE|DICT|INTERRES
    51   24  149 1    
    52   25   26 2    
    53   25   27 1    
    54   27   28 1    
    55   27   29 1    
    56   27  150 1    
    57   28  151 1    
    58   28  152 1    
    59   28  153 1    
    60   29   30 am   BACKBONE|DICT|INTERRES
    61   29  154 1    
    62   30   31 2    
    63   30   32 1    
    64   32   33 1    
    65   32   34 1    
    66   32  155 1    
    67   33  156 1    
    68   33  157 1    
    69   33  158 1    
    70   34   35 am   BACKBONE|DICT|INTERRES
    71   34  159 1    
    72   35   36 2    
    73   35   37 1    
    74   37   38 1    
    75   37   39 1    
    76   37  160 1    
    77   38  161 1    
    78   38  162 1    
    79   38  163 1    
    80   39   40 am   BACKBONE|DICT|INTERRES
    81   39  164 1    
    82   40   41 2    
    83   40   42 1    
    84   42   43 1    
    85   42   44 1    
    86   42  165 1    
    87   43  166 1    
    88   43  167 1    
    89   43  168 1    
    90   44   45 am   BACKBONE|DICT|INTERRES
    91   44  169 1    
    92   45   46 2    
    93   45   47 1    
    94   47   48 1    
    95   47   49 1    
    96   47  170 1    
    97   48  171 1    
    98   48  172 1    
    99   48  173 1    
   100   49   50 am   BACKBONE|DICT|INTERRES
   101   49  174 1    
   102   50   51 2    
   103   50   52 1    
   104   52   53 1    
   105   52   54 1    
   106   52  175 1    
   107   53  176 1    
   108   53  177 1    
   109   53  178 1    
   110   54   55 am   BACKBONE|DICT|INTERRES
   111   54  179 1    
   112   55   56 2    
   113   55   57 1    
   114   57   58 1    
   115   57   59 1    
   116   57  180 1    
   117   58  181 1    
   118   58  182 1    
   119   58  183 1    
   120   59   60 am   BACKBONE|DICT|INTERRES
   121   59  184 1    
   122   60   61 2    
   123   60   62 1    
   124   62   63 1    
   125   62   64 1    
   126   62  185 1    
   127   63  186 1    
   128   63  187 1    
   129   63  188 1    
   130   64   65 am   BACKBONE|DICT|INTERRES
   131   64  189 1    
   132   65   66 2    
   133   67   68 2    
   134   67   69 am   BACKBONE|DICT|INTERRES
   135   69   70 1    
   136   69  190 1    
   137   70   71 1    
   138   70   72 1    
   139   70  191 1    
   140   71  192 1    
   141   71  193 1    
   142   71  194 1    
   143   72   73 2    
   144   72   74 am   BACKBONE|DICT|INTERRES
   145   74   75 1    
   146   74  195 1    
   147   75   76 1    
   148   75   77 1    
   149   75  196 1    
   150   76  197 1    
   151   76  198 1    
   152   76  199 1    
   153   77   78 2    
   154   77   79 am   BACKBONE|DICT|INTERRES
   155   79   80 1    
   156   79  200 1    
   157   80   81 1    
   158   80   82 1    
   159   80  201 1    
   160   81  202 1    
   161   81  203 1    
   162   81  204 1    
   163   82   83 2    
   164   82   84 am   BACKBONE|DICT|INTERRES
   165   84   85 1    
   166   84  205 1    
   167   85   86 1    
   168   85   87 1    
   169   85  206 1    
   170   86  207 1    
   171   86  208 1    
   172   86  209 1    
   173   87   88 2    
   174   87   89 am   BACKBONE|DICT|INTERRES
   175   89   90 1    
   176   89  210 1    
   177   90   91 1    
   178   90   92 1    
   179   90  211 1    
   180   91  212 1    
   181   91  213 1    
   182   91  214 1    
   183   92   93 2    
   184   92   94 am   BACKBONE|DICT|INTERRES
   185   94   95 1    
   186   94  215 1    
   187   95   96 1    
   188   95   97 1    
   189   95  216 1    
   190   96  217 1    
   191   96  218 1    
   192   96  219 1    
   193   97   98 2    
   194   97   99 am   BACKBONE|DICT|INTERRES
   195   99  100 1    
   196   99  220 1    
   197  100  101 1    
   198  100  102 1    
   199  100  221 1    
   200  101  222 1    
   201  101  223 1    
   202  101  224 1    
   203  102  103 2    
   204  102  104 am   BACKBONE|DICT|INTERRES
   205  104  105 1    
   206  104  225 1    
   207  105  106 1    
   208  105  107 1    
   209  105  226 1    
   210  106  227 1    
   211  106  228 1    
   212  106  229 1    
   213  107  108 2    
   214  107  109 am   BACKBONE|DICT|INTERRES
   215  109  110 1    
   216  109  230 1    
   217  110  111 1    
   218  110  112 1    
   219  110  231 1    
   220  111  232 1    
   221  111  233 1    
   222  111  234 1    
   223  112  113 2    
   224  112  114 am   BACKBONE|DICT|INTERRES
   225  114  115 1    
   226  114  235 1    
   227  115  116 1    
   228  115  117 1    
   229  115  236 1    
   230  116  237 1    
   231  116  238 1    
   232  116  239 1    
   233  117  118 2    
   234  117  119 am   BACKBONE|DICT|INTERRES
   235  119  120 1    
   236  119  240 1    
   237  120  121 1    
   238  120  124 1    
   239  120  241 1    
   240  121  122 am   BACKBONE|DICT|INTERRES
   241  121  123 2    
   242  122  242 1    
   243  122  243 1    
   244  124  125 1    
   245  124  244 1    
   246  124  245 1    
   247  125  126 1    
   248  126  246 1    
   249  126  247 1    
@<TRIPOS>SUBSTRUCTURE
     1 UNK         1 GROUP             0       ****    0 ROOT    
