@<TRIPOS>MOLECULE
3R540
247   249    1
SMALL
USER_CHARGES


@<TRIPOS>ATOM
      1 CA          1.9207   -7.1559  -45.6935 C.3       0 UNK        -0.1800 
      2 C           2.3677   -8.5846  -45.9662 C.2       0 UNK         0.5000 
      3 O           2.5206   -9.3682  -45.0303 O.2       0 UNK        -0.5000 
      4 N           2.6010   -8.9227  -47.2425 N.am      1 UNK        -0.5000 
      5 CA          2.9949  -10.2457  -47.7585 C.3       1 UNK         0.1400 
      6 C6          2.0148  -11.3708  -47.3164 C.3       23 UNK        -0.0398 
      7 S7          1.8866  -12.7450  -48.5077 S.3       23 UNK        -0.2404 
      8 C8          1.4091  -14.0986  -47.3908 C.3       23 UNK        -0.0205 
      9 C9          0.9290  -15.3150  -48.1673 C.ar      23 UNK        -0.0193 
     10 C10        -0.3274  -15.2981  -48.7802 C.ar      23 UNK        -0.1150 
     11 C11        -0.7827  -16.4123  -49.4878 C.ar      23 UNK        -0.0193 
     12 C12         0.0341  -17.5389  -49.5944 C.ar      23 UNK        -0.1150 
     13 C13         1.2633  -17.6039  -48.9275 C.ar      23 UNK        -0.0193 
     14 C14         1.7136  -16.4710  -48.2395 C.ar      23 UNK        -0.1150 
     15 C15         2.1183  -18.8759  -48.8866 C.3       23 UNK        -0.0205 
     16 S16         1.3229  -20.4354  -49.4374 S.3       23 UNK        -0.2404 
     17 C17        -0.2335  -20.5137  -48.4813 C.3       23 UNK        -0.0398 
     18 CA         -0.4390  -21.8562  -47.7326 C.3       11 UNK         0.1400 
     19 N          -0.0390  -21.7702  -46.3260 N.am      11 UNK        -0.5000 
     20 C          -0.0320  -22.7871  -45.4534 C.2       10 UNK         0.5000 
     21 O          -0.3016  -23.9500  -45.7542 O.2       10 UNK        -0.5000 
     22 CA          0.2675  -22.4333  -43.9843 C.3       10 UNK         0.1400 
     23 CB          1.7744  -22.2458  -43.7545 C.3       10 UNK        -0.1800 
     24 N          -0.4581  -21.2415  -43.5368 N.am      10 UNK        -0.5000 
     25 C          -1.7941  -21.1659  -43.4435 C.2       9 UNK         0.5000 
     26 O          -2.5475  -22.1088  -43.6815 O.2       9 UNK        -0.5000 
     27 CA         -2.3985  -19.8020  -43.0647 C.3       9 UNK         0.1400 
     28 CB         -2.3274  -19.5732  -41.5478 C.3       9 UNK        -0.1800 
     29 N          -1.7598  -18.6861  -43.7598 N.am      9 UNK        -0.5000 
     30 C          -1.7573  -18.5113  -45.0890 C.2       8 UNK         0.5000 
     31 O          -2.3383  -19.2536  -45.8791 O.2       8 UNK        -0.5000 
     32 CA         -0.9021  -17.3502  -45.6262 C.3       8 UNK         0.1400 
     33 CB         -1.6409  -16.0126  -45.4734 C.3       8 UNK        -0.1800 
     34 N           0.4116  -17.2833  -44.9782 N.am      8 UNK        -0.5000 
     35 C           1.3182  -18.2720  -45.0204 C.2       7 UNK         0.5000 
     36 O           1.1577  -19.3212  -45.6390 O.2       7 UNK        -0.5000 
     37 CA          2.5974  -18.0934  -44.1931 C.3       7 UNK         0.1400 
     38 CB          3.6432  -17.2914  -44.9700 C.3       7 UNK        -0.1800 
     39 N           2.3292  -17.4527  -42.9094 N.am      7 UNK        -0.5000 
     40 C           1.7076  -18.0649  -41.8916 C.2       6 UNK         0.5000 
     41 O           1.3510  -19.2436  -41.9175 O.2       6 UNK        -0.5000 
     42 CA          1.3846  -17.1966  -40.6620 C.3       6 UNK         0.1400 
     43 CB          2.6127  -17.0674  -39.7487 C.3       6 UNK        -0.1800 
     44 N           0.9130  -15.8615  -41.0326 N.am      6 UNK        -0.5000 
     45 C          -0.2134  -15.6182  -41.7174 C.2       5 UNK         0.5000 
     46 O          -1.0100  -16.4953  -42.0482 O.2       5 UNK        -0.5000 
     47 CA         -0.4840  -14.1610  -42.1349 C.3       5 UNK         0.1400 
     48 CB         -1.4396  -13.4879  -41.1389 C.3       5 UNK        -0.1800 
     49 N           0.7242  -13.3438  -42.2672 N.am      5 UNK        -0.5000 
     50 C           1.7064  -13.5406  -43.1578 C.2       4 UNK         0.5000 
     51 O           1.7087  -14.4685  -43.9713 O.2       4 UNK        -0.5000 
     52 CA          2.8434  -12.4971  -43.1279 C.3       4 UNK         0.1400 
     53 CB          3.3620  -12.2311  -41.6969 C.3       4 UNK        -0.1800 
     54 N           3.9626  -12.7901  -44.0280 N.am      4 UNK        -0.5000 
     55 C           4.8534  -13.7916  -43.9539 C.2       3 UNK         0.5000 
     56 O           4.8111  -14.6920  -43.1146 O.2       3 UNK        -0.5000 
     57 CA          6.0156  -13.7622  -44.9741 C.3       3 UNK         0.1400 
     58 CB          5.8617  -14.8624  -46.0342 C.3       3 UNK        -0.1800 
     59 N           6.1286  -12.4801  -45.6694 N.am      3 UNK        -0.5000 
     60 C           6.6529  -11.3548  -45.1718 C.2       2 UNK         0.5000 
     61 O           7.1952  -11.2841  -44.0689 O.2       2 UNK        -0.5000 
     62 CA          6.4999  -10.0829  -46.0308 C.3       2 UNK         0.1400 
     63 CB          7.5692  -10.0164  -47.1379 C.3       2 UNK        -0.1800 
     64 N           5.1418   -9.8942  -46.5670 N.am      2 UNK        -0.5000 
     65 C           4.4715  -10.6205  -47.4756 C.2       1 UNK         0.5000 
     66 O           4.9732  -11.5729  -48.0732 O.2       1 UNK        -0.5000 
     67 C          -1.8958  -22.3435  -47.8824 C.2       11 UNK         0.5000 
     68 O          -2.1509  -23.2254  -48.7007 O.2       11 UNK        -0.5000 
     69 N          -2.8178  -21.7842  -47.0859 N.am      12 UNK        -0.5000 
     70 CA         -4.2302  -22.1650  -47.0598 C.3       12 UNK         0.1400 
     71 CB         -5.0280  -21.1504  -46.2271 C.3       12 UNK        -0.1800 
     72 C          -4.4613  -23.5972  -46.5489 C.2       12 UNK         0.5000 
     73 O          -5.2866  -24.3086  -47.1208 O.2       12 UNK        -0.5000 
     74 N          -3.7124  -24.0081  -45.5157 N.am      13 UNK        -0.5000 
     75 CA         -3.7280  -25.3658  -44.9657 C.3       13 UNK         0.1400 
     76 CB         -2.9276  -25.4024  -43.6550 C.3       13 UNK        -0.1800 
     77 C          -3.1967  -26.4145  -45.9606 C.2       13 UNK         0.5000 
     78 O          -3.7604  -27.5056  -46.0535 O.2       13 UNK        -0.5000 
     79 N          -2.1455  -26.0528  -46.7086 N.am      14 UNK        -0.5000 
     80 CA         -1.5890  -26.8501  -47.8032 C.3       14 UNK         0.1400 
     81 CB         -0.1867  -26.3173  -48.1377 C.3       14 UNK        -0.1800 
     82 C          -2.4720  -26.8484  -49.0685 C.2       14 UNK         0.5000 
     83 O          -2.3285  -27.7458  -49.8995 O.2       14 UNK        -0.5000 
     84 N          -3.3399  -25.8331  -49.1955 N.am      15 UNK        -0.5000 
     85 CA         -4.1557  -25.4771  -50.3596 C.3       15 UNK         0.1400 
     86 CB         -5.2372  -26.5426  -50.6304 C.3       15 UNK        -0.1800 
     87 C          -3.2717  -25.1719  -51.5844 C.2       15 UNK         0.5000 
     88 O          -3.4832  -25.7287  -52.6621 O.2       15 UNK        -0.5000 
     89 N          -2.2671  -24.3115  -51.3723 N.am      16 UNK        -0.5000 
     90 CA         -1.2057  -23.9661  -52.3196 C.3       16 UNK         0.1400 
     91 CB         -0.2336  -22.9927  -51.6370 C.3       16 UNK        -0.1800 
     92 C          -1.6936  -23.3975  -53.6672 C.2       16 UNK         0.5000 
     93 O          -1.0596  -23.6543  -54.6916 O.2       16 UNK        -0.5000 
     94 N          -2.8120  -22.6592  -53.6552 N.am      17 UNK        -0.5000 
     95 CA         -3.4677  -22.1306  -54.8551 C.3       17 UNK         0.1400 
     96 CB         -4.4124  -20.9868  -54.4567 C.3       17 UNK        -0.1800 
     97 C          -4.2178  -23.2012  -55.6759 C.2       17 UNK         0.5000 
     98 O          -4.5184  -22.9503  -56.8440 O.2       17 UNK        -0.5000 
     99 N          -4.4997  -24.3631  -55.0656 N.am      18 UNK        -0.5000 
    100 CA        -5.1363  -25.5753  -55.5981 C.3       18 UNK         0.1400 
    101 CB        -4.2874  -26.2000  -56.7217 C.3       18 UNK        -0.1800 
    102 C         -6.6043  -25.4051  -56.0340 C.2       18 UNK         0.5000 
    103 O         -7.4711  -26.1349  -55.5521 O.2       18 UNK        -0.5000 
    104 N         -6.8587  -24.4531  -56.9362 N.am      19 UNK        -0.5000 
    105 CA        -8.1734  -24.1329  -57.4941 C.3       19 UNK         0.1400 
    106 CB        -7.9692  -23.5393  -58.8975 C.3       19 UNK        -0.1800 
    107 C         -8.9864  -23.1654  -56.6106 C.2       19 UNK         0.5000 
    108 O        -10.1556  -22.9152  -56.9077 O.2       19 UNK        -0.5000 
    109 N         -8.3621  -22.6251  -55.5596 N.am      20 UNK        -0.5000 
    110 CA        -8.9297  -21.6613  -54.6256 C.3       20 UNK         0.1400 
    111 CB        -8.7494  -20.2407  -55.1952 C.3       20 UNK        -0.1800 
    112 C         -8.2415  -21.8148  -53.2603 C.2       20 UNK         0.5000 
    113 O         -7.3154  -22.6193  -53.1201 O.2       20 UNK        -0.5000 
    114 N         -8.7037  -21.0285  -52.2813 N.am      21 UNK        -0.5000 
    115 CA        -8.0719  -20.8702  -50.9715 C.3       21 UNK         0.1400 
    116 CB        -9.0682  -20.1798  -50.0258 C.3       21 UNK        -0.1800 
    117 C         -6.7614  -20.0623  -51.0647 C.2       21 UNK         0.5000 
    118 O         -6.5427  -19.3439  -52.0438 O.2       21 UNK        -0.5000 
    119 N         -5.9313  -20.1744  -50.0217 N.am      22 UNK        -0.5000 
    120 CA        -4.5701  -19.6192  -49.9560 C.3       22 UNK         0.1400 
    121 C         -3.5899  -20.3653  -50.9125 C.2       22 UNK         0.5000 
    122 N         -2.5424  -19.7234  -51.4110 N.am      22 UNK        -0.7600 
    123 O         -3.7497  -21.5549  -51.1753 O.2       22 UNK        -0.5000 
    124 C124       -4.5460  -18.0606  -50.0519 C.3       23 UNK        -0.0398 
    125 S125       -3.2999  -17.3237  -48.9408 S.3       23 UNK        -0.2404 
    126 C126       -2.1816  -16.4437  -50.0791 C.3       23 UNK        -0.0205 
    127 H127        0.9460   -7.1557  -45.2058 H         1 UNK         0.0600 
    128 H128        1.8422   -6.5729  -46.6114 H         1 UNK         0.0600 
    129 H129        2.6329   -6.6593  -45.0344 H         1 UNK         0.0600 
    130 H130        2.4851   -8.2139  -47.9544 H         1 UNK         0.3000 
    131 H131        2.9206  -10.1452  -48.8425 H         1 UNK         0.0600 
    132 H132        2.2795  -11.7569  -46.3307 H         1 UNK         0.0800 
    133 H133        1.0071  -10.9661  -47.2119 H         1 UNK         0.0800 
    134 H134        2.2545  -14.3551  -46.7502 H         1 UNK         0.0800 
    135 H135        0.6137  -13.7575  -46.7274 H         1 UNK         0.0800 
    136 H136       -0.9547  -14.4223  -48.6921 H         1 UNK         0.1150 
    137 H137       -0.3263  -18.3841  -50.1577 H         1 UNK         0.1150 
    138 H138        2.6695  -16.4976  -47.7364 H         1 UNK         0.1150 
    139 H139        3.0019  -18.7118  -49.5043 H         1 UNK         0.0800 
    140 H140        2.4843  -19.0290  -47.8714 H         1 UNK         0.0800 
    141 H141       -1.0287  -20.3412  -49.2066 H         1 UNK         0.0800 
    142 H142       -0.2976  -19.6738  -47.7904 H         1 UNK         0.0800 
    143 H143        0.1868  -22.6214  -48.1965 H         1 UNK         0.0600 
    144 H144        0.2516  -20.8503  -45.9990 H         1 UNK         0.3000 
    145 H145       -0.0632  -23.2722  -43.3685 H         1 UNK         0.0600 
    146 H146        1.9905  -22.0370  -42.7065 H         1 UNK         0.0600 
    147 H147        2.1772  -21.4258  -44.3482 H         1 UNK         0.0600 
    148 H148        2.3238  -23.1475  -44.0276 H         1 UNK         0.0600 
    149 H149        0.0971  -20.4281  -43.2999 H         1 UNK         0.3000 
    150 H150       -3.4505  -19.8136  -43.3566 H         1 UNK         0.0600 
    151 H151       -2.8136  -20.3858  -41.0066 H         1 UNK         0.0600 
    152 H152       -2.8295  -18.6475  -41.2658 H         1 UNK         0.0600 
    153 H153       -1.2970  -19.5132  -41.1965 H         1 UNK         0.0600 
    154 H154       -1.2956  -17.9941  -43.1771 H         1 UNK         0.3000 
    155 H155       -0.7343  -17.5235  -46.6899 H         1 UNK         0.0600 
    156 H156       -2.5261  -15.9911  -46.1099 H         1 UNK         0.0600 
    157 H157       -1.0125  -15.1722  -45.7632 H         1 UNK         0.0600 
    158 H158       -1.9755  -15.8465  -44.4504 H         1 UNK         0.0600 
    159 H159        0.6356  -16.4411  -44.4641 H         1 UNK         0.3000 
    160 H160        3.0137  -19.0847  -44.0018 H         1 UNK         0.0600 
    161 H161        3.2951  -16.2824  -45.1911 H         1 UNK         0.0600 
    162 H162        3.8854  -17.7748  -45.9170 H         1 UNK         0.0600 
    163 H163        4.5661  -17.2154  -44.3959 H         1 UNK         0.0600 
    164 H164        2.5589  -16.4704  -42.8350 H         1 UNK         0.3000 
    165 H165        0.5894  -17.6935  -40.1020 H         1 UNK         0.0600 
    166 H166        2.3713  -16.5180  -38.8386 H         1 UNK         0.0600 
    167 H167        2.9791  -18.0496  -39.4470 H         1 UNK         0.0600 
    168 H168        3.4334  -16.5491  -40.2467 H         1 UNK         0.0600 
    169 H169        1.5114  -15.0831  -40.8004 H         1 UNK         0.3000 
    170 H170       -0.9718  -14.1841  -43.1105 H         1 UNK         0.0600 
    171 H171       -0.9950  -13.4069  -40.1462 H         1 UNK         0.0600 
    172 H172       -1.7126  -12.4854  -41.4688 H         1 UNK         0.0600 
    173 H173       -2.3644  -14.0579  -41.0389 H         1 UNK         0.0600 
    174 H174        0.7931  -12.5540  -41.6420 H         1 UNK         0.3000 
    175 H175        2.4066  -11.5691  -43.4976 H         1 UNK         0.0600 
    176 H176        3.6951  -13.1474  -41.2083 H         1 UNK         0.0600 
    177 H177        4.2021  -11.5363  -41.7078 H         1 UNK         0.0600 
    178 H178        2.5930  -11.7843  -41.0664 H         1 UNK         0.0600 
    179 H179        4.1013  -12.1182  -44.7668 H         1 UNK         0.3000 
    180 H180        6.9429  -13.9411  -44.4261 H         1 UNK         0.0600 
    181 H181        6.6308  -14.7821  -46.8026 H         1 UNK         0.0600 
    182 H182        4.8901  -14.8164  -46.5282 H         1 UNK         0.0600 
    183 H183        5.9683  -15.8486  -45.5857 H         1 UNK         0.0600 
    184 H184        5.7192  -12.4244  -46.5992 H         1 UNK         0.3000 
    185 H185        6.6708   -9.2353  -45.3651 H         1 UNK         0.0600 
    186 H186        7.4819   -9.0957  -47.7147 H         1 UNK         0.0600 
    187 H187        8.5715  -10.0371  -46.7083 H         1 UNK         0.0600 
    188 H188        7.4980  -10.8548  -47.8310 H         1 UNK         0.0600 
    189 H189        4.6100   -9.1649  -46.1114 H         1 UNK         0.3000 
    190 H190       -2.5441  -21.0152  -46.4780 H         1 UNK         0.3000 
    191 H191       -4.5996  -22.1281  -48.0862 H         1 UNK         0.0600 
    192 H192       -4.9294  -20.1414  -46.6276 H         1 UNK         0.0600 
    193 H193       -4.6910  -21.1297  -45.1905 H         1 UNK         0.0600 
    194 H194       -6.0904  -21.3969  -46.2223 H         1 UNK         0.0600 
    195 H195       -3.1024  -23.3383  -45.0544 H         1 UNK         0.3000 
    196 H196       -4.7645  -25.6217  -44.7365 H         1 UNK         0.0600 
    197 H197       -3.3508  -24.7214  -42.9165 H         1 UNK         0.0600 
    198 H198       -1.8859  -25.1208  -43.8107 H         1 UNK         0.0600 
    199 H199       -2.9368  -26.4020  -43.2188 H         1 UNK         0.0600 
    200 H200       -1.6923  -25.1637  -46.5180 H         1 UNK         0.3000 
    201 H201       -1.4923  -27.8842  -47.4662 H         1 UNK         0.0600 
    202 H202        0.4699  -26.3615  -47.2686 H         1 UNK         0.0600 
    203 H203       -0.2216  -25.2814  -48.4776 H         1 UNK         0.0600 
    204 H204        0.2789  -26.9068  -48.9284 H         1 UNK         0.0600 
    205 H205       -3.3216  -25.1324  -48.4661 H         1 UNK         0.3000 
    206 H206       -4.6637  -24.5451  -50.1065 H         1 UNK         0.0600 
    207 H207       -4.8044  -27.4970  -50.9310 H         1 UNK         0.0600 
    208 H208       -5.8481  -26.7147  -49.7442 H         1 UNK         0.0600 
    209 H209       -5.9062  -26.2213  -51.4297 H         1 UNK         0.0600 
    210 H210       -2.2034  -23.8823  -50.4516 H         1 UNK         0.3000 
    211 H211       -0.6631  -24.8875  -52.5391 H         1 UNK         0.0600 
    212 H212       -0.7387  -22.0802  -51.3201 H         1 UNK         0.0600 
    213 H213        0.5769  -22.7062  -52.3083 H         1 UNK         0.0600 
    214 H214        0.2201  -23.4438  -50.7542 H         1 UNK         0.0600 
    215 H215       -3.2515  -22.4531  -52.7597 H         1 UNK         0.3000 
    216 H216       -2.7001  -21.7124  -55.5094 H         1 UNK         0.0600 
    217 H217       -4.9724  -20.6138  -55.3152 H         1 UNK         0.0600 
    218 H218       -3.8575  -20.1449  -54.0435 H         1 UNK         0.0600 
    219 H219       -5.1338  -21.3063  -53.7061 H         1 UNK         0.0600 
    220 H220       -4.1811  -24.4655  -54.1079 H         1 UNK         0.3000 
    221 H221       -5.1433  -26.2859  -54.7702 H         1 UNK         0.0600 
    222 H222       -4.2135  -25.5478  -57.5923 H         1 UNK         0.0600 
    223 H223       -3.2756  -26.4115  -56.3757 H         1 UNK         0.0600 
    224 H224       -4.7200  -27.1433  -57.0574 H         1 UNK         0.0600 
    225 H225       -6.0787  -23.8656  -57.2231 H         1 UNK         0.3000 
    226 H226       -8.7543  -25.0521  -57.5933 H         1 UNK         0.0600 
    227 H227       -7.4392  -24.2364  -59.5467 H         1 UNK         0.0600 
    228 H228       -8.9249  -23.3168  -59.3739 H         1 UNK         0.0600 
    229 H229       -7.3956  -22.6122  -58.8609 H         1 UNK         0.0600 
    230 H230       -7.4299  -22.9402  -55.3250 H         1 UNK         0.3000 
    231 H231       -9.9926  -21.8694  -54.4863 H         1 UNK         0.0600 
    232 H232       -9.2012  -19.4896  -54.5469 H         1 UNK         0.0600 
    233 H233       -9.2204  -20.1431  -56.1735 H         1 UNK         0.0600 
    234 H234       -7.6942  -19.9869  -55.3056 H         1 UNK         0.0600 
    235 H235       -9.4479  -20.3804  -52.4927 H         1 UNK         0.3000 
    236 H236       -7.8395  -21.8615  -50.5761 H         1 UNK         0.0600 
    237 H237       -9.3266  -19.1792  -50.3749 H         1 UNK         0.0600 
    238 H238       -9.9912  -20.7535  -49.9381 H         1 UNK         0.0600 
    239 H239       -8.6548  -20.0796  -49.0215 H         1 UNK         0.0600 
    240 H240       -6.1911  -20.7865  -49.2634 H         1 UNK         0.3000 
    241 H241       -4.2236  -19.8909  -48.9598 H         1 UNK         0.0600 
    242 H242       -2.3846  -18.7528  -51.2038 H         1 UNK         0.3800 
    243 H243       -1.9174  -20.2113  -52.0305 H         1 UNK         0.3800 
    244 H244       -5.5063  -17.6547  -49.7310 H         1 UNK         0.0800 
    245 H245       -4.4209  -17.7175  -51.0800 H         1 UNK         0.0800 
    246 H246       -2.5561  -15.4320  -50.2422 H         1 UNK         0.0800 
    247 H247       -2.1547  -16.9230  -51.0575 H         1 UNK         0.0800 
@<TRIPOS>BOND
     1    1    2 1    
     2    1  127 1    
     3    1  128 1    
     4    1  129 1    
     5    2    3 2    
     6    2    4 am   BACKBONE|DICT|INTERRES
     7    4    5 1    
     8    4  130 1    
     9    5    6 1    
    10    5   65 1    
    11    5  131 1    
    12    6    7 1    
    13    6  132 1    
    14    6  133 1    
    15    7    8 1    
    16    8    9 1    
    17    8  134 1    
    18    8  135 1    
    19    9   10 ar   
    20    9   14 ar   
    21   10   11 ar   
    22   10  136 1    
    23   11   12 ar   
    24   11  126 1    
    25   12   13 ar   
    26   12  137 1    
    27   13   14 ar   
    28   13   15 1    
    29   14  138 1    
    30   15   16 1    
    31   15  139 1    
    32   15  140 1    
    33   16   17 1    
    34   17   18 1    
    35   17  141 1    
    36   17  142 1    
    37   18   19 1    
    38   18   67 1    
    39   18  143 1    
    40   19   20 am   BACKBONE|DICT|INTERRES
    41   19  144 1    
    42   20   21 2    
    43   20   22 1    
    44   22   23 1    
    45   22   24 1    
    46   22  145 1    
    47   23  146 1    
    48   23  147 1    
    49   23  148 1    
    50   24   25 am   BACKBONE|DICT|INTERRES
    51   24  149 1    
    52   25   26 2    
    53   25   27 1    
    54   27   28 1    
    55   27   29 1    
    56   27  150 1    
    57   28  151 1    
    58   28  152 1    
    59   28  153 1    
    60   29   30 am   BACKBONE|DICT|INTERRES
    61   29  154 1    
    62   30   31 2    
    63   30   32 1    
    64   32   33 1    
    65   32   34 1    
    66   32  155 1    
    67   33  156 1    
    68   33  157 1    
    69   33  158 1    
    70   34   35 am   BACKBONE|DICT|INTERRES
    71   34  159 1    
    72   35   36 2    
    73   35   37 1    
    74   37   38 1    
    75   37   39 1    
    76   37  160 1    
    77   38  161 1    
    78   38  162 1    
    79   38  163 1    
    80   39   40 am   BACKBONE|DICT|INTERRES
    81   39  164 1    
    82   40   41 2    
    83   40   42 1    
    84   42   43 1    
    85   42   44 1    
    86   42  165 1    
    87   43  166 1    
    88   43  167 1    
    89   43  168 1    
    90   44   45 am   BACKBONE|DICT|INTERRES
    91   44  169 1    
    92   45   46 2    
    93   45   47 1    
    94   47   48 1    
    95   47   49 1    
    96   47  170 1    
    97   48  171 1    
    98   48  172 1    
    99   48  173 1    
   100   49   50 am   BACKBONE|DICT|INTERRES
   101   49  174 1    
   102   50   51 2    
   103   50   52 1    
   104   52   53 1    
   105   52   54 1    
   106   52  175 1    
   107   53  176 1    
   108   53  177 1    
   109   53  178 1    
   110   54   55 am   BACKBONE|DICT|INTERRES
   111   54  179 1    
   112   55   56 2    
   113   55   57 1    
   114   57   58 1    
   115   57   59 1    
   116   57  180 1    
   117   58  181 1    
   118   58  182 1    
   119   58  183 1    
   120   59   60 am   BACKBONE|DICT|INTERRES
   121   59  184 1    
   122   60   61 2    
   123   60   62 1    
   124   62   63 1    
   125   62   64 1    
   126   62  185 1    
   127   63  186 1    
   128   63  187 1    
   129   63  188 1    
   130   64   65 am   BACKBONE|DICT|INTERRES
   131   64  189 1    
   132   65   66 2    
   133   67   68 2    
   134   67   69 am   BACKBONE|DICT|INTERRES
   135   69   70 1    
   136   69  190 1    
   137   70   71 1    
   138   70   72 1    
   139   70  191 1    
   140   71  192 1    
   141   71  193 1    
   142   71  194 1    
   143   72   73 2    
   144   72   74 am   BACKBONE|DICT|INTERRES
   145   74   75 1    
   146   74  195 1    
   147   75   76 1    
   148   75   77 1    
   149   75  196 1    
   150   76  197 1    
   151   76  198 1    
   152   76  199 1    
   153   77   78 2    
   154   77   79 am   BACKBONE|DICT|INTERRES
   155   79   80 1    
   156   79  200 1    
   157   80   81 1    
   158   80   82 1    
   159   80  201 1    
   160   81  202 1    
   161   81  203 1    
   162   81  204 1    
   163   82   83 2    
   164   82   84 am   BACKBONE|DICT|INTERRES
   165   84   85 1    
   166   84  205 1    
   167   85   86 1    
   168   85   87 1    
   169   85  206 1    
   170   86  207 1    
   171   86  208 1    
   172   86  209 1    
   173   87   88 2    
   174   87   89 am   BACKBONE|DICT|INTERRES
   175   89   90 1    
   176   89  210 1    
   177   90   91 1    
   178   90   92 1    
   179   90  211 1    
   180   91  212 1    
   181   91  213 1    
   182   91  214 1    
   183   92   93 2    
   184   92   94 am   BACKBONE|DICT|INTERRES
   185   94   95 1    
   186   94  215 1    
   187   95   96 1    
   188   95   97 1    
   189   95  216 1    
   190   96  217 1    
   191   96  218 1    
   192   96  219 1    
   193   97   98 2    
   194   97   99 am   BACKBONE|DICT|INTERRES
   195   99  100 1    
   196   99  220 1    
   197  100  101 1    
   198  100  102 1    
   199  100  221 1    
   200  101  222 1    
   201  101  223 1    
   202  101  224 1    
   203  102  103 2    
   204  102  104 am   BACKBONE|DICT|INTERRES
   205  104  105 1    
   206  104  225 1    
   207  105  106 1    
   208  105  107 1    
   209  105  226 1    
   210  106  227 1    
   211  106  228 1    
   212  106  229 1    
   213  107  108 2    
   214  107  109 am   BACKBONE|DICT|INTERRES
   215  109  110 1    
   216  109  230 1    
   217  110  111 1    
   218  110  112 1    
   219  110  231 1    
   220  111  232 1    
   221  111  233 1    
   222  111  234 1    
   223  112  113 2    
   224  112  114 am   BACKBONE|DICT|INTERRES
   225  114  115 1    
   226  114  235 1    
   227  115  116 1    
   228  115  117 1    
   229  115  236 1    
   230  116  237 1    
   231  116  238 1    
   232  116  239 1    
   233  117  118 2    
   234  117  119 am   BACKBONE|DICT|INTERRES
   235  119  120 1    
   236  119  240 1    
   237  120  121 1    
   238  120  124 1    
   239  120  241 1    
   240  121  122 am   BACKBONE|DICT|INTERRES
   241  121  123 2    
   242  122  242 1    
   243  122  243 1    
   244  124  125 1    
   245  124  244 1    
   246  124  245 1    
   247  125  126 1    
   248  126  246 1    
   249  126  247 1    
@<TRIPOS>SUBSTRUCTURE
     1 UNK         1 GROUP             0       ****    0 ROOT    
