@<TRIPOS>MOLECULE
3R540
247   249    1
SMALL
USER_CHARGES


@<TRIPOS>ATOM
      1 CA         -5.7976  -15.2717  -49.3155 C.3       0 UNK        -0.1800 
      2 C          -4.4399  -14.8065  -48.8098 C.2       0 UNK         0.5000 
      3 O          -4.3218  -13.6908  -48.3040 O.2       0 UNK        -0.5000 
      4 N          -3.4170  -15.6598  -48.9354 N.am      1 UNK        -0.5000 
      5 CA         -2.0195  -15.3679  -48.5774 C.3       1 UNK         0.1400 
      6 C6         -1.0280  -16.2590  -49.3655 C.3       23 UNK        -0.0398 
      7 S7         -1.0551  -15.8564  -51.1453 S.3       23 UNK        -0.2404 
      8 C8          0.7176  -15.8105  -51.5532 C.3       23 UNK        -0.0205 
      9 C9          1.2725  -17.2052  -51.7998 C.ar      23 UNK        -0.0193 
     10 C10         1.0853  -17.8119  -53.0448 C.ar      23 UNK        -0.1150 
     11 C11         1.5919  -19.0882  -53.2992 C.ar      23 UNK        -0.0193 
     12 C12         2.3207  -19.7457  -52.3055 C.ar      23 UNK        -0.1150 
     13 C13         2.5291  -19.1459  -51.0591 C.ar      23 UNK        -0.0193 
     14 C14         1.9904  -17.8794  -50.8059 C.ar      23 UNK        -0.1150 
     15 C15         3.3794  -19.8554  -50.0154 C.3       23 UNK        -0.0205 
     16 S16         2.5527  -21.3322  -49.3478 S.3       23 UNK        -0.2404 
     17 C17         2.0205  -20.7440  -47.7073 C.3       23 UNK        -0.0398 
     18 CA          1.0906  -21.7661  -47.0087 C.3       11 UNK         0.1400 
     19 N           1.1554  -21.6818  -45.5473 N.am      11 UNK        -0.5000 
     20 C           0.6044  -22.5756  -44.7121 C.2       10 UNK         0.5000 
     21 O           0.0258  -23.5952  -45.0878 O.2       10 UNK        -0.5000 
     22 CA          0.6585  -22.2512  -43.2074 C.3       10 UNK         0.1400 
     23 CB          2.0270  -22.6159  -42.6157 C.3       10 UNK        -0.1800 
     24 N           0.3448  -20.8489  -42.9243 N.am      10 UNK        -0.5000 
     25 C          -0.8418  -20.2825  -43.1853 C.2       9 UNK         0.5000 
     26 O          -1.8018  -20.8973  -43.6451 O.2       9 UNK        -0.5000 
     27 CA         -0.9817  -18.7731  -42.9314 C.3       9 UNK         0.1400 
     28 CB         -1.3840  -18.5057  -41.4749 C.3       9 UNK        -0.1800 
     29 N           0.2231  -18.0133  -43.2706 N.am      9 UNK        -0.5000 
     30 C           0.7421  -17.9211  -44.5042 C.2       8 UNK         0.5000 
     31 O           0.2292  -18.4324  -45.5017 O.2       8 UNK        -0.5000 
     32 CA          2.0981  -17.1973  -44.6239 C.3       8 UNK         0.1400 
     33 CB          1.9841  -15.6937  -44.3257 C.3       8 UNK        -0.1800 
     34 N           3.1088  -17.7712  -43.7364 N.am      8 UNK        -0.5000 
     35 C           3.5686  -19.0279  -43.7986 C.2       7 UNK         0.5000 
     36 O           3.2196  -19.8438  -44.6501 O.2       7 UNK        -0.5000 
     37 CA          4.5611  -19.4576  -42.7007 C.3       7 UNK         0.1400 
     38 CB          6.0038  -19.1693  -43.1413 C.3       7 UNK        -0.1800 
     39 N           4.3215  -18.8315  -41.3963 N.am      7 UNK        -0.5000 
     40 C           3.1863  -18.9155  -40.6883 C.2       6 UNK         0.5000 
     41 O           2.1812  -19.5084  -41.0868 O.2       6 UNK        -0.5000 
     42 CA          3.1478  -18.2071  -39.3232 C.3       6 UNK         0.1400 
     43 CB          4.3159  -17.2286  -39.0750 C.3       6 UNK        -0.1800 
     44 N           1.8819  -17.4949  -39.2237 N.am      6 UNK        -0.5000 
     45 C           1.1902  -17.2471  -38.1107 C.2       5 UNK         0.5000 
     46 O           1.5622  -17.5858  -36.9855 O.2       5 UNK        -0.5000 
     47 CA         -0.1273  -16.4634  -38.3033 C.3       5 UNK         0.1400 
     48 CB         -0.8756  -16.2242  -36.9795 C.3       5 UNK        -0.1800 
     49 N           0.0866  -15.1710  -38.9614 N.am      5 UNK        -0.5000 
     50 C           0.3308  -14.9799  -40.2634 C.2       4 UNK         0.5000 
     51 O           0.4250  -15.8926  -41.0903 O.2       4 UNK        -0.5000 
     52 CA          0.5549  -13.5323  -40.7090 C.3       4 UNK         0.1400 
     53 CB          2.0489  -13.1708  -40.6456 C.3       4 UNK        -0.1800 
     54 N           0.0666  -13.3862  -42.0742 N.am      4 UNK        -0.5000 
     55 C          -0.3646  -12.2468  -42.6260 C.2       3 UNK         0.5000 
     56 O          -0.3769  -11.1657  -42.0355 O.2       3 UNK        -0.5000 
     57 CA         -0.8613  -12.3129  -44.0832 C.3       3 UNK         0.1400 
     58 CB          0.2362  -11.8291  -45.0435 C.3       3 UNK        -0.1800 
     59 N          -1.2906  -13.6467  -44.5046 N.am      3 UNK        -0.5000 
     60 C          -2.4061  -14.2726  -44.1142 C.2       2 UNK         0.5000 
     61 O          -3.2069  -13.7917  -43.3111 O.2       2 UNK        -0.5000 
     62 CA         -2.6659  -15.6580  -44.7498 C.3       2 UNK         0.1400 
     63 CB         -3.9336  -16.3334  -44.1965 C.3       2 UNK        -0.1800 
     64 N          -2.7555  -15.6092  -46.2131 N.am      2 UNK        -0.5000 
     65 C          -1.7318  -15.4240  -47.0594 C.2       1 UNK         0.5000 
     66 O          -0.5720  -15.2805  -46.6738 O.2       1 UNK        -0.5000 
     67 C          -0.3590  -21.6521  -47.5171 C.2       11 UNK         0.5000 
     68 O          -0.7789  -22.4652  -48.3395 O.2       11 UNK        -0.5000 
     69 N          -1.1143  -20.6855  -46.9757 N.am      12 UNK        -0.5000 
     70 CA         -2.5326  -20.4932  -47.2734 C.3       12 UNK         0.1400 
     71 CB         -3.0260  -19.2009  -46.6134 C.3       12 UNK        -0.1800 
     72 C          -3.4038  -21.6967  -46.8673 C.2       12 UNK         0.5000 
     73 O          -4.2932  -22.0758  -47.6254 O.2       12 UNK        -0.5000 
     74 N          -3.1232  -22.3063  -45.7094 N.am      13 UNK        -0.5000 
     75 CA         -3.7858  -23.5265  -45.2481 C.3       13 UNK         0.1400 
     76 CB         -3.3859  -23.8153  -43.7932 C.3       13 UNK        -0.1800 
     77 C          -3.4888  -24.7384  -46.1512 C.2       13 UNK         0.5000 
     78 O          -4.4061  -25.4956  -46.4703 O.2       13 UNK        -0.5000 
     79 N          -2.2214  -24.8890  -46.5589 N.am      14 UNK        -0.5000 
     80 CA         -1.7515  -25.9719  -47.4215 C.3       14 UNK         0.1400 
     81 CB         -0.2154  -26.0097  -47.3999 C.3       14 UNK        -0.1800 
     82 C          -2.2708  -25.8687  -48.8674 C.2       14 UNK         0.5000 
     83 O          -2.7115  -26.8745  -49.4248 O.2       14 UNK        -0.5000 
     84 N          -2.2035  -24.6647  -49.4494 N.am      15 UNK        -0.5000 
     85 CA         -2.5061  -24.4001  -50.8579 C.3       15 UNK         0.1400 
     86 CB         -1.4243  -23.4686  -51.4315 C.3       15 UNK        -0.1800 
     87 C          -3.9264  -23.8469  -51.0908 C.2       15 UNK         0.5000 
     88 O          -4.1813  -23.3076  -52.1664 O.2       15 UNK        -0.5000 
     89 N          -4.8269  -23.9920  -50.1059 N.am      16 UNK        -0.5000 
     90 CA         -6.2559  -23.6460  -50.1525 C.3       16 UNK         0.1400 
     91 CB         -7.0060  -24.6012  -51.1043 C.3       16 UNK        -0.1800 
     92 C          -6.5017  -22.1576  -50.4824 C.2       16 UNK         0.5000 
     93 O          -7.0923  -21.8309  -51.5119 O.2       16 UNK        -0.5000 
     94 N          -5.9851  -21.2960  -49.5986 N.am      17 UNK        -0.5000 
     95 CA         -5.8734  -19.8326  -49.6467 C.3       17 UNK         0.1400 
     96 CB         -7.1680  -19.1381  -50.1122 C.3       17 UNK        -0.1800 
     97 C          -4.6413  -19.3461  -50.4312 C.2       17 UNK         0.5000 
     98 O          -4.2160  -18.2087  -50.2198 O.2       17 UNK        -0.5000 
     99 N          -4.0641  -20.2200  -51.2687 N.am      18 UNK        -0.5000 
    100 CA        -2.9292  -19.9763  -52.1578 C.3       18 UNK         0.1400 
    101 CB        -1.6601  -19.6496  -51.3429 C.3       18 UNK        -0.1800 
    102 C         -3.2831  -18.9369  -53.2440 C.2       18 UNK         0.5000 
    103 O         -4.4208  -18.9298  -53.7220 O.2       18 UNK        -0.5000 
    104 N         -2.3125  -18.1052  -53.6474 N.am      19 UNK        -0.5000 
    105 CA        -2.4071  -17.1063  -54.7176 C.3       19 UNK         0.1400 
    106 CB        -3.3508  -15.9511  -54.3100 C.3       19 UNK        -0.1800 
    107 C         -2.7701  -17.7761  -56.0585 C.2       19 UNK         0.5000 
    108 O         -1.9530  -18.5249  -56.5945 O.2       19 UNK        -0.5000 
    109 N         -3.9920  -17.5425  -56.5552 N.am      20 UNK        -0.5000 
    110 CA        -4.5422  -18.1727  -57.7568 C.3       20 UNK         0.1400 
    111 CB        -5.8824  -17.5071  -58.1031 C.3       20 UNK        -0.1800 
    112 C         -4.7152  -19.6999  -57.6280 C.2       20 UNK         0.5000 
    113 O         -4.6203  -20.4038  -58.6350 O.2       20 UNK        -0.5000 
    114 N         -4.9248  -20.1971  -56.3988 N.am      21 UNK        -0.5000 
    115 CA        -5.0652  -21.6250  -56.0980 C.3       21 UNK         0.1400 
    116 CB        -5.6760  -21.8004  -54.7006 C.3       21 UNK        -0.1800 
    117 C         -3.7494  -22.4191  -56.2372 C.2       21 UNK         0.5000 
    118 O         -3.7983  -23.6487  -56.2920 O.2       21 UNK        -0.5000 
    119 N         -2.6083  -21.7209  -56.3363 N.am      22 UNK        -0.5000 
    120 CA        -1.3077  -22.3065  -56.7003 C.3       22 UNK         0.1400 
    121 C         -1.2108  -22.7548  -58.1910 C.2       22 UNK         0.5000 
    122 N         -2.1219  -22.3600  -59.0752 N.am      22 UNK        -0.7600 
    123 O         -0.2894  -23.4816  -58.5523 O.2       22 UNK        -0.5000 
    124 C124       -0.1227  -21.3699  -56.3530 C.3       23 UNK        -0.0398 
    125 S125       -0.0632  -20.8826  -54.5981 S.3       23 UNK        -0.2404 
    126 C126        1.3601  -19.7505  -54.6476 C.3       23 UNK        -0.0205 
    127 H127       -6.3562  -15.7516  -48.5119 H         1 UNK         0.0600 
    128 H128       -6.3789  -14.4243  -49.6796 H         1 UNK         0.0600 
    129 H129       -5.6922  -15.9803  -50.1369 H         1 UNK         0.0600 
    130 H130       -3.5837  -16.5624  -49.3755 H         1 UNK         0.3000 
    131 H131       -1.8164  -14.3329  -48.8612 H         1 UNK         0.0600 
    132 H132       -1.2614  -17.3135  -49.2178 H         1 UNK         0.0800 
    133 H133       -0.0074  -16.1272  -49.0033 H         1 UNK         0.0800 
    134 H134        0.8494  -15.2081  -52.4533 H         1 UNK         0.0800 
    135 H135        1.2763  -15.2990  -50.7682 H         1 UNK         0.0800 
    136 H136        0.5453  -17.2869  -53.8182 H         1 UNK         0.1150 
    137 H137        2.7280  -20.7277  -52.5016 H         1 UNK         0.1150 
    138 H138        2.1489  -17.4093  -49.8456 H         1 UNK         0.1150 
    139 H139        4.3173  -20.1640  -50.4793 H         1 UNK         0.0800 
    140 H140        3.6542  -19.1766  -49.2065 H         1 UNK         0.0800 
    141 H141        1.5563  -19.7587  -47.7883 H         1 UNK         0.0800 
    142 H142        2.9289  -20.6034  -47.1214 H         1 UNK         0.0800 
    143 H143        1.4409  -22.7695  -47.2617 H         1 UNK         0.0600 
    144 H144        1.6536  -20.8859  -45.1593 H         1 UNK         0.3000 
    145 H145       -0.0961  -22.8629  -42.7084 H         1 UNK         0.0600 
    146 H146        2.0774  -22.3769  -41.5533 H         1 UNK         0.0600 
    147 H147        2.2211  -23.6840  -42.7202 H         1 UNK         0.0600 
    148 H148        2.8355  -22.0888  -43.1196 H         1 UNK         0.0600 
    149 H149        1.0690  -20.2895  -42.4826 H         1 UNK         0.3000 
    150 H150       -1.7916  -18.4196  -43.5699 H         1 UNK         0.0600 
    151 H151       -2.2431  -19.1129  -41.1868 H         1 UNK         0.0600 
    152 H152       -1.6684  -17.4636  -41.3321 H         1 UNK         0.0600 
    153 H153       -0.5712  -18.7373  -40.7859 H         1 UNK         0.0600 
    154 H154        0.6890  -17.5468  -42.5033 H         1 UNK         0.3000 
    155 H155        2.4424  -17.3151  -45.6535 H         1 UNK         0.0600 
    156 H156        1.2003  -15.2268  -44.9163 H         1 UNK         0.0600 
    157 H157        2.9139  -15.1777  -44.5651 H         1 UNK         0.0600 
    158 H158        1.7638  -15.5023  -43.2772 H         1 UNK         0.0600 
    159 H159        3.4515  -17.1782  -42.9959 H         1 UNK         0.3000 
    160 H160        4.4596  -20.5354  -42.5674 H         1 UNK         0.0600 
    161 H161        6.2213  -19.6425  -44.1000 H         1 UNK         0.0600 
    162 H162        6.7226  -19.5575  -42.4194 H         1 UNK         0.0600 
    163 H163        6.1845  -18.0996  -43.2546 H         1 UNK         0.0600 
    164 H164        5.0945  -18.3173  -40.9991 H         1 UNK         0.3000 
    165 H165        3.1793  -18.9923  -38.5653 H         1 UNK         0.0600 
    166 H166        4.2227  -16.7494  -38.1003 H         1 UNK         0.0600 
    167 H167        5.2772  -17.7436  -39.0807 H         1 UNK         0.0600 
    168 H168        4.3483  -16.4386  -39.8266 H         1 UNK         0.0600 
    169 H169        1.4806  -17.1795  -40.1015 H         1 UNK         0.3000 
    170 H170       -0.7731  -17.0727  -38.9377 H         1 UNK         0.0600 
    171 H171       -1.0936  -17.1673  -36.4766 H         1 UNK         0.0600 
    172 H172       -0.2926  -15.6107  -36.2915 H         1 UNK         0.0600 
    173 H173       -1.8286  -15.7232  -37.1506 H         1 UNK         0.0600 
    174 H174        0.0741  -14.3658  -38.3520 H         1 UNK         0.3000 
    175 H175       -0.0111  -12.8729  -40.0473 H         1 UNK         0.0600 
    176 H176        2.4395  -13.2924  -39.6345 H         1 UNK         0.0600 
    177 H177        2.6429  -13.8039  -41.3061 H         1 UNK         0.0600 
    178 H178        2.2179  -12.1337  -40.9358 H         1 UNK         0.0600 
    179 H179        0.0046  -14.2493  -42.5964 H         1 UNK         0.3000 
    180 H180       -1.7150  -11.6376  -44.1699 H         1 UNK         0.0600 
    181 H181        1.1122  -12.4784  -45.0118 H         1 UNK         0.0600 
    182 H182        0.5646  -10.8209  -44.7876 H         1 UNK         0.0600 
    183 H183       -0.1236  -11.8016  -46.0723 H         1 UNK         0.0600 
    184 H184       -0.7286  -14.1074  -45.2158 H         1 UNK         0.3000 
    185 H185       -1.8137  -16.2846  -44.4865 H         1 UNK         0.0600 
    186 H186       -4.0674  -17.3317  -44.6106 H         1 UNK         0.0600 
    187 H187       -3.8777  -16.4405  -43.1124 H         1 UNK         0.0600 
    188 H188       -4.8295  -15.7550  -44.4254 H         1 UNK         0.0600 
    189 H189       -3.6822  -15.6648  -46.6086 H         1 UNK         0.3000 
    190 H190       -0.6903  -20.0403  -46.3159 H         1 UNK         0.3000 
    191 H191       -2.6265  -20.3737  -48.3538 H         1 UNK         0.0600 
    192 H192       -2.9485  -19.2534  -45.5282 H         1 UNK         0.0600 
    193 H193       -4.0689  -19.0025  -46.8610 H         1 UNK         0.0600 
    194 H194       -2.4416  -18.3462  -46.9508 H         1 UNK         0.0600 
    195 H195       -2.4292  -21.8972  -45.0886 H         1 UNK         0.3000 
    196 H196       -4.8634  -23.3514  -45.2721 H         1 UNK         0.0600 
    197 H197       -2.3109  -23.9656  -43.6920 H         1 UNK         0.0600 
    198 H198       -3.8803  -24.7141  -43.4229 H         1 UNK         0.0600 
    199 H199       -3.6707  -22.9931  -43.1366 H         1 UNK         0.0600 
    200 H200       -1.5180  -24.2400  -46.2197 H         1 UNK         0.3000 
    201 H201       -2.1152  -26.9140  -47.0058 H         1 UNK         0.0600 
    202 H202        0.1597  -26.1767  -46.3900 H         1 UNK         0.0600 
    203 H203        0.2159  -25.0769  -47.7653 H         1 UNK         0.0600 
    204 H204        0.1658  -26.8168  -48.0266 H         1 UNK         0.0600 
    205 H205       -1.8064  -23.8857  -48.9263 H         1 UNK         0.3000 
    206 H206       -2.4513  -25.3324  -51.4233 H         1 UNK         0.0600 
    207 H207       -1.4352  -22.4999  -50.9379 H         1 UNK         0.0600 
    208 H208       -1.5660  -23.2973  -52.4995 H         1 UNK         0.0600 
    209 H209       -0.4290  -23.8940  -51.3028 H         1 UNK         0.0600 
    210 H210       -4.5009  -24.3949  -49.2383 H         1 UNK         0.3000 
    211 H211       -6.6470  -23.8112  -49.1473 H         1 UNK         0.0600 
    212 H212       -6.6726  -24.4916  -52.1370 H         1 UNK         0.0600 
    213 H213       -8.0789  -24.4066  -51.0854 H         1 UNK         0.0600 
    214 H214       -6.8593  -25.6415  -50.8139 H         1 UNK         0.0600 
    215 H215       -5.4586  -21.7075  -48.8254 H         1 UNK         0.3000 
    216 H216       -5.7071  -19.5313  -48.6120 H         1 UNK         0.0600 
    217 H217       -7.1143  -18.0642  -49.9325 H         1 UNK         0.0600 
    218 H218       -8.0376  -19.5149  -49.5739 H         1 UNK         0.0600 
    219 H219       -7.3424  -19.2743  -51.1797 H         1 UNK         0.0600 
    220 H220       -4.5190  -21.1146  -51.3970 H         1 UNK         0.3000 
    221 H221       -2.7525  -20.9160  -52.6824 H         1 UNK         0.0600 
    222 H222       -1.6786  -18.6301  -50.9712 H         1 UNK         0.0600 
    223 H223       -1.5509  -20.3046  -50.4804 H         1 UNK         0.0600 
    224 H224       -0.7618  -19.7681  -51.9443 H         1 UNK         0.0600 
    225 H225       -1.4055  -18.1962  -53.2124 H         1 UNK         0.3000 
    226 H226       -1.4117  -16.6825  -54.8490 H         1 UNK         0.0600 
    227 H227       -2.9934  -15.4591  -53.4061 H         1 UNK         0.0600 
    228 H228       -3.3973  -15.1891  -55.0889 H         1 UNK         0.0600 
    229 H229       -4.3683  -16.2893  -54.1131 H         1 UNK         0.0600 
    230 H230       -4.6142  -16.9436  -56.0320 H         1 UNK         0.3000 
    231 H231       -3.8467  -17.9901  -58.5786 H         1 UNK         0.0600 
    232 H232       -6.3086  -17.9364  -59.0109 H         1 UNK         0.0600 
    233 H233       -5.7592  -16.4381  -58.2777 H         1 UNK         0.0600 
    234 H234       -6.6137  -17.6360  -57.3042 H         1 UNK         0.0600 
    235 H235       -4.9363  -19.5668  -55.6026 H         1 UNK         0.3000 
    236 H236       -5.7685  -22.0472  -56.8188 H         1 UNK         0.0600 
    237 H237       -4.9996  -21.4582  -53.9195 H         1 UNK         0.0600 
    238 H238       -6.6110  -21.2494  -54.5992 H         1 UNK         0.0600 
    239 H239       -5.8936  -22.8496  -54.4973 H         1 UNK         0.0600 
    240 H240       -2.6404  -20.7109  -56.2916 H         1 UNK         0.3000 
    241 H241       -1.1854  -23.2140  -56.1058 H         1 UNK         0.0600 
    242 H242       -2.0426  -22.6642  -60.0328 H         1 UNK         0.3800 
    243 H243       -2.8903  -21.7593  -58.8057 H         1 UNK         0.3800 
    244 H244       -0.1647  -20.4672  -56.9645 H         1 UNK         0.0800 
    245 H245        0.8254  -21.8557  -56.5909 H         1 UNK         0.0800 
    246 H246        2.2527  -20.3014  -54.9479 H         1 UNK         0.0800 
    247 H247        1.1915  -18.9919  -55.4138 H         1 UNK         0.0800 
@<TRIPOS>BOND
     1    1    2 1    
     2    1  127 1    
     3    1  128 1    
     4    1  129 1    
     5    2    3 2    
     6    2    4 am   BACKBONE|DICT|INTERRES
     7    4    5 1    
     8    4  130 1    
     9    5    6 1    
    10    5   65 1    
    11    5  131 1    
    12    6    7 1    
    13    6  132 1    
    14    6  133 1    
    15    7    8 1    
    16    8    9 1    
    17    8  134 1    
    18    8  135 1    
    19    9   10 ar   
    20    9   14 ar   
    21   10   11 ar   
    22   10  136 1    
    23   11   12 ar   
    24   11  126 1    
    25   12   13 ar   
    26   12  137 1    
    27   13   14 ar   
    28   13   15 1    
    29   14  138 1    
    30   15   16 1    
    31   15  139 1    
    32   15  140 1    
    33   16   17 1    
    34   17   18 1    
    35   17  141 1    
    36   17  142 1    
    37   18   19 1    
    38   18   67 1    
    39   18  143 1    
    40   19   20 am   BACKBONE|DICT|INTERRES
    41   19  144 1    
    42   20   21 2    
    43   20   22 1    
    44   22   23 1    
    45   22   24 1    
    46   22  145 1    
    47   23  146 1    
    48   23  147 1    
    49   23  148 1    
    50   24   25 am   BACKBONE|DICT|INTERRES
    51   24  149 1    
    52   25   26 2    
    53   25   27 1    
    54   27   28 1    
    55   27   29 1    
    56   27  150 1    
    57   28  151 1    
    58   28  152 1    
    59   28  153 1    
    60   29   30 am   BACKBONE|DICT|INTERRES
    61   29  154 1    
    62   30   31 2    
    63   30   32 1    
    64   32   33 1    
    65   32   34 1    
    66   32  155 1    
    67   33  156 1    
    68   33  157 1    
    69   33  158 1    
    70   34   35 am   BACKBONE|DICT|INTERRES
    71   34  159 1    
    72   35   36 2    
    73   35   37 1    
    74   37   38 1    
    75   37   39 1    
    76   37  160 1    
    77   38  161 1    
    78   38  162 1    
    79   38  163 1    
    80   39   40 am   BACKBONE|DICT|INTERRES
    81   39  164 1    
    82   40   41 2    
    83   40   42 1    
    84   42   43 1    
    85   42   44 1    
    86   42  165 1    
    87   43  166 1    
    88   43  167 1    
    89   43  168 1    
    90   44   45 am   BACKBONE|DICT|INTERRES
    91   44  169 1    
    92   45   46 2    
    93   45   47 1    
    94   47   48 1    
    95   47   49 1    
    96   47  170 1    
    97   48  171 1    
    98   48  172 1    
    99   48  173 1    
   100   49   50 am   BACKBONE|DICT|INTERRES
   101   49  174 1    
   102   50   51 2    
   103   50   52 1    
   104   52   53 1    
   105   52   54 1    
   106   52  175 1    
   107   53  176 1    
   108   53  177 1    
   109   53  178 1    
   110   54   55 am   BACKBONE|DICT|INTERRES
   111   54  179 1    
   112   55   56 2    
   113   55   57 1    
   114   57   58 1    
   115   57   59 1    
   116   57  180 1    
   117   58  181 1    
   118   58  182 1    
   119   58  183 1    
   120   59   60 am   BACKBONE|DICT|INTERRES
   121   59  184 1    
   122   60   61 2    
   123   60   62 1    
   124   62   63 1    
   125   62   64 1    
   126   62  185 1    
   127   63  186 1    
   128   63  187 1    
   129   63  188 1    
   130   64   65 am   BACKBONE|DICT|INTERRES
   131   64  189 1    
   132   65   66 2    
   133   67   68 2    
   134   67   69 am   BACKBONE|DICT|INTERRES
   135   69   70 1    
   136   69  190 1    
   137   70   71 1    
   138   70   72 1    
   139   70  191 1    
   140   71  192 1    
   141   71  193 1    
   142   71  194 1    
   143   72   73 2    
   144   72   74 am   BACKBONE|DICT|INTERRES
   145   74   75 1    
   146   74  195 1    
   147   75   76 1    
   148   75   77 1    
   149   75  196 1    
   150   76  197 1    
   151   76  198 1    
   152   76  199 1    
   153   77   78 2    
   154   77   79 am   BACKBONE|DICT|INTERRES
   155   79   80 1    
   156   79  200 1    
   157   80   81 1    
   158   80   82 1    
   159   80  201 1    
   160   81  202 1    
   161   81  203 1    
   162   81  204 1    
   163   82   83 2    
   164   82   84 am   BACKBONE|DICT|INTERRES
   165   84   85 1    
   166   84  205 1    
   167   85   86 1    
   168   85   87 1    
   169   85  206 1    
   170   86  207 1    
   171   86  208 1    
   172   86  209 1    
   173   87   88 2    
   174   87   89 am   BACKBONE|DICT|INTERRES
   175   89   90 1    
   176   89  210 1    
   177   90   91 1    
   178   90   92 1    
   179   90  211 1    
   180   91  212 1    
   181   91  213 1    
   182   91  214 1    
   183   92   93 2    
   184   92   94 am   BACKBONE|DICT|INTERRES
   185   94   95 1    
   186   94  215 1    
   187   95   96 1    
   188   95   97 1    
   189   95  216 1    
   190   96  217 1    
   191   96  218 1    
   192   96  219 1    
   193   97   98 2    
   194   97   99 am   BACKBONE|DICT|INTERRES
   195   99  100 1    
   196   99  220 1    
   197  100  101 1    
   198  100  102 1    
   199  100  221 1    
   200  101  222 1    
   201  101  223 1    
   202  101  224 1    
   203  102  103 2    
   204  102  104 am   BACKBONE|DICT|INTERRES
   205  104  105 1    
   206  104  225 1    
   207  105  106 1    
   208  105  107 1    
   209  105  226 1    
   210  106  227 1    
   211  106  228 1    
   212  106  229 1    
   213  107  108 2    
   214  107  109 am   BACKBONE|DICT|INTERRES
   215  109  110 1    
   216  109  230 1    
   217  110  111 1    
   218  110  112 1    
   219  110  231 1    
   220  111  232 1    
   221  111  233 1    
   222  111  234 1    
   223  112  113 2    
   224  112  114 am   BACKBONE|DICT|INTERRES
   225  114  115 1    
   226  114  235 1    
   227  115  116 1    
   228  115  117 1    
   229  115  236 1    
   230  116  237 1    
   231  116  238 1    
   232  116  239 1    
   233  117  118 2    
   234  117  119 am   BACKBONE|DICT|INTERRES
   235  119  120 1    
   236  119  240 1    
   237  120  121 1    
   238  120  124 1    
   239  120  241 1    
   240  121  122 am   BACKBONE|DICT|INTERRES
   241  121  123 2    
   242  122  242 1    
   243  122  243 1    
   244  124  125 1    
   245  124  244 1    
   246  124  245 1    
   247  125  126 1    
   248  126  246 1    
   249  126  247 1    
@<TRIPOS>SUBSTRUCTURE
     1 UNK         1 GROUP             0       ****    0 ROOT    
