@<TRIPOS>MOLECULE
3R540
247   249    1
SMALL
USER_CHARGES


@<TRIPOS>ATOM
      1 CA          2.9430   -8.8173  -45.1610 C.3       0 UNK        -0.1800 
      2 C           1.9885   -9.9847  -44.9621 C.2       0 UNK         0.5000 
      3 O           1.6620  -10.3172  -43.8243 O.2       0 UNK        -0.5000 
      4 N           1.5204  -10.5887  -46.0635 N.am      1 UNK        -0.5000 
      5 CA          0.6492  -11.7752  -46.1177 C.3       1 UNK         0.1400 
      6 C6          0.4059  -12.1972  -47.5894 C.3       23 UNK        -0.0398 
      7 S7          0.0406  -13.9711  -47.8105 S.3       23 UNK        -0.2404 
      8 C8         -1.7381  -13.9221  -48.1988 C.3       23 UNK        -0.0205 
      9 C9         -2.2286  -15.2010  -48.8654 C.ar      23 UNK        -0.0193 
     10 C10        -1.6943  -15.5952  -50.0953 C.ar      23 UNK        -0.1150 
     11 C11        -2.1929  -16.7162  -50.7628 C.ar      23 UNK        -0.0193 
     12 C12        -3.2447  -17.4419  -50.1968 C.ar      23 UNK        -0.1150 
     13 C13        -3.7851  -17.0679  -48.9611 C.ar      23 UNK        -0.0193 
     14 C14        -3.2652  -15.9497  -48.2979 C.ar      23 UNK        -0.1150 
     15 C15        -4.9634  -17.8310  -48.3589 C.3       23 UNK        -0.0205 
     16 S16        -4.7478  -19.6427  -48.3516 S.3       23 UNK        -0.2404 
     17 C17        -3.2272  -19.7868  -47.3631 C.3       23 UNK        -0.0398 
     18 CA         -2.8756  -21.2495  -47.0016 C.3       11 UNK         0.1400 
     19 N          -1.4233  -21.4391  -46.9202 N.am      11 UNK        -0.5000 
     20 C          -0.7932  -22.6185  -46.8379 C.2       10 UNK         0.5000 
     21 O          -1.3671  -23.7050  -46.8352 O.2       10 UNK        -0.5000 
     22 CA          0.7375  -22.5773  -46.6819 C.3       10 UNK         0.1400 
     23 CB          1.4234  -22.3699  -48.0405 C.3       10 UNK        -0.1800 
     24 N           1.1713  -21.5469  -45.7376 N.am      10 UNK        -0.5000 
     25 C           0.8579  -21.5430  -44.4336 C.2       9 UNK         0.5000 
     26 O           0.2327  -22.4478  -43.8811 O.2       9 UNK        -0.5000 
     27 CA          1.2453  -20.2915  -43.6260 C.3       9 UNK         0.1400 
     28 CB          2.7272  -20.3282  -43.2255 C.3       9 UNK        -0.1800 
     29 N           0.9579  -19.0525  -44.3488 N.am      9 UNK        -0.5000 
     30 C          -0.2674  -18.6506  -44.7161 C.2       8 UNK         0.5000 
     31 O          -1.2991  -19.2576  -44.4347 O.2       8 UNK        -0.5000 
     32 CA         -0.3523  -17.3802  -45.5785 C.3       8 UNK         0.1400 
     33 CB         -0.3203  -16.1277  -44.6902 C.3       8 UNK        -0.1800 
     34 N           0.7112  -17.3176  -46.5837 N.am      8 UNK        -0.5000 
     35 C           0.8229  -18.1685  -47.6148 C.2       7 UNK         0.5000 
     36 O           0.0354  -19.0885  -47.8263 O.2       7 UNK        -0.5000 
     37 CA          2.0593  -18.0119  -48.5185 C.3       7 UNK         0.1400 
     38 CB          1.8924  -16.8412  -49.4974 C.3       7 UNK        -0.1800 
     39 N           3.2897  -17.8266  -47.7504 N.am      7 UNK        -0.5000 
     40 C           3.8254  -18.7440  -46.9327 C.2       6 UNK         0.5000 
     41 O           3.3725  -19.8786  -46.7843 O.2       6 UNK        -0.5000 
     42 CA          5.0409  -18.2920  -46.0988 C.3       6 UNK         0.1400 
     43 CB          6.3441  -18.5021  -46.8837 C.3       6 UNK        -0.1800 
     44 N           4.9518  -16.8926  -45.6649 N.am      6 UNK        -0.5000 
     45 C           3.9819  -16.4101  -44.8777 C.2       5 UNK         0.5000 
     46 O           3.0736  -17.1053  -44.4128 O.2       5 UNK        -0.5000 
     47 CA          3.9933  -14.8996  -44.6057 C.3       5 UNK         0.1400 
     48 CB          3.6404  -14.1138  -45.8840 C.3       5 UNK        -0.1800 
     49 N           3.0145  -14.6358  -43.5568 N.am      5 UNK        -0.5000 
     50 C           2.8892  -13.5164  -42.8422 C.2       4 UNK         0.5000 
     51 O           3.6025  -12.5224  -42.9892 O.2       4 UNK        -0.5000 
     52 CA          1.8173  -13.5354  -41.7440 C.3       4 UNK         0.1400 
     53 CB          2.4595  -13.9080  -40.3921 C.3       4 UNK        -0.1800 
     54 N           1.1674  -12.2288  -41.6777 N.am      4 UNK        -0.5000 
     55 C           0.0845  -11.9284  -40.9489 C.2       3 UNK         0.5000 
     56 O          -0.5148  -12.7390  -40.2413 O.2       3 UNK        -0.5000 
     57 CA         -0.4347  -10.4856  -41.0433 C.3       3 UNK         0.1400 
     58 CB          0.6282   -9.4673  -40.5947 C.3       3 UNK        -0.1800 
     59 N          -0.8426  -10.1990  -42.4149 N.am      3 UNK        -0.5000 
     60 C          -2.1043  -10.2373  -42.8653 C.2       2 UNK         0.5000 
     61 O          -3.0827  -10.4322  -42.1426 O.2       2 UNK        -0.5000 
     62 CA         -2.3232  -10.0241  -44.3789 C.3       2 UNK         0.1400 
     63 CB         -2.7033   -8.5634  -44.6660 C.3       2 UNK        -0.1800 
     64 N          -1.1615  -10.3796  -45.1959 N.am      2 UNK        -0.5000 
     65 C          -0.6813  -11.6227  -45.3430 C.2       1 UNK         0.5000 
     66 O          -1.2250  -12.6175  -44.8643 O.2       1 UNK        -0.5000 
     67 C          -3.6263  -21.7236  -45.7359 C.2       11 UNK         0.5000 
     68 O          -4.7703  -22.1687  -45.8331 O.2       11 UNK        -0.5000 
     69 N          -2.9744  -21.6324  -44.5697 N.am      12 UNK        -0.5000 
     70 CA         -3.4678  -22.1808  -43.3088 C.3       12 UNK         0.1400 
     71 CB         -2.7473  -21.4969  -42.1367 C.3       12 UNK        -0.1800 
     72 C          -3.2986  -23.7103  -43.2435 C.2       12 UNK         0.5000 
     73 O          -4.1837  -24.3951  -42.7294 O.2       12 UNK        -0.5000 
     74 N          -2.1688  -24.2165  -43.7578 N.am      13 UNK        -0.5000 
     75 CA         -1.8214  -25.6375  -43.7727 C.3       13 UNK         0.1400 
     76 CB         -0.3276  -25.7957  -44.0956 C.3       13 UNK        -0.1800 
     77 C          -2.6772  -26.4719  -44.7440 C.2       13 UNK         0.5000 
     78 O          -3.0502  -27.5945  -44.3991 O.2       13 UNK        -0.5000 
     79 N          -2.9713  -25.9243  -45.9288 N.am      14 UNK        -0.5000 
     80 CA         -3.7674  -26.5642  -46.9714 C.3       14 UNK         0.1400 
     81 CB         -2.8304  -27.2055  -48.0066 C.3       14 UNK        -0.1800 
     82 C          -4.6735  -25.5238  -47.6383 C.2       14 UNK         0.5000 
     83 O          -4.2459  -24.3875  -47.8472 O.2       14 UNK        -0.5000 
     84 N          -5.8974  -25.9405  -47.9910 N.am      15 UNK        -0.5000 
     85 CA         -6.9251  -25.1160  -48.6312 C.3       15 UNK         0.1400 
     86 CB         -8.1708  -25.9749  -48.8967 C.3       15 UNK        -0.1800 
     87 C          -6.4263  -24.4633  -49.9331 C.2       15 UNK         0.5000 
     88 O          -5.9258  -25.1663  -50.8149 O.2       15 UNK        -0.5000 
     89 N          -6.5240  -23.1273  -49.9947 N.am      16 UNK        -0.5000 
     90 CA         -6.0468  -22.2550  -51.0764 C.3       16 UNK         0.1400 
     91 CB         -6.9098  -22.4527  -52.3390 C.3       16 UNK        -0.1800 
     92 C          -4.5336  -22.3952  -51.3629 C.2       16 UNK         0.5000 
     93 O          -4.1005  -22.1688  -52.4949 O.2       16 UNK        -0.5000 
     94 N          -3.7680  -22.8000  -50.3383 N.am      17 UNK        -0.5000 
     95 CA         -2.3365  -23.1078  -50.3565 C.3       17 UNK         0.1400 
     96 CB         -1.5047  -21.8459  -50.6660 C.3       17 UNK        -0.1800 
     97 C          -1.9777  -24.3077  -51.2563 C.2       17 UNK         0.5000 
     98 O          -0.8481  -24.3840  -51.7409 O.2       17 UNK        -0.5000 
     99 N          -2.9464  -25.2108  -51.4875 N.am      18 UNK        -0.5000 
    100 CA        -2.9154  -26.4231  -52.3224 C.3       18 UNK         0.1400 
    101 CB        -1.8479  -27.4188  -51.8303 C.3       18 UNK        -0.1800 
    102 C         -2.7641  -26.1657  -53.8368 C.2       18 UNK         0.5000 
    103 O         -3.3711  -26.8770  -54.6372 O.2       18 UNK        -0.5000 
    104 N         -1.9796  -25.1481  -54.2045 N.am      19 UNK        -0.5000 
    105 CA        -1.6795  -24.7151  -55.5687 C.3       19 UNK         0.1400 
    106 CB        -0.3557  -23.9349  -55.5354 C.3       19 UNK        -0.1800 
    107 C         -2.8011  -23.8853  -56.2310 C.2       19 UNK         0.5000 
    108 O         -2.6147  -23.4372  -57.3623 O.2       19 UNK        -0.5000 
    109 N         -3.9291  -23.6965  -55.5288 N.am      20 UNK        -0.5000 
    110 CA        -5.1261  -22.9521  -55.9301 C.3       20 UNK         0.1400 
    111 CB        -5.7669  -23.5432  -57.2038 C.3       20 UNK        -0.1800 
    112 C         -4.8342  -21.4452  -56.0368 C.2       20 UNK         0.5000 
    113 O         -4.6907  -20.9078  -57.1360 O.2       20 UNK        -0.5000 
    114 N         -4.7258  -20.8130  -54.8620 N.am      21 UNK        -0.5000 
    115 CA        -4.3791  -19.4116  -54.6186 C.3       21 UNK         0.1400 
    116 CB        -5.3490  -18.4379  -55.3210 C.3       21 UNK        -0.1800 
    117 C         -2.8947  -19.1468  -54.9208 C.2       21 UNK         0.5000 
    118 O         -2.5551  -18.1670  -55.5857 O.2       21 UNK        -0.5000 
    119 N         -2.0417  -20.0368  -54.3958 N.am      22 UNK        -0.5000 
    120 CA        -0.5691  -19.9746  -54.4484 C.3       22 UNK         0.1400 
    121 C          0.0508  -20.1813  -55.8660 C.2       22 UNK         0.5000 
    122 N         -0.7018  -20.6195  -56.8677 N.am      22 UNK        -0.7600 
    123 O          1.2461  -19.9752  -56.0576 O.2       22 UNK        -0.5000 
    124 C124        0.0187  -18.7249  -53.7293 C.3       23 UNK        -0.0398 
    125 S125       -0.5265  -18.5581  -51.9928 S.3       23 UNK        -0.2404 
    126 C126       -1.6270  -17.1143  -52.1157 C.3       23 UNK        -0.0205 
    127 H127        2.5285   -7.9142  -44.7132 H         1 UNK         0.0600 
    128 H128        3.8971   -9.0310  -44.6793 H         1 UNK         0.0600 
    129 H129        3.1304   -8.6202  -46.2167 H         1 UNK         0.0600 
    130 H130        1.8208  -10.2365  -46.9613 H         1 UNK         0.3000 
    131 H131        1.2009  -12.5716  -45.6161 H         1 UNK         0.0600 
    132 H132       -0.3644  -11.5803  -48.0553 H         1 UNK         0.0800 
    133 H133        1.3084  -12.0173  -48.1753 H         1 UNK         0.0800 
    134 H134       -1.9448  -13.0913  -48.8746 H         1 UNK         0.0800 
    135 H135       -2.2933  -13.7226  -47.2810 H         1 UNK         0.0800 
    136 H136       -0.8979  -15.0149  -50.5398 H         1 UNK         0.1150 
    137 H137       -3.6431  -18.2988  -50.7216 H         1 UNK         0.1150 
    138 H138       -3.6909  -15.6408  -47.3535 H         1 UNK         0.1150 
    139 H139       -5.1523  -17.5019  -47.3359 H         1 UNK         0.0800 
    140 H140       -5.8607  -17.5891  -48.9295 H         1 UNK         0.0800 
    141 H141       -3.2907  -19.1541  -46.4758 H         1 UNK         0.0800 
    142 H142       -2.4408  -19.3563  -47.9811 H         1 UNK         0.0800 
    143 H143       -3.2117  -21.8902  -47.8157 H         1 UNK         0.0600 
    144 H144       -0.8583  -20.5962  -46.9761 H         1 UNK         0.3000 
    145 H145        1.0578  -23.5439  -46.2883 H         1 UNK         0.0600 
    146 H146        2.5084  -22.4088  -47.9432 H         1 UNK         0.0600 
    147 H147        1.1310  -23.1478  -48.7470 H         1 UNK         0.0600 
    148 H148        1.1633  -21.4092  -48.4845 H         1 UNK         0.0600 
    149 H149        1.7301  -20.7871  -46.1141 H         1 UNK         0.3000 
    150 H150        0.6473  -20.2875  -42.7124 H         1 UNK         0.0600 
    151 H151        2.9488  -21.2187  -42.6362 H         1 UNK         0.0600 
    152 H152        2.9939  -19.4614  -42.6204 H         1 UNK         0.0600 
    153 H153        3.3809  -20.3412  -44.0970 H         1 UNK         0.0600 
    154 H154        1.7518  -18.4589  -44.5732 H         1 UNK         0.3000 
    155 H155       -1.3086  -17.3965  -46.1058 H         1 UNK         0.0600 
    156 H156        0.6191  -16.0383  -44.1479 H         1 UNK         0.0600 
    157 H157       -1.1220  -16.1548  -43.9512 H         1 UNK         0.0600 
    158 H158       -0.4585  -15.2208  -45.2751 H         1 UNK         0.0600 
    159 H159        1.4175  -16.6102  -46.4561 H         1 UNK         0.3000 
    160 H160        2.1560  -18.9300  -49.1023 H         1 UNK         0.0600 
    161 H161        2.6717  -16.8526  -50.2594 H         1 UNK         0.0600 
    162 H162        1.9374  -15.8789  -48.9886 H         1 UNK         0.0600 
    163 H163        0.9340  -16.8943  -50.0129 H         1 UNK         0.0600 
    164 H164        3.7328  -16.9225  -47.8111 H         1 UNK         0.3000 
    165 H165        5.0780  -18.9167  -45.2042 H         1 UNK         0.0600 
    166 H166        7.2153  -18.2663  -46.2723 H         1 UNK         0.0600 
    167 H167        6.4441  -19.5407  -47.2023 H         1 UNK         0.0600 
    168 H168        6.3819  -17.8792  -47.7782 H         1 UNK         0.0600 
    169 H169        5.6657  -16.2667  -46.0090 H         1 UNK         0.3000 
    170 H170        4.9859  -14.6152  -44.2511 H         1 UNK         0.0600 
    171 H171        4.3702  -14.2935  -46.6739 H         1 UNK         0.0600 
    172 H172        2.6624  -14.3999  -46.2711 H         1 UNK         0.0600 
    173 H173        3.6295  -13.0390  -45.7033 H         1 UNK         0.0600 
    174 H174        2.4472  -15.4465  -43.3396 H         1 UNK         0.3000 
    175 H175        1.0610  -14.2794  -42.0032 H         1 UNK         0.0600 
    176 H176        3.1629  -13.1432  -40.0605 H         1 UNK         0.0600 
    177 H177        1.7127  -14.0377  -39.6094 H         1 UNK         0.0600 
    178 H178        3.0078  -14.8481  -40.4658 H         1 UNK         0.0600 
    179 H179        1.5745  -11.5207  -42.2861 H         1 UNK         0.3000 
    180 H180       -1.2860  -10.3906  -40.3659 H         1 UNK         0.0600 
    181 H181        1.5062   -9.4744  -41.2411 H         1 UNK         0.0600 
    182 H182        0.9660   -9.6796  -39.5797 H         1 UNK         0.0600 
    183 H183        0.2237   -8.4551  -40.5974 H         1 UNK         0.0600 
    184 H184       -0.0852  -10.0962  -43.0841 H         1 UNK         0.3000 
    185 H185       -3.1569  -10.6607  -44.6825 H         1 UNK         0.0600 
    186 H186       -3.5856   -8.2698  -44.0957 H         1 UNK         0.0600 
    187 H187       -1.8974   -7.8784  -44.3994 H         1 UNK         0.0600 
    188 H188       -2.9362   -8.4156  -45.7207 H         1 UNK         0.0600 
    189 H189       -0.6471   -9.6159  -45.6097 H         1 UNK         0.3000 
    190 H190       -2.0763  -21.1621  -44.5491 H         1 UNK         0.3000 
    191 H191       -4.5331  -21.9565  -43.2229 H         1 UNK         0.0600 
    192 H192       -1.6734  -21.6826  -42.1559 H         1 UNK         0.0600 
    193 H193       -3.1260  -21.8611  -41.1810 H         1 UNK         0.0600 
    194 H194       -2.8988  -20.4175  -42.1578 H         1 UNK         0.0600 
    195 H195       -1.4697  -23.5766  -44.1188 H         1 UNK         0.3000 
    196 H196       -1.9877  -26.0306  -42.7676 H         1 UNK         0.0600 
    197 H197       -0.0869  -25.4102  -45.0863 H         1 UNK         0.0600 
    198 H198       -0.0321  -26.8453  -44.0716 H         1 UNK         0.0600 
    199 H199        0.2913  -25.2667  -43.3707 H         1 UNK         0.0600 
    200 H200       -2.6172  -24.9975  -46.1604 H         1 UNK         0.3000 
    201 H201       -4.4010  -27.3396  -46.5358 H         1 UNK         0.0600 
    202 H202       -3.4014  -27.6914  -48.7985 H         1 UNK         0.0600 
    203 H203       -2.1955  -27.9642  -47.5489 H         1 UNK         0.0600 
    204 H204       -2.1821  -26.4621  -48.4732 H         1 UNK         0.0600 
    205 H205       -6.1501  -26.9023  -47.8180 H         1 UNK         0.3000 
    206 H206       -7.1969  -24.3304  -47.9231 H         1 UNK         0.0600 
    207 H207       -8.5729  -26.3862  -47.9707 H         1 UNK         0.0600 
    208 H208       -8.9618  -25.3828  -49.3588 H         1 UNK         0.0600 
    209 H209       -7.9500  -26.8069  -49.5668 H         1 UNK         0.0600 
    210 H210       -6.9183  -22.6438  -49.1993 H         1 UNK         0.3000 
    211 H211       -6.1942  -21.2307  -50.7315 H         1 UNK         0.0600 
    212 H212       -6.7274  -23.4214  -52.8053 H         1 UNK         0.0600 
    213 H213       -6.7051  -21.6812  -53.0805 H         1 UNK         0.0600 
    214 H214       -7.9721  -22.3914  -52.1028 H         1 UNK         0.0600 
    215 H215       -4.2306  -23.0287  -49.4646 H         1 UNK         0.3000 
    216 H216       -2.0877  -23.4276  -49.3467 H         1 UNK         0.0600 
    217 H217       -1.6453  -21.5091  -51.6926 H         1 UNK         0.0600 
    218 H218       -0.4395  -22.0327  -50.5293 H         1 UNK         0.0600 
    219 H219       -1.7728  -21.0217  -50.0045 H         1 UNK         0.0600 
    220 H220       -3.8570  -25.0206  -51.0815 H         1 UNK         0.3000 
    221 H221       -3.8904  -26.8933  -52.1845 H         1 UNK         0.0600 
    222 H222       -0.8367  -27.0330  -51.9613 H         1 UNK         0.0600 
    223 H223       -1.9812  -27.6559  -50.7761 H         1 UNK         0.0600 
    224 H224       -1.9097  -28.3571  -52.3829 H         1 UNK         0.0600 
    225 H225       -1.4944  -24.6588  -53.4568 H         1 UNK         0.3000 
    226 H226       -1.5348  -25.6024  -56.1881 H         1 UNK         0.0600 
    227 H227        0.4567  -24.5548  -55.1558 H         1 UNK         0.0600 
    228 H228       -0.0652  -23.5974  -56.5311 H         1 UNK         0.0600 
    229 H229       -0.4299  -23.0559  -54.8960 H         1 UNK         0.0600 
    230 H230       -3.9483  -24.0763  -54.5932 H         1 UNK         0.3000 
    231 H231       -5.8504  -23.0822  -55.1252 H         1 UNK         0.0600 
    232 H232       -5.9816  -24.6045  -57.0794 H         1 UNK         0.0600 
    233 H233       -5.1293  -23.4313  -58.0808 H         1 UNK         0.0600 
    234 H234       -6.7106  -23.0442  -57.4263 H         1 UNK         0.0600 
    235 H235       -4.7410  -21.3872  -54.0216 H         1 UNK         0.3000 
    236 H236       -4.4968  -19.2586  -53.5445 H         1 UNK         0.0600 
    237 H237       -5.1674  -17.4125  -54.9970 H         1 UNK         0.0600 
    238 H238       -5.2384  -18.4573  -56.4052 H         1 UNK         0.0600 
    239 H239       -6.3861  -18.6744  -55.0835 H         1 UNK         0.0600 
    240 H240       -2.4283  -20.8092  -53.8711 H         1 UNK         0.3000 
    241 H241       -0.2341  -20.8435  -53.8815 H         1 UNK         0.0600 
    242 H242       -1.6853  -20.7980  -56.7386 H         1 UNK         0.3800 
    243 H243       -0.2845  -20.7613  -57.7736 H         1 UNK         0.3800 
    244 H244        1.1082  -18.7808  -53.7094 H         1 UNK         0.0800 
    245 H245       -0.2191  -17.8163  -54.2839 H         1 UNK         0.0800 
    246 H246       -1.0774  -16.2810  -52.5561 H         1 UNK         0.0800 
    247 H247       -2.4503  -17.3314  -52.7947 H         1 UNK         0.0800 
@<TRIPOS>BOND
     1    1    2 1    
     2    1  127 1    
     3    1  128 1    
     4    1  129 1    
     5    2    3 2    
     6    2    4 am   BACKBONE|DICT|INTERRES
     7    4    5 1    
     8    4  130 1    
     9    5    6 1    
    10    5   65 1    
    11    5  131 1    
    12    6    7 1    
    13    6  132 1    
    14    6  133 1    
    15    7    8 1    
    16    8    9 1    
    17    8  134 1    
    18    8  135 1    
    19    9   10 ar   
    20    9   14 ar   
    21   10   11 ar   
    22   10  136 1    
    23   11   12 ar   
    24   11  126 1    
    25   12   13 ar   
    26   12  137 1    
    27   13   14 ar   
    28   13   15 1    
    29   14  138 1    
    30   15   16 1    
    31   15  139 1    
    32   15  140 1    
    33   16   17 1    
    34   17   18 1    
    35   17  141 1    
    36   17  142 1    
    37   18   19 1    
    38   18   67 1    
    39   18  143 1    
    40   19   20 am   BACKBONE|DICT|INTERRES
    41   19  144 1    
    42   20   21 2    
    43   20   22 1    
    44   22   23 1    
    45   22   24 1    
    46   22  145 1    
    47   23  146 1    
    48   23  147 1    
    49   23  148 1    
    50   24   25 am   BACKBONE|DICT|INTERRES
    51   24  149 1    
    52   25   26 2    
    53   25   27 1    
    54   27   28 1    
    55   27   29 1    
    56   27  150 1    
    57   28  151 1    
    58   28  152 1    
    59   28  153 1    
    60   29   30 am   BACKBONE|DICT|INTERRES
    61   29  154 1    
    62   30   31 2    
    63   30   32 1    
    64   32   33 1    
    65   32   34 1    
    66   32  155 1    
    67   33  156 1    
    68   33  157 1    
    69   33  158 1    
    70   34   35 am   BACKBONE|DICT|INTERRES
    71   34  159 1    
    72   35   36 2    
    73   35   37 1    
    74   37   38 1    
    75   37   39 1    
    76   37  160 1    
    77   38  161 1    
    78   38  162 1    
    79   38  163 1    
    80   39   40 am   BACKBONE|DICT|INTERRES
    81   39  164 1    
    82   40   41 2    
    83   40   42 1    
    84   42   43 1    
    85   42   44 1    
    86   42  165 1    
    87   43  166 1    
    88   43  167 1    
    89   43  168 1    
    90   44   45 am   BACKBONE|DICT|INTERRES
    91   44  169 1    
    92   45   46 2    
    93   45   47 1    
    94   47   48 1    
    95   47   49 1    
    96   47  170 1    
    97   48  171 1    
    98   48  172 1    
    99   48  173 1    
   100   49   50 am   BACKBONE|DICT|INTERRES
   101   49  174 1    
   102   50   51 2    
   103   50   52 1    
   104   52   53 1    
   105   52   54 1    
   106   52  175 1    
   107   53  176 1    
   108   53  177 1    
   109   53  178 1    
   110   54   55 am   BACKBONE|DICT|INTERRES
   111   54  179 1    
   112   55   56 2    
   113   55   57 1    
   114   57   58 1    
   115   57   59 1    
   116   57  180 1    
   117   58  181 1    
   118   58  182 1    
   119   58  183 1    
   120   59   60 am   BACKBONE|DICT|INTERRES
   121   59  184 1    
   122   60   61 2    
   123   60   62 1    
   124   62   63 1    
   125   62   64 1    
   126   62  185 1    
   127   63  186 1    
   128   63  187 1    
   129   63  188 1    
   130   64   65 am   BACKBONE|DICT|INTERRES
   131   64  189 1    
   132   65   66 2    
   133   67   68 2    
   134   67   69 am   BACKBONE|DICT|INTERRES
   135   69   70 1    
   136   69  190 1    
   137   70   71 1    
   138   70   72 1    
   139   70  191 1    
   140   71  192 1    
   141   71  193 1    
   142   71  194 1    
   143   72   73 2    
   144   72   74 am   BACKBONE|DICT|INTERRES
   145   74   75 1    
   146   74  195 1    
   147   75   76 1    
   148   75   77 1    
   149   75  196 1    
   150   76  197 1    
   151   76  198 1    
   152   76  199 1    
   153   77   78 2    
   154   77   79 am   BACKBONE|DICT|INTERRES
   155   79   80 1    
   156   79  200 1    
   157   80   81 1    
   158   80   82 1    
   159   80  201 1    
   160   81  202 1    
   161   81  203 1    
   162   81  204 1    
   163   82   83 2    
   164   82   84 am   BACKBONE|DICT|INTERRES
   165   84   85 1    
   166   84  205 1    
   167   85   86 1    
   168   85   87 1    
   169   85  206 1    
   170   86  207 1    
   171   86  208 1    
   172   86  209 1    
   173   87   88 2    
   174   87   89 am   BACKBONE|DICT|INTERRES
   175   89   90 1    
   176   89  210 1    
   177   90   91 1    
   178   90   92 1    
   179   90  211 1    
   180   91  212 1    
   181   91  213 1    
   182   91  214 1    
   183   92   93 2    
   184   92   94 am   BACKBONE|DICT|INTERRES
   185   94   95 1    
   186   94  215 1    
   187   95   96 1    
   188   95   97 1    
   189   95  216 1    
   190   96  217 1    
   191   96  218 1    
   192   96  219 1    
   193   97   98 2    
   194   97   99 am   BACKBONE|DICT|INTERRES
   195   99  100 1    
   196   99  220 1    
   197  100  101 1    
   198  100  102 1    
   199  100  221 1    
   200  101  222 1    
   201  101  223 1    
   202  101  224 1    
   203  102  103 2    
   204  102  104 am   BACKBONE|DICT|INTERRES
   205  104  105 1    
   206  104  225 1    
   207  105  106 1    
   208  105  107 1    
   209  105  226 1    
   210  106  227 1    
   211  106  228 1    
   212  106  229 1    
   213  107  108 2    
   214  107  109 am   BACKBONE|DICT|INTERRES
   215  109  110 1    
   216  109  230 1    
   217  110  111 1    
   218  110  112 1    
   219  110  231 1    
   220  111  232 1    
   221  111  233 1    
   222  111  234 1    
   223  112  113 2    
   224  112  114 am   BACKBONE|DICT|INTERRES
   225  114  115 1    
   226  114  235 1    
   227  115  116 1    
   228  115  117 1    
   229  115  236 1    
   230  116  237 1    
   231  116  238 1    
   232  116  239 1    
   233  117  118 2    
   234  117  119 am   BACKBONE|DICT|INTERRES
   235  119  120 1    
   236  119  240 1    
   237  120  121 1    
   238  120  124 1    
   239  120  241 1    
   240  121  122 am   BACKBONE|DICT|INTERRES
   241  121  123 2    
   242  122  242 1    
   243  122  243 1    
   244  124  125 1    
   245  124  244 1    
   246  124  245 1    
   247  125  126 1    
   248  126  246 1    
   249  126  247 1    
@<TRIPOS>SUBSTRUCTURE
     1 UNK         1 GROUP             0       ****    0 ROOT    
