@<TRIPOS>MOLECULE
3R540
247   249    1
SMALL
USER_CHARGES


@<TRIPOS>ATOM
      1 CA         -1.1062  -11.8046  -45.3712 C.3       0 UNK        -0.1800 
      2 C           0.0904  -11.7155  -46.3062 C.2       0 UNK         0.5000 
      3 O           1.0535  -11.0091  -46.0079 O.2       0 UNK        -0.5000 
      4 N           0.0410  -12.4371  -47.4339 N.am      1 UNK        -0.5000 
      5 CA          1.0602  -12.4285  -48.4940 C.3       1 UNK         0.1400 
      6 C6          0.5526  -13.1130  -49.7854 C.3       23 UNK        -0.0398 
      7 S7          0.0778  -14.8698  -49.5849 S.3       23 UNK        -0.2404 
      8 C8          1.4853  -15.7020  -50.3881 C.3       23 UNK        -0.0205 
      9 C9          1.1094  -17.0906  -50.8795 C.ar      23 UNK        -0.0193 
     10 C10         0.2690  -17.2246  -51.9870 C.ar      23 UNK        -0.1150 
     11 C11        -0.0637  -18.4876  -52.4783 C.ar      23 UNK        -0.0193 
     12 C12         0.4516  -19.6247  -51.8507 C.ar      23 UNK        -0.1150 
     13 C13         1.3037  -19.5125  -50.7456 C.ar      23 UNK        -0.0193 
     14 C14         1.6247  -18.2349  -50.2627 C.ar      23 UNK        -0.1150 
     15 C15         1.8770  -20.8023  -50.1541 C.3       23 UNK        -0.0205 
     16 S16         2.7972  -20.6570  -48.5793 S.3       23 UNK        -0.2404 
     17 C17         1.4779  -20.3150  -47.3660 C.3       23 UNK        -0.0398 
     18 CA          0.8858  -21.6089  -46.7461 C.3       11 UNK         0.1400 
     19 N           0.4814  -21.4404  -45.3472 N.am      11 UNK        -0.5000 
     20 C           0.0429  -22.4279  -44.5507 C.2       10 UNK         0.5000 
     21 O          -0.0041  -23.6112  -44.8863 O.2       10 UNK        -0.5000 
     22 CA         -0.4934  -22.0213  -43.1668 C.3       10 UNK         0.1400 
     23 CB          0.6540  -21.8214  -42.1659 C.3       10 UNK        -0.1800 
     24 N          -1.3271  -20.8197  -43.2251 N.am      10 UNK        -0.5000 
     25 C          -2.4885  -20.7419  -43.8917 C.2       9 UNK         0.5000 
     26 O          -3.0085  -21.6977  -44.4677 O.2       9 UNK        -0.5000 
     27 CA         -3.1593  -19.3585  -43.9695 C.3       9 UNK         0.1400 
     28 CB         -3.9491  -19.0629  -42.6861 C.3       9 UNK        -0.1800 
     29 N          -2.2036  -18.2792  -44.2225 N.am      9 UNK        -0.5000 
     30 C          -1.4633  -18.1598  -45.3345 C.2       8 UNK         0.5000 
     31 O          -1.5419  -18.9252  -46.2946 O.2       8 UNK        -0.5000 
     32 CA         -0.4107  -17.0369  -45.3512 C.3       8 UNK         0.1400 
     33 CB         -1.0436  -15.6799  -45.6892 C.3       8 UNK        -0.1800 
     34 N           0.3143  -16.9404  -44.0844 N.am      8 UNK        -0.5000 
     35 C           1.1144  -17.9007  -43.5989 C.2       7 UNK         0.5000 
     36 O           1.3523  -18.9533  -44.1885 O.2       7 UNK        -0.5000 
     37 CA          1.7116  -17.6680  -42.2019 C.3       7 UNK         0.1400 
     38 CB          2.9570  -16.7721  -42.2734 C.3       7 UNK        -0.1800 
     39 N           0.7328  -17.0914  -41.2814 N.am      7 UNK        -0.5000 
     40 C          -0.3418  -17.7473  -40.8197 C.2       6 UNK         0.5000 
     41 O          -0.5970  -18.9200  -41.0912 O.2       6 UNK        -0.5000 
     42 CA         -1.3178  -16.9414  -39.9446 C.3       6 UNK         0.1400 
     43 CB         -0.8385  -16.9080  -38.4859 C.3       6 UNK        -0.1800 
     44 N          -1.4993  -15.5726  -40.4289 N.am      6 UNK        -0.5000 
     45 C          -2.0786  -15.2525  -41.5948 C.2       5 UNK         0.5000 
     46 O          -2.5538  -16.0775  -42.3736 O.2       5 UNK        -0.5000 
     47 CA         -2.0740  -13.7628  -41.9771 C.3       5 UNK         0.1400 
     48 CB         -3.2703  -13.0344  -41.3478 C.3       5 UNK        -0.1800 
     49 N          -0.8315  -13.0856  -41.5961 N.am      5 UNK        -0.5000 
     50 C           0.3648  -13.3576  -42.1307 C.2       4 UNK         0.5000 
     51 O           0.5520  -14.2228  -42.9916 O.2       4 UNK        -0.5000 
     52 CA          1.5512  -12.5380  -41.6160 C.3       4 UNK         0.1400 
     53 CB          2.2829  -13.2711  -40.4784 C.3       4 UNK        -0.1800 
     54 N           2.4440  -12.3124  -42.7431 N.am      4 UNK        -0.5000 
     55 C           3.3495  -11.3356  -42.8517 C.2       3 UNK         0.5000 
     56 O           3.6098  -10.5498  -41.9389 O.2       3 UNK        -0.5000 
     57 CA          4.0427  -11.1658  -44.2195 C.3       3 UNK         0.1400 
     58 CB          5.5624  -10.9286  -44.0937 C.3       3 UNK        -0.1800 
     59 N           3.7222  -12.2223  -45.1894 N.am      3 UNK        -0.5000 
     60 C           4.1817  -13.4827  -45.2452 C.2       2 UNK         0.5000 
     61 O           4.9932  -13.9486  -44.4456 O.2       2 UNK        -0.5000 
     62 CA          3.6240  -14.3880  -46.3687 C.3       2 UNK         0.1400 
     63 CB          3.2624  -15.7844  -45.8414 C.3       2 UNK        -0.1800 
     64 N           2.4352  -13.8247  -47.0104 N.am      2 UNK        -0.5000 
     65 C           2.4332  -12.9846  -48.0529 C.2       1 UNK         0.5000 
     66 O           3.4534  -12.6215  -48.6384 O.2       1 UNK        -0.5000 
     67 C          -0.2743  -22.1505  -47.6016 C.2       11 UNK         0.5000 
     68 O          -0.0944  -23.1451  -48.3020 O.2       11 UNK        -0.5000 
     69 N          -1.4491  -21.5125  -47.4954 N.am      12 UNK        -0.5000 
     70 CA         -2.6772  -21.8947  -48.1907 C.3       12 UNK         0.1400 
     71 CB         -3.7954  -20.8983  -47.8556 C.3       12 UNK        -0.1800 
     72 C          -3.1211  -23.3334  -47.8822 C.2       12 UNK         0.5000 
     73 O          -3.4818  -24.0613  -48.8070 O.2       12 UNK        -0.5000 
     74 N          -3.0506  -23.7223  -46.6019 N.am      13 UNK        -0.5000 
     75 CA         -3.3259  -25.0758  -46.1256 C.3       13 UNK         0.1400 
     76 CB         -3.3700  -25.0830  -44.5901 C.3       13 UNK        -0.1800 
     77 C          -2.3116  -26.1054  -46.6552 C.2       13 UNK         0.5000 
     78 O          -2.7232  -27.1360  -47.1895 O.2       13 UNK        -0.5000 
     79 N          -1.0114  -25.7976  -46.5343 N.am      14 UNK        -0.5000 
     80 CA          0.0962  -26.6404  -46.9986 C.3       14 UNK         0.1400 
     81 CB          1.4303  -26.0311  -46.5421 C.3       14 UNK        -0.1800 
     82 C           0.0983  -26.8618  -48.5228 C.2       14 UNK         0.5000 
     83 O           0.4217  -27.9579  -48.9812 O.2       14 UNK        -0.5000 
     84 N          -0.3044  -25.8299  -49.2730 N.am      15 UNK        -0.5000 
     85 CA         -0.4732  -25.8412  -50.7253 C.3       15 UNK         0.1400 
     86 CB         -0.2730  -24.4097  -51.2443 C.3       15 UNK        -0.1800 
     87 C          -1.8189  -26.4439  -51.1923 C.2       15 UNK         0.5000 
     88 O          -2.1179  -26.3749  -52.3849 O.2       15 UNK        -0.5000 
     89 N          -2.5878  -27.0415  -50.2681 N.am      16 UNK        -0.5000 
     90 CA         -3.8436  -27.7669  -50.4782 C.3       16 UNK         0.1400 
     91 CB         -3.6294  -29.0041  -51.3765 C.3       16 UNK        -0.1800 
     92 C          -4.9871  -26.8520  -50.9567 C.2       16 UNK         0.5000 
     93 O          -5.5490  -27.0624  -52.0333 O.2       16 UNK        -0.5000 
     94 N          -5.3109  -25.8614  -50.1155 N.am      17 UNK        -0.5000 
     95 CA         -6.3667  -24.8569  -50.2735 C.3       17 UNK         0.1400 
     96 CB         -7.7625  -25.5076  -50.3844 C.3       17 UNK        -0.1800 
     97 C          -6.0563  -23.8570  -51.4027 C.2       17 UNK         0.5000 
     98 O          -6.9047  -23.5908  -52.2571 O.2       17 UNK        -0.5000 
     99 N          -4.8342  -23.3117  -51.3679 N.am      18 UNK        -0.5000 
    100 CA        -4.3910  -22.2110  -52.2236 C.3       18 UNK         0.1400 
    101 CB        -2.8703  -22.3157  -52.4299 C.3       18 UNK        -0.1800 
    102 C         -4.8252  -20.8453  -51.6448 C.2       18 UNK         0.5000 
    103 O         -5.7445  -20.7784  -50.8270 O.2       18 UNK        -0.5000 
    104 N         -4.1963  -19.7665  -52.1289 N.am      19 UNK        -0.5000 
    105 CA        -4.4498  -18.3408  -51.8638 C.3       19 UNK         0.1400 
    106 CB        -4.4157  -17.9950  -50.3636 C.3       19 UNK        -0.1800 
    107 C         -5.7186  -17.8155  -52.5625 C.2       19 UNK         0.5000 
    108 O         -5.6959  -16.7112  -53.1060 O.2       19 UNK        -0.5000 
    109 N         -6.7685  -18.6454  -52.6213 N.am      20 UNK        -0.5000 
    110 CA        -7.9039  -18.5016  -53.5378 C.3       20 UNK         0.1400 
    111 CB        -9.0356  -19.4300  -53.0720 C.3       20 UNK        -0.1800 
    112 C         -7.5150  -18.8134  -55.0013 C.2       20 UNK         0.5000 
    113 O         -8.1915  -18.3615  -55.9256 O.2       20 UNK        -0.5000 
    114 N         -6.4220  -19.5638  -55.1754 N.am      21 UNK        -0.5000 
    115 CA        -5.7376  -19.8628  -56.4254 C.3       21 UNK         0.1400 
    116 CB        -6.2416  -21.2061  -56.9769 C.3       21 UNK        -0.1800 
    117 C         -4.2328  -19.9141  -56.1170 C.2       21 UNK         0.5000 
    118 O         -3.8550  -20.0805  -54.9533 O.2       21 UNK        -0.5000 
    119 N         -3.3944  -19.7712  -57.1448 N.am      22 UNK        -0.5000 
    120 CA        -1.9305  -19.7747  -57.0250 C.3       22 UNK         0.1400 
    121 C         -1.2498  -20.1811  -58.3605 C.2       22 UNK         0.5000 
    122 N          0.0629  -20.3647  -58.3623 N.am      22 UNK        -0.7600 
    123 O         -1.8949  -20.3270  -59.3976 O.2       22 UNK        -0.5000 
    124 C124       -1.3913  -18.4297  -56.4526 C.3       23 UNK        -0.0398 
    125 S125       -0.0419  -18.6556  -55.2436 S.3       23 UNK        -0.2404 
    126 C126       -0.9793  -18.6136  -53.6848 C.3       23 UNK        -0.0205 
    127 H127       -1.7138  -12.6865  -45.5740 H         1 UNK         0.0600 
    128 H128       -1.7342  -10.9211  -45.4839 H         1 UNK         0.0600 
    129 H129       -0.7728  -11.8516  -44.3362 H         1 UNK         0.0600 
    130 H130       -0.7709  -13.0078  -47.6240 H         1 UNK         0.3000 
    131 H131        1.2336  -11.3790  -48.7423 H         1 UNK         0.0600 
    132 H132       -0.3283  -12.5802  -50.1460 H         1 UNK         0.0800 
    133 H133        1.2892  -13.0073  -50.5834 H         1 UNK         0.0800 
    134 H134        2.3217  -15.7471  -49.6887 H         1 UNK         0.0800 
    135 H135        1.8296  -15.1206  -51.2442 H         1 UNK         0.0800 
    136 H136       -0.1221  -16.3401  -52.4703 H         1 UNK         0.1150 
    137 H137        0.2019  -20.6030  -52.2378 H         1 UNK         0.1150 
    138 H138        2.2899  -18.1173  -49.4202 H         1 UNK         0.1150 
    139 H139        1.0769  -21.5323  -50.0393 H         1 UNK         0.0800 
    140 H140        2.5602  -21.2265  -50.8910 H         1 UNK         0.0800 
    141 H141        0.7124  -19.6715  -47.8040 H         1 UNK         0.0800 
    142 H142        1.9478  -19.7133  -46.5885 H         1 UNK         0.0800 
    143 H143        1.6650  -22.3742  -46.7353 H         1 UNK         0.0600 
    144 H144        0.5399  -20.4997  -44.9668 H         1 UNK         0.3000 
    145 H145       -1.1179  -22.8393  -42.8018 H         1 UNK         0.0600 
    146 H146        0.2724  -21.6070  -41.1676 H         1 UNK         0.0600 
    147 H147        1.2681  -22.7198  -42.0933 H         1 UNK         0.0600 
    148 H148        1.3081  -21.0001  -42.4572 H         1 UNK         0.0600 
    149 H149       -0.9896  -20.0049  -42.7226 H         1 UNK         0.3000 
    150 H150       -3.8643  -19.3784  -44.8028 H         1 UNK         0.0600 
    151 H151       -4.6792  -19.8482  -42.4867 H         1 UNK         0.0600 
    152 H152       -4.4959  -18.1234  -42.7682 H         1 UNK         0.0600 
    153 H153       -3.2946  -18.9934  -41.8169 H         1 UNK         0.0600 
    154 H154       -2.1157  -17.5727  -43.4972 H         1 UNK         0.3000 
    155 H155        0.3144  -17.2737  -46.1329 H         1 UNK         0.0600 
    156 H156       -1.7911  -15.3874  -44.9517 H         1 UNK         0.0600 
    157 H157       -0.2883  -14.8962  -45.7272 H         1 UNK         0.0600 
    158 H158       -1.5339  -15.7105  -46.6631 H         1 UNK         0.0600 
    159 H159        0.2065  -16.0789  -43.5581 H         1 UNK         0.3000 
    160 H160        2.0188  -18.6383  -41.8059 H         1 UNK         0.0600 
    161 H161        2.7235  -15.7772  -42.6518 H         1 UNK         0.0600 
    162 H162        3.7085  -17.2038  -42.9355 H         1 UNK         0.0600 
    163 H163        3.4176  -16.6587  -41.2921 H         1 UNK         0.0600 
    164 H164        0.8467  -16.1182  -41.0438 H         1 UNK         0.3000 
    165 H165       -2.2867  -17.4443  -39.9753 H         1 UNK         0.0600 
    166 H166       -1.5616  -16.4031  -37.8450 H         1 UNK         0.0600 
    167 H167       -0.7094  -17.9183  -38.0951 H         1 UNK         0.0600 
    168 H168        0.1174  -16.3924  -38.3855 H         1 UNK         0.0600 
    169 H169       -1.1363  -14.8296  -39.8506 H         1 UNK         0.3000 
    170 H170       -2.1732  -13.7019  -43.0628 H         1 UNK         0.0600 
    171 H171       -4.2098  -13.5115  -41.6304 H         1 UNK         0.0600 
    172 H172       -3.2166  -13.0342  -40.2584 H         1 UNK         0.0600 
    173 H173       -3.3206  -11.9980  -41.6823 H         1 UNK         0.0600 
    174 H174       -0.9080  -12.3617  -40.8959 H         1 UNK         0.3000 
    175 H175        1.1830  -11.5758  -41.2539 H         1 UNK         0.0600 
    176 H176        2.7079  -14.2162  -40.8143 H         1 UNK         0.0600 
    177 H177        3.0968  -12.6662  -40.0788 H         1 UNK         0.0600 
    178 H178        1.6059  -13.4879  -39.6512 H         1 UNK         0.0600 
    179 H179        2.2664  -12.9100  -43.5394 H         1 UNK         0.3000 
    180 H180        3.6152  -10.2568  -44.6450 H         1 UNK         0.0600 
    181 H181        6.0611  -11.7424  -43.5672 H         1 UNK         0.0600 
    182 H182        5.7675  -10.0135  -43.5371 H         1 UNK         0.0600 
    183 H183        6.0292  -10.8223  -45.0729 H         1 UNK         0.0600 
    184 H184        3.0117  -11.9579  -45.8617 H         1 UNK         0.3000 
    185 H185        4.4160  -14.5036  -47.1113 H         1 UNK         0.0600 
    186 H186        4.1320  -16.2894  -45.4194 H         1 UNK         0.0600 
    187 H187        2.5082  -15.7160  -45.0604 H         1 UNK         0.0600 
    188 H188        2.8706  -16.4219  -46.6345 H         1 UNK         0.0600 
    189 H189        1.5464  -14.0541  -46.5915 H         1 UNK         0.3000 
    190 H190       -1.5015  -20.6771  -46.9163 H         1 UNK         0.3000 
    191 H191       -2.4756  -21.8315  -49.2600 H         1 UNK         0.0600 
    192 H192       -4.0314  -20.8968  -46.7923 H         1 UNK         0.0600 
    193 H193       -4.7126  -21.1448  -48.3906 H         1 UNK         0.0600 
    194 H194       -3.5157  -19.8833  -48.1345 H         1 UNK         0.0600 
    195 H195       -2.7887  -23.0364  -45.8995 H         1 UNK         0.3000 
    196 H196       -4.3134  -25.3634  -46.4923 H         1 UNK         0.0600 
    197 H197       -3.5880  -26.0816  -44.2096 H         1 UNK         0.0600 
    198 H198       -4.1464  -24.4151  -44.2166 H         1 UNK         0.0600 
    199 H199       -2.4216  -24.7648  -44.1564 H         1 UNK         0.0600 
    200 H200       -0.7513  -24.9301  -46.0714 H         1 UNK         0.3000 
    201 H201       -0.0115  -27.6179  -46.5245 H         1 UNK         0.0600 
    202 H202        1.4782  -25.9573  -45.4555 H         1 UNK         0.0600 
    203 H203        1.5754  -25.0308  -46.9518 H         1 UNK         0.0600 
    204 H204        2.2726  -26.6448  -46.8639 H         1 UNK         0.0600 
    205 H205       -0.4859  -24.9416  -48.8114 H         1 UNK         0.3000 
    206 H206        0.3118  -26.4619  -51.1619 H         1 UNK         0.0600 
    207 H207        0.7203  -24.0371  -50.9936 H         1 UNK         0.0600 
    208 H208       -0.3734  -24.3562  -52.3287 H         1 UNK         0.0600 
    209 H209       -1.0008  -23.7316  -50.8018 H         1 UNK         0.0600 
    210 H210       -2.2744  -27.0070  -49.3055 H         1 UNK         0.3000 
    211 H211       -4.1424  -28.1372  -49.4963 H         1 UNK         0.0600 
    212 H212       -3.3578  -28.7300  -52.3962 H         1 UNK         0.0600 
    213 H213       -4.5388  -29.6033  -51.4334 H         1 UNK         0.0600 
    214 H214       -2.8423  -29.6460  -50.9808 H         1 UNK         0.0600 
    215 H215       -4.6983  -25.7033  -49.3237 H         1 UNK         0.3000 
    216 H216       -6.3610  -24.2733  -49.3516 H         1 UNK         0.0600 
    217 H217       -8.5458  -24.7494  -50.3552 H         1 UNK         0.0600 
    218 H218       -7.9448  -26.1939  -49.5575 H         1 UNK         0.0600 
    219 H219       -7.8843  -26.0620  -51.3151 H         1 UNK         0.0600 
    220 H220       -4.2211  -23.5784  -50.6047 H         1 UNK         0.3000 
    221 H221       -4.8637  -22.3128  -53.2029 H         1 UNK         0.0600 
    222 H222       -2.3167  -22.0094  -51.5436 H         1 UNK         0.0600 
    223 H223       -2.5822  -23.3365  -52.6804 H         1 UNK         0.0600 
    224 H224       -2.5370  -21.6889  -53.2561 H         1 UNK         0.0600 
    225 H225       -3.5640  -19.9324  -52.9039 H         1 UNK         0.3000 
    226 H226       -3.6148  -17.8121  -52.3240 H         1 UNK         0.0600 
    227 H227       -3.4716  -18.3034  -49.9151 H         1 UNK         0.0600 
    228 H228       -4.5064  -16.9185  -50.2146 H         1 UNK         0.0600 
    229 H229       -5.2270  -18.4659  -49.8089 H         1 UNK         0.0600 
    230 H230       -6.7102  -19.5077  -52.0900 H         1 UNK         0.3000 
    231 H231       -8.2604  -17.4703  -53.4971 H         1 UNK         0.0600 
    232 H232       -9.9086  -19.3376  -53.7194 H         1 UNK         0.0600 
    233 H233       -9.3551  -19.1844  -52.0591 H         1 UNK         0.0600 
    234 H234       -8.7272  -20.4765  -53.0823 H         1 UNK         0.0600 
    235 H235       -5.8910  -19.8325  -54.3584 H         1 UNK         0.3000 
    236 H236       -5.9198  -19.0671  -57.1508 H         1 UNK         0.0600 
    237 H237       -7.3131  -21.1727  -57.1751 H         1 UNK         0.0600 
    238 H238       -5.7451  -21.4566  -57.9151 H         1 UNK         0.0600 
    239 H239       -6.0563  -22.0221  -56.2770 H         1 UNK         0.0600 
    240 H240       -3.7432  -19.6943  -58.0914 H         1 UNK         0.3000 
    241 H241       -1.6884  -20.5822  -56.3306 H         1 UNK         0.0600 
    242 H242        0.6097  -20.2348  -57.5243 H         1 UNK         0.3800 
    243 H243        0.5229  -20.6272  -59.2204 H         1 UNK         0.3800 
    244 H244       -1.0368  -17.7738  -57.2499 H         1 UNK         0.0800 
    245 H245       -2.1882  -17.8641  -55.9686 H         1 UNK         0.0800 
    246 H246       -1.5799  -19.5188  -53.6061 H         1 UNK         0.0800 
    247 H247       -1.6767  -17.7754  -53.7010 H         1 UNK         0.0800 
@<TRIPOS>BOND
     1    1    2 1    
     2    1  127 1    
     3    1  128 1    
     4    1  129 1    
     5    2    3 2    
     6    2    4 am   BACKBONE|DICT|INTERRES
     7    4    5 1    
     8    4  130 1    
     9    5    6 1    
    10    5   65 1    
    11    5  131 1    
    12    6    7 1    
    13    6  132 1    
    14    6  133 1    
    15    7    8 1    
    16    8    9 1    
    17    8  134 1    
    18    8  135 1    
    19    9   10 ar   
    20    9   14 ar   
    21   10   11 ar   
    22   10  136 1    
    23   11   12 ar   
    24   11  126 1    
    25   12   13 ar   
    26   12  137 1    
    27   13   14 ar   
    28   13   15 1    
    29   14  138 1    
    30   15   16 1    
    31   15  139 1    
    32   15  140 1    
    33   16   17 1    
    34   17   18 1    
    35   17  141 1    
    36   17  142 1    
    37   18   19 1    
    38   18   67 1    
    39   18  143 1    
    40   19   20 am   BACKBONE|DICT|INTERRES
    41   19  144 1    
    42   20   21 2    
    43   20   22 1    
    44   22   23 1    
    45   22   24 1    
    46   22  145 1    
    47   23  146 1    
    48   23  147 1    
    49   23  148 1    
    50   24   25 am   BACKBONE|DICT|INTERRES
    51   24  149 1    
    52   25   26 2    
    53   25   27 1    
    54   27   28 1    
    55   27   29 1    
    56   27  150 1    
    57   28  151 1    
    58   28  152 1    
    59   28  153 1    
    60   29   30 am   BACKBONE|DICT|INTERRES
    61   29  154 1    
    62   30   31 2    
    63   30   32 1    
    64   32   33 1    
    65   32   34 1    
    66   32  155 1    
    67   33  156 1    
    68   33  157 1    
    69   33  158 1    
    70   34   35 am   BACKBONE|DICT|INTERRES
    71   34  159 1    
    72   35   36 2    
    73   35   37 1    
    74   37   38 1    
    75   37   39 1    
    76   37  160 1    
    77   38  161 1    
    78   38  162 1    
    79   38  163 1    
    80   39   40 am   BACKBONE|DICT|INTERRES
    81   39  164 1    
    82   40   41 2    
    83   40   42 1    
    84   42   43 1    
    85   42   44 1    
    86   42  165 1    
    87   43  166 1    
    88   43  167 1    
    89   43  168 1    
    90   44   45 am   BACKBONE|DICT|INTERRES
    91   44  169 1    
    92   45   46 2    
    93   45   47 1    
    94   47   48 1    
    95   47   49 1    
    96   47  170 1    
    97   48  171 1    
    98   48  172 1    
    99   48  173 1    
   100   49   50 am   BACKBONE|DICT|INTERRES
   101   49  174 1    
   102   50   51 2    
   103   50   52 1    
   104   52   53 1    
   105   52   54 1    
   106   52  175 1    
   107   53  176 1    
   108   53  177 1    
   109   53  178 1    
   110   54   55 am   BACKBONE|DICT|INTERRES
   111   54  179 1    
   112   55   56 2    
   113   55   57 1    
   114   57   58 1    
   115   57   59 1    
   116   57  180 1    
   117   58  181 1    
   118   58  182 1    
   119   58  183 1    
   120   59   60 am   BACKBONE|DICT|INTERRES
   121   59  184 1    
   122   60   61 2    
   123   60   62 1    
   124   62   63 1    
   125   62   64 1    
   126   62  185 1    
   127   63  186 1    
   128   63  187 1    
   129   63  188 1    
   130   64   65 am   BACKBONE|DICT|INTERRES
   131   64  189 1    
   132   65   66 2    
   133   67   68 2    
   134   67   69 am   BACKBONE|DICT|INTERRES
   135   69   70 1    
   136   69  190 1    
   137   70   71 1    
   138   70   72 1    
   139   70  191 1    
   140   71  192 1    
   141   71  193 1    
   142   71  194 1    
   143   72   73 2    
   144   72   74 am   BACKBONE|DICT|INTERRES
   145   74   75 1    
   146   74  195 1    
   147   75   76 1    
   148   75   77 1    
   149   75  196 1    
   150   76  197 1    
   151   76  198 1    
   152   76  199 1    
   153   77   78 2    
   154   77   79 am   BACKBONE|DICT|INTERRES
   155   79   80 1    
   156   79  200 1    
   157   80   81 1    
   158   80   82 1    
   159   80  201 1    
   160   81  202 1    
   161   81  203 1    
   162   81  204 1    
   163   82   83 2    
   164   82   84 am   BACKBONE|DICT|INTERRES
   165   84   85 1    
   166   84  205 1    
   167   85   86 1    
   168   85   87 1    
   169   85  206 1    
   170   86  207 1    
   171   86  208 1    
   172   86  209 1    
   173   87   88 2    
   174   87   89 am   BACKBONE|DICT|INTERRES
   175   89   90 1    
   176   89  210 1    
   177   90   91 1    
   178   90   92 1    
   179   90  211 1    
   180   91  212 1    
   181   91  213 1    
   182   91  214 1    
   183   92   93 2    
   184   92   94 am   BACKBONE|DICT|INTERRES
   185   94   95 1    
   186   94  215 1    
   187   95   96 1    
   188   95   97 1    
   189   95  216 1    
   190   96  217 1    
   191   96  218 1    
   192   96  219 1    
   193   97   98 2    
   194   97   99 am   BACKBONE|DICT|INTERRES
   195   99  100 1    
   196   99  220 1    
   197  100  101 1    
   198  100  102 1    
   199  100  221 1    
   200  101  222 1    
   201  101  223 1    
   202  101  224 1    
   203  102  103 2    
   204  102  104 am   BACKBONE|DICT|INTERRES
   205  104  105 1    
   206  104  225 1    
   207  105  106 1    
   208  105  107 1    
   209  105  226 1    
   210  106  227 1    
   211  106  228 1    
   212  106  229 1    
   213  107  108 2    
   214  107  109 am   BACKBONE|DICT|INTERRES
   215  109  110 1    
   216  109  230 1    
   217  110  111 1    
   218  110  112 1    
   219  110  231 1    
   220  111  232 1    
   221  111  233 1    
   222  111  234 1    
   223  112  113 2    
   224  112  114 am   BACKBONE|DICT|INTERRES
   225  114  115 1    
   226  114  235 1    
   227  115  116 1    
   228  115  117 1    
   229  115  236 1    
   230  116  237 1    
   231  116  238 1    
   232  116  239 1    
   233  117  118 2    
   234  117  119 am   BACKBONE|DICT|INTERRES
   235  119  120 1    
   236  119  240 1    
   237  120  121 1    
   238  120  124 1    
   239  120  241 1    
   240  121  122 am   BACKBONE|DICT|INTERRES
   241  121  123 2    
   242  122  242 1    
   243  122  243 1    
   244  124  125 1    
   245  124  244 1    
   246  124  245 1    
   247  125  126 1    
   248  126  246 1    
   249  126  247 1    
@<TRIPOS>SUBSTRUCTURE
     1 UNK         1 GROUP             0       ****    0 ROOT    
