@<TRIPOS>MOLECULE
3R540
247   249    1
SMALL
USER_CHARGES


@<TRIPOS>ATOM
      1 CA         -4.2624  -17.4909  -48.9287 C.3       0 UNK        -0.1800 
      2 C          -4.2172  -15.9786  -49.0629 C.2       0 UNK         0.5000 
      3 O          -5.2503  -15.3167  -48.9761 O.2       0 UNK        -0.5000 
      4 N          -3.0165  -15.4358  -49.2919 N.am      1 UNK        -0.5000 
      5 CA         -2.7585  -13.9999  -49.4456 C.3       1 UNK         0.1400 
      6 C6         -1.4836  -13.7322  -50.2853 C.3       23 UNK        -0.0398 
      7 S7         -0.0146  -14.6861  -49.7446 S.3       23 UNK        -0.2404 
      8 C8          0.2630  -15.8088  -51.1559 C.3       23 UNK        -0.0205 
      9 C9          0.2081  -17.2712  -50.7406 C.ar      23 UNK        -0.0193 
     10 C10        -0.9684  -18.0117  -50.8927 C.ar      23 UNK        -0.1150 
     11 C11        -0.9957  -19.3693  -50.5568 C.ar      23 UNK        -0.0193 
     12 C12         0.1606  -19.9788  -50.0683 C.ar      23 UNK        -0.1150 
     13 C13         1.3358  -19.2456  -49.8724 C.ar      23 UNK        -0.0193 
     14 C14         1.3494  -17.8923  -50.2237 C.ar      23 UNK        -0.1150 
     15 C15         2.6095  -19.8656  -49.2928 C.3       23 UNK        -0.0205 
     16 S16         2.4298  -21.5154  -48.5221 S.3       23 UNK        -0.2404 
     17 C17         1.3628  -21.1533  -47.0881 C.3       23 UNK        -0.0398 
     18 CA          0.5196  -22.3748  -46.6358 C.3       11 UNK         0.1400 
     19 N           0.2857  -22.3519  -45.1902 N.am      11 UNK        -0.5000 
     20 C          -0.2873  -23.3332  -44.4801 C.2       10 UNK         0.5000 
     21 O          -0.6327  -24.4146  -44.9556 O.2       10 UNK        -0.5000 
     22 CA         -0.5772  -23.0218  -43.0016 C.3       10 UNK         0.1400 
     23 CB          0.6655  -23.2582  -42.1304 C.3       10 UNK        -0.1800 
     24 N          -1.0530  -21.6482  -42.8256 N.am      10 UNK        -0.5000 
     25 C          -2.2569  -21.2163  -43.2278 C.2       9 UNK         0.5000 
     26 O          -3.1082  -21.9488  -43.7330 O.2       9 UNK        -0.5000 
     27 CA         -2.5370  -19.7079  -43.0841 C.3       9 UNK         0.1400 
     28 CB         -2.9750  -19.3748  -41.6506 C.3       9 UNK        -0.1800 
     29 N          -1.3867  -18.8786  -43.4564 N.am      9 UNK        -0.5000 
     30 C          -0.8826  -18.8147  -44.6977 C.2       8 UNK         0.5000 
     31 O          -1.3796  -19.3952  -45.6583 O.2       8 UNK        -0.5000 
     32 CA          0.4173  -18.0221  -44.9146 C.3       8 UNK         0.1400 
     33 CB          0.1207  -16.5743  -45.3253 C.3       8 UNK        -0.1800 
     34 N           1.3158  -18.0378  -43.7626 N.am      8 UNK        -0.5000 
     35 C           1.9002  -19.1323  -43.2567 C.2       7 UNK         0.5000 
     36 O           1.6905  -20.2710  -43.6754 O.2       7 UNK        -0.5000 
     37 CA          2.8626  -18.9170  -42.0793 C.3       7 UNK         0.1400 
     38 CB          4.2340  -18.4463  -42.5878 C.3       7 UNK        -0.1800 
     39 N           2.3291  -17.9259  -41.1468 N.am      7 UNK        -0.5000 
     40 C           1.6214  -18.2180  -40.0486 C.2       6 UNK         0.5000 
     41 O           1.3996  -19.3660  -39.6619 O.2       6 UNK        -0.5000 
     42 CA          1.0499  -17.0285  -39.2494 C.3       6 UNK         0.1400 
     43 CB          2.0488  -16.5749  -38.1740 C.3       6 UNK        -0.1800 
     44 N           0.6803  -15.8755  -40.0757 N.am      6 UNK        -0.5000 
     45 C          -0.2713  -15.8889  -41.0186 C.2       5 UNK         0.5000 
     46 O          -0.9295  -16.8861  -41.3127 O.2       5 UNK        -0.5000 
     47 CA         -0.5023  -14.5822  -41.8008 C.3       5 UNK         0.1400 
     48 CB         -1.4154  -13.6356  -41.0080 C.3       5 UNK        -0.1800 
     49 N           0.6969  -13.8473  -42.2274 N.am      5 UNK        -0.5000 
     50 C           1.8299  -14.3470  -42.7429 C.2       4 UNK         0.5000 
     51 O           2.1033  -15.5459  -42.7920 O.2       4 UNK        -0.5000 
     52 CA          2.7515  -13.3305  -43.4240 C.3       4 UNK         0.1400 
     53 CB          4.1475  -13.8955  -43.7452 C.3       4 UNK        -0.1800 
     54 N           2.0759  -12.9588  -44.6589 N.am      4 UNK        -0.5000 
     55 C           1.9867  -11.7298  -45.1736 C.2       3 UNK         0.5000 
     56 O           2.5831  -10.7492  -44.7273 O.2       3 UNK        -0.5000 
     57 CA          1.0375  -11.5717  -46.3780 C.3       3 UNK         0.1400 
     58 CB          1.8007  -11.7632  -47.6976 C.3       3 UNK        -0.1800 
     59 N          -0.1017  -12.4969  -46.3512 N.am      3 UNK        -0.5000 
     60 C          -1.0912  -12.4827  -45.4437 C.2       2 UNK         0.5000 
     61 O          -1.1174  -11.7113  -44.4838 O.2       2 UNK        -0.5000 
     62 CA         -2.2288  -13.5141  -45.6295 C.3       2 UNK         0.1400 
     63 CB         -3.5756  -13.0229  -45.0602 C.3       2 UNK        -0.1800 
     64 N          -2.3861  -13.9893  -47.0113 N.am      2 UNK        -0.5000 
     65 C          -2.7037  -13.2583  -48.0929 C.2       1 UNK         0.5000 
     66 O          -2.9310  -12.0484  -48.0636 O.2       1 UNK        -0.5000 
     67 C          -0.8035  -22.5156  -47.4264 C.2       11 UNK         0.5000 
     68 O          -0.8725  -23.3126  -48.3595 O.2       11 UNK        -0.5000 
     69 N          -1.8470  -21.7870  -47.0027 N.am      12 UNK        -0.5000 
     70 CA         -3.2031  -21.8608  -47.5434 C.3       12 UNK         0.1400 
     71 CB         -4.0544  -20.7045  -47.0021 C.3       12 UNK        -0.1800 
     72 C          -3.8884  -23.2073  -47.2918 C.2       12 UNK         0.5000 
     73 O          -4.5158  -23.7295  -48.2136 O.2       12 UNK        -0.5000 
     74 N          -3.7313  -23.7593  -46.0810 N.am      13 UNK        -0.5000 
     75 CA         -4.2439  -25.0787  -45.7013 C.3       13 UNK         0.1400 
     76 CB         -4.0520  -25.2876  -44.1917 C.3       13 UNK        -0.1800 
     77 C          -3.5955  -26.2257  -46.5016 C.2       13 UNK         0.5000 
     78 O          -4.2771  -27.1917  -46.8455 O.2       13 UNK        -0.5000 
     79 N          -2.3019  -26.0781  -46.8143 N.am      14 UNK        -0.5000 
     80 CA         -1.5315  -26.9852  -47.6661 C.3       14 UNK         0.1400 
     81 CB         -0.0402  -26.8007  -47.3406 C.3       14 UNK        -0.1800 
     82 C          -1.7768  -26.7735  -49.1759 C.2       14 UNK         0.5000 
     83 O          -1.2856  -27.5709  -49.9766 O.2       14 UNK        -0.5000 
     84 N          -2.4779  -25.6909  -49.5449 N.am      15 UNK        -0.5000 
     85 CA         -2.7049  -25.1325  -50.8855 C.3       15 UNK         0.1400 
     86 CB         -3.4135  -26.1264  -51.8236 C.3       15 UNK        -0.1800 
     87 C          -1.4291  -24.5465  -51.5228 C.2       15 UNK         0.5000 
     88 O          -1.4452  -23.3914  -51.9512 O.2       15 UNK        -0.5000 
     89 N          -0.3520  -25.3442  -51.5262 N.am      16 UNK        -0.5000 
     90 CA          1.0425  -25.0028  -51.8051 C.3       16 UNK         0.1400 
     91 CB          1.6527  -24.3393  -50.5544 C.3       16 UNK        -0.1800 
     92 C           1.2432  -24.1813  -53.0948 C.2       16 UNK         0.5000 
     93 O           1.2303  -24.7555  -54.1847 O.2       16 UNK        -0.5000 
     94 N           1.4466  -22.8658  -52.9428 N.am      17 UNK        -0.5000 
     95 CA          1.7205  -21.9168  -54.0191 C.3       17 UNK         0.1400 
     96 CB          2.1294  -20.5713  -53.3971 C.3       17 UNK        -0.1800 
     97 C           0.5468  -21.7108  -54.9937 C.2       17 UNK         0.5000 
     98 O           0.7954  -21.3961  -56.1583 O.2       17 UNK        -0.5000 
     99 N          -0.6959  -21.8596  -54.5022 N.am      18 UNK        -0.5000 
    100 CA        -1.9570  -21.6143  -55.2200 C.3       18 UNK         0.1400 
    101 CB        -2.1783  -22.6888  -56.3040 C.3       18 UNK        -0.1800 
    102 C         -2.0772  -20.1696  -55.7688 C.2       18 UNK         0.5000 
    103 O         -2.6745  -19.9504  -56.8242 O.2       18 UNK        -0.5000 
    104 N         -1.4661  -19.2148  -55.0549 N.am      19 UNK        -0.5000 
    105 CA        -1.2399  -17.8415  -55.5026 C.3       19 UNK         0.1400 
    106 CB         0.0448  -17.3296  -54.8312 C.3       19 UNK        -0.1800 
    107 C         -2.4089  -16.8787  -55.2235 C.2       19 UNK         0.5000 
    108 O         -2.4366  -15.7951  -55.8092 O.2       19 UNK        -0.5000 
    109 N         -3.3326  -17.2566  -54.3330 N.am      20 UNK        -0.5000 
    110 CA        -4.4547  -16.4276  -53.8950 C.3       20 UNK         0.1400 
    111 CB        -3.9785  -15.4492  -52.8012 C.3       20 UNK        -0.1800 
    112 C         -5.6296  -17.3285  -53.4754 C.2       20 UNK         0.5000 
    113 O         -5.8674  -18.3480  -54.1271 O.2       20 UNK        -0.5000 
    114 N         -6.3402  -16.9660  -52.3969 N.am      21 UNK        -0.5000 
    115 CA        -7.4822  -17.6883  -51.8181 C.3       21 UNK         0.1400 
    116 CB        -8.2917  -16.7082  -50.9503 C.3       21 UNK        -0.1800 
    117 C         -7.0598  -18.9581  -51.0418 C.2       21 UNK         0.5000 
    118 O         -7.4492  -19.1551  -49.8895 O.2       21 UNK        -0.5000 
    119 N         -6.2283  -19.7736  -51.6888 N.am      22 UNK        -0.5000 
    120 CA        -5.6261  -21.0078  -51.1822 C.3       22 UNK         0.1400 
    121 C         -6.6355  -22.1897  -51.1372 C.2       22 UNK         0.5000 
    122 N         -6.4328  -23.1727  -50.2698 N.am      22 UNK        -0.7600 
    123 O         -7.5869  -22.2513  -51.9134 O.2       22 UNK        -0.5000 
    124 C124       -4.3831  -21.3772  -52.0301 C.3       23 UNK        -0.0398 
    125 S125       -3.1734  -20.0137  -52.2022 S.3       23 UNK        -0.2404 
    126 C126       -2.2705  -20.1925  -50.6431 C.3       23 UNK        -0.0205 
    127 H127       -3.3031  -17.8781  -48.5860 H         1 UNK         0.0600 
    128 H128       -4.4935  -17.9441  -49.8920 H         1 UNK         0.0600 
    129 H129       -5.0281  -17.7914  -48.2134 H         1 UNK         0.0600 
    130 H130       -2.1997  -16.0270  -49.3622 H         1 UNK         0.3000 
    131 H131       -3.5970  -13.5649  -49.9944 H         1 UNK         0.0600 
    132 H132       -1.2261  -12.6713  -50.2717 H         1 UNK         0.0800 
    133 H133       -1.7007  -13.9471  -51.3308 H         1 UNK         0.0800 
    134 H134       -0.4548  -15.6300  -51.9567 H         1 UNK         0.0800 
    135 H135        1.2413  -15.5893  -51.5860 H         1 UNK         0.0800 
    136 H136       -1.8590  -17.5366  -51.2775 H         1 UNK         0.1150 
    137 H137        0.1254  -21.0288  -49.8213 H         1 UNK         0.1150 
    138 H138        2.2549  -17.3158  -50.0951 H         1 UNK         0.1150 
    139 H139        3.3436  -19.9453  -50.0955 H         1 UNK         0.0800 
    140 H140        3.0351  -19.1874  -48.5516 H         1 UNK         0.0800 
    141 H141        0.7281  -20.2902  -47.2923 H         1 UNK         0.0800 
    142 H142        2.0356  -20.8422  -46.2882 H         1 UNK         0.0800 
    143 H143        1.1006  -23.2799  -46.8263 H         1 UNK         0.0600 
    144 H144        0.5879  -21.5193  -44.6934 H         1 UNK         0.3000 
    145 H145       -1.3611  -23.7029  -42.6634 H         1 UNK         0.0600 
    146 H146        0.4487  -23.0771  -41.0776 H         1 UNK         0.0600 
    147 H147        1.0104  -24.2892  -42.2188 H         1 UNK         0.0600 
    148 H148        1.4944  -22.6110  -42.4174 H         1 UNK         0.0600 
    149 H149       -0.3891  -20.9775  -42.4659 H         1 UNK         0.3000 
    150 H150       -3.3616  -19.4605  -43.7559 H         1 UNK         0.0600 
    151 H151       -3.8201  -19.9930  -41.3447 H         1 UNK         0.0600 
    152 H152       -3.2887  -18.3341  -41.5681 H         1 UNK         0.0600 
    153 H153       -2.1688  -19.5387  -40.9343 H         1 UNK         0.0600 
    154 H154       -0.9635  -18.3262  -42.7171 H         1 UNK         0.3000 
    155 H155        0.9491  -18.4933  -45.7423 H         1 UNK         0.0600 
    156 H156       -0.3713  -16.0327  -44.5211 H         1 UNK         0.0600 
    157 H157       -0.5302  -16.5405  -46.1999 H         1 UNK         0.0600 
    158 H158        1.0371  -16.0423  -45.5811 H         1 UNK         0.0600 
    159 H159        1.5632  -17.1326  -43.3683 H         1 UNK         0.3000 
    160 H160        2.9999  -19.8762  -41.5756 H         1 UNK         0.0600 
    161 H161        4.1689  -17.4858  -43.1010 H         1 UNK         0.0600 
    162 H162        4.6585  -19.1662  -43.2888 H         1 UNK         0.0600 
    163 H163        4.9408  -18.3375  -41.7651 H         1 UNK         0.0600 
    164 H164        2.4037  -16.9553  -41.4329 H         1 UNK         0.3000 
    165 H165        0.1454  -17.3786  -38.7477 H         1 UNK         0.0600 
    166 H166        1.6213  -15.7975  -37.5406 H         1 UNK         0.0600 
    167 H167        2.3271  -17.4054  -37.5238 H         1 UNK         0.0600 
    168 H168        2.9654  -16.1829  -38.6166 H         1 UNK         0.0600 
    169 H169        1.1906  -15.0188  -39.9195 H         1 UNK         0.3000 
    170 H170       -1.0392  -14.8536  -42.7095 H         1 UNK         0.0600 
    171 H171       -2.3269  -14.1434  -40.6897 H         1 UNK         0.0600 
    172 H172       -0.9206  -13.2555  -40.1135 H         1 UNK         0.0600 
    173 H173       -1.7179  -12.7809  -41.6139 H         1 UNK         0.0600 
    174 H174        0.5823  -12.8443  -42.2697 H         1 UNK         0.3000 
    175 H175        2.8574  -12.4686  -42.7618 H         1 UNK         0.0600 
    176 H176        4.0937  -14.7486  -44.4229 H         1 UNK         0.0600 
    177 H177        4.7780  -13.1388  -44.2122 H         1 UNK         0.0600 
    178 H178        4.6522  -14.2269  -42.8370 H         1 UNK         0.0600 
    179 H179        1.5314  -13.6906  -45.0914 H         1 UNK         0.3000 
    180 H180        0.6429  -10.5538  -46.3546 H         1 UNK         0.0600 
    181 H181        2.1963  -12.7754  -47.7912 H         1 UNK         0.0600 
    182 H182        2.6427  -11.0732  -47.7662 H         1 UNK         0.0600 
    183 H183        1.1565  -11.5752  -48.5569 H         1 UNK         0.0600 
    184 H184       -0.1611  -13.1586  -47.1114 H         1 UNK         0.3000 
    185 H185       -1.9375  -14.3855  -45.0447 H         1 UNK         0.0600 
    186 H186       -3.5007  -12.8262  -43.9900 H         1 UNK         0.0600 
    187 H187       -3.9062  -12.1008  -45.5388 H         1 UNK         0.0600 
    188 H188       -4.3571  -13.7705  -45.1963 H         1 UNK         0.0600 
    189 H189       -2.2292  -14.9759  -47.1565 H         1 UNK         0.3000 
    190 H190       -1.6921  -21.0853  -46.2824 H         1 UNK         0.3000 
    191 H191       -3.1351  -21.7590  -48.6225 H         1 UNK         0.0600 
    192 H192       -3.5869  -19.7437  -47.2086 H         1 UNK         0.0600 
    193 H193       -5.0424  -20.6939  -47.4641 H         1 UNK         0.0600 
    194 H194       -4.1955  -20.7768  -45.9238 H         1 UNK         0.0600 
    195 H195       -3.2426  -23.2342  -45.3635 H         1 UNK         0.3000 
    196 H196       -5.3151  -25.0924  -45.9129 H         1 UNK         0.0600 
    197 H197       -4.4671  -26.2450  -43.8747 H         1 UNK         0.0600 
    198 H198       -4.5550  -24.5085  -43.6186 H         1 UNK         0.0600 
    199 H199       -2.9980  -25.2790  -43.9139 H         1 UNK         0.0600 
    200 H200       -1.8005  -25.2820  -46.4335 H         1 UNK         0.3000 
    201 H201       -1.8092  -28.0142  -47.4295 H         1 UNK         0.0600 
    202 H202        0.5788  -27.4854  -47.9217 H         1 UNK         0.0600 
    203 H203        0.1606  -26.9960  -46.2870 H         1 UNK         0.0600 
    204 H204        0.2946  -25.7863  -47.5614 H         1 UNK         0.0600 
    205 H205       -2.8028  -25.0948  -48.7949 H         1 UNK         0.3000 
    206 H206       -3.3880  -24.2986  -50.7278 H         1 UNK         0.0600 
    207 H207       -4.3386  -26.4936  -51.3793 H         1 UNK         0.0600 
    208 H208       -3.6742  -25.6455  -52.7672 H         1 UNK         0.0600 
    209 H209       -2.7892  -26.9877  -52.0612 H         1 UNK         0.0600 
    210 H210       -0.5001  -26.2791  -51.1571 H         1 UNK         0.3000 
    211 H211        1.5657  -25.9471  -51.9615 H         1 UNK         0.0600 
    212 H212        1.1025  -23.4432  -50.2685 H         1 UNK         0.0600 
    213 H213        2.6947  -24.0601  -50.7158 H         1 UNK         0.0600 
    214 H214        1.6294  -25.0183  -49.7021 H         1 UNK         0.0600 
    215 H215        1.4069  -22.4865  -52.0084 H         1 UNK         0.3000 
    216 H216        2.5654  -22.3003  -54.5948 H         1 UNK         0.0600 
    217 H217        2.4042  -19.8516  -54.1691 H         1 UNK         0.0600 
    218 H218        2.9903  -20.6832  -52.7378 H         1 UNK         0.0600 
    219 H219        1.3169  -20.1324  -52.8165 H         1 UNK         0.0600 
    220 H220       -0.7952  -22.1684  -53.5396 H         1 UNK         0.3000 
    221 H221       -2.7535  -21.7348  -54.4882 H         1 UNK         0.0600 
    222 H222       -1.4545  -22.6022  -57.1147 H         1 UNK         0.0600 
    223 H223       -2.0944  -23.6918  -55.8852 H         1 UNK         0.0600 
    224 H224       -3.1731  -22.6035  -56.7427 H         1 UNK         0.0600 
    225 H225       -1.0292  -19.4832  -54.1853 H         1 UNK         0.3000 
    226 H226       -1.0759  -17.8447  -56.5823 H         1 UNK         0.0600 
    227 H227        0.9050  -17.9346  -55.1180 H         1 UNK         0.0600 
    228 H228        0.2615  -16.3010  -55.1224 H         1 UNK         0.0600 
    229 H229       -0.0335  -17.3552  -53.7445 H         1 UNK         0.0600 
    230 H230       -3.2862  -18.1875  -53.9387 H         1 UNK         0.3000 
    231 H231       -4.8191  -15.8440  -54.7429 H         1 UNK         0.0600 
    232 H232       -3.5992  -15.9875  -51.9347 H         1 UNK         0.0600 
    233 H233       -4.7770  -14.7849  -52.4696 H         1 UNK         0.0600 
    234 H234       -3.1747  -14.8120  -53.1697 H         1 UNK         0.0600 
    235 H235       -6.0589  -16.1326  -51.9015 H         1 UNK         0.3000 
    236 H236       -8.1282  -18.0183  -52.6342 H         1 UNK         0.0600 
    237 H237       -8.6211  -15.8461  -51.5305 H         1 UNK         0.0600 
    238 H238       -9.1857  -17.1861  -50.5477 H         1 UNK         0.0600 
    239 H239       -7.7055  -16.3414  -50.1066 H         1 UNK         0.0600 
    240 H240       -5.9843  -19.5206  -52.6414 H         1 UNK         0.3000 
    241 H241       -5.2989  -20.8169  -50.1585 H         1 UNK         0.0600 
    242 H242       -7.0880  -23.9380  -50.2624 H         1 UNK         0.3800 
    243 H243       -5.6683  -23.1903  -49.6007 H         1 UNK         0.3800 
    244 H244       -3.8789  -22.2462  -51.6107 H         1 UNK         0.0800 
    245 H245       -4.6929  -21.6687  -53.0350 H         1 UNK         0.0800 
    246 H246       -2.9249  -19.8967  -49.8260 H         1 UNK         0.0800 
    247 H247       -2.0349  -21.2483  -50.5067 H         1 UNK         0.0800 
@<TRIPOS>BOND
     1    1    2 1    
     2    1  127 1    
     3    1  128 1    
     4    1  129 1    
     5    2    3 2    
     6    2    4 am   BACKBONE|DICT|INTERRES
     7    4    5 1    
     8    4  130 1    
     9    5    6 1    
    10    5   65 1    
    11    5  131 1    
    12    6    7 1    
    13    6  132 1    
    14    6  133 1    
    15    7    8 1    
    16    8    9 1    
    17    8  134 1    
    18    8  135 1    
    19    9   10 ar   
    20    9   14 ar   
    21   10   11 ar   
    22   10  136 1    
    23   11   12 ar   
    24   11  126 1    
    25   12   13 ar   
    26   12  137 1    
    27   13   14 ar   
    28   13   15 1    
    29   14  138 1    
    30   15   16 1    
    31   15  139 1    
    32   15  140 1    
    33   16   17 1    
    34   17   18 1    
    35   17  141 1    
    36   17  142 1    
    37   18   19 1    
    38   18   67 1    
    39   18  143 1    
    40   19   20 am   BACKBONE|DICT|INTERRES
    41   19  144 1    
    42   20   21 2    
    43   20   22 1    
    44   22   23 1    
    45   22   24 1    
    46   22  145 1    
    47   23  146 1    
    48   23  147 1    
    49   23  148 1    
    50   24   25 am   BACKBONE|DICT|INTERRES
    51   24  149 1    
    52   25   26 2    
    53   25   27 1    
    54   27   28 1    
    55   27   29 1    
    56   27  150 1    
    57   28  151 1    
    58   28  152 1    
    59   28  153 1    
    60   29   30 am   BACKBONE|DICT|INTERRES
    61   29  154 1    
    62   30   31 2    
    63   30   32 1    
    64   32   33 1    
    65   32   34 1    
    66   32  155 1    
    67   33  156 1    
    68   33  157 1    
    69   33  158 1    
    70   34   35 am   BACKBONE|DICT|INTERRES
    71   34  159 1    
    72   35   36 2    
    73   35   37 1    
    74   37   38 1    
    75   37   39 1    
    76   37  160 1    
    77   38  161 1    
    78   38  162 1    
    79   38  163 1    
    80   39   40 am   BACKBONE|DICT|INTERRES
    81   39  164 1    
    82   40   41 2    
    83   40   42 1    
    84   42   43 1    
    85   42   44 1    
    86   42  165 1    
    87   43  166 1    
    88   43  167 1    
    89   43  168 1    
    90   44   45 am   BACKBONE|DICT|INTERRES
    91   44  169 1    
    92   45   46 2    
    93   45   47 1    
    94   47   48 1    
    95   47   49 1    
    96   47  170 1    
    97   48  171 1    
    98   48  172 1    
    99   48  173 1    
   100   49   50 am   BACKBONE|DICT|INTERRES
   101   49  174 1    
   102   50   51 2    
   103   50   52 1    
   104   52   53 1    
   105   52   54 1    
   106   52  175 1    
   107   53  176 1    
   108   53  177 1    
   109   53  178 1    
   110   54   55 am   BACKBONE|DICT|INTERRES
   111   54  179 1    
   112   55   56 2    
   113   55   57 1    
   114   57   58 1    
   115   57   59 1    
   116   57  180 1    
   117   58  181 1    
   118   58  182 1    
   119   58  183 1    
   120   59   60 am   BACKBONE|DICT|INTERRES
   121   59  184 1    
   122   60   61 2    
   123   60   62 1    
   124   62   63 1    
   125   62   64 1    
   126   62  185 1    
   127   63  186 1    
   128   63  187 1    
   129   63  188 1    
   130   64   65 am   BACKBONE|DICT|INTERRES
   131   64  189 1    
   132   65   66 2    
   133   67   68 2    
   134   67   69 am   BACKBONE|DICT|INTERRES
   135   69   70 1    
   136   69  190 1    
   137   70   71 1    
   138   70   72 1    
   139   70  191 1    
   140   71  192 1    
   141   71  193 1    
   142   71  194 1    
   143   72   73 2    
   144   72   74 am   BACKBONE|DICT|INTERRES
   145   74   75 1    
   146   74  195 1    
   147   75   76 1    
   148   75   77 1    
   149   75  196 1    
   150   76  197 1    
   151   76  198 1    
   152   76  199 1    
   153   77   78 2    
   154   77   79 am   BACKBONE|DICT|INTERRES
   155   79   80 1    
   156   79  200 1    
   157   80   81 1    
   158   80   82 1    
   159   80  201 1    
   160   81  202 1    
   161   81  203 1    
   162   81  204 1    
   163   82   83 2    
   164   82   84 am   BACKBONE|DICT|INTERRES
   165   84   85 1    
   166   84  205 1    
   167   85   86 1    
   168   85   87 1    
   169   85  206 1    
   170   86  207 1    
   171   86  208 1    
   172   86  209 1    
   173   87   88 2    
   174   87   89 am   BACKBONE|DICT|INTERRES
   175   89   90 1    
   176   89  210 1    
   177   90   91 1    
   178   90   92 1    
   179   90  211 1    
   180   91  212 1    
   181   91  213 1    
   182   91  214 1    
   183   92   93 2    
   184   92   94 am   BACKBONE|DICT|INTERRES
   185   94   95 1    
   186   94  215 1    
   187   95   96 1    
   188   95   97 1    
   189   95  216 1    
   190   96  217 1    
   191   96  218 1    
   192   96  219 1    
   193   97   98 2    
   194   97   99 am   BACKBONE|DICT|INTERRES
   195   99  100 1    
   196   99  220 1    
   197  100  101 1    
   198  100  102 1    
   199  100  221 1    
   200  101  222 1    
   201  101  223 1    
   202  101  224 1    
   203  102  103 2    
   204  102  104 am   BACKBONE|DICT|INTERRES
   205  104  105 1    
   206  104  225 1    
   207  105  106 1    
   208  105  107 1    
   209  105  226 1    
   210  106  227 1    
   211  106  228 1    
   212  106  229 1    
   213  107  108 2    
   214  107  109 am   BACKBONE|DICT|INTERRES
   215  109  110 1    
   216  109  230 1    
   217  110  111 1    
   218  110  112 1    
   219  110  231 1    
   220  111  232 1    
   221  111  233 1    
   222  111  234 1    
   223  112  113 2    
   224  112  114 am   BACKBONE|DICT|INTERRES
   225  114  115 1    
   226  114  235 1    
   227  115  116 1    
   228  115  117 1    
   229  115  236 1    
   230  116  237 1    
   231  116  238 1    
   232  116  239 1    
   233  117  118 2    
   234  117  119 am   BACKBONE|DICT|INTERRES
   235  119  120 1    
   236  119  240 1    
   237  120  121 1    
   238  120  124 1    
   239  120  241 1    
   240  121  122 am   BACKBONE|DICT|INTERRES
   241  121  123 2    
   242  122  242 1    
   243  122  243 1    
   244  124  125 1    
   245  124  244 1    
   246  124  245 1    
   247  125  126 1    
   248  126  246 1    
   249  126  247 1    
@<TRIPOS>SUBSTRUCTURE
     1 UNK         1 GROUP             0       ****    0 ROOT    
