@<TRIPOS>MOLECULE
3R540
247   249    1
SMALL
USER_CHARGES


@<TRIPOS>ATOM
      1 CA          0.2449   -9.5323  -52.2731 C.3       0 UNK        -0.1800 
      2 C           0.9025  -10.2314  -51.0914 C.2       0 UNK         0.5000 
      3 O           2.1257  -10.1877  -50.9559 O.2       0 UNK        -0.5000 
      4 N           0.0975  -10.8816  -50.2436 N.am      1 UNK        -0.5000 
      5 CA          0.5346  -11.5418  -49.0108 C.3       1 UNK         0.1400 
      6 C6         -0.4794  -12.6227  -48.5585 C.3       23 UNK        -0.0398 
      7 S7         -2.1633  -12.0151  -48.1867 S.3       23 UNK        -0.2404 
      8 C8         -3.1816  -12.9135  -49.4050 C.3       23 UNK        -0.0205 
      9 C9         -3.0799  -14.4315  -49.2879 C.ar      23 UNK        -0.0193 
     10 C10        -2.8232  -15.1981  -50.4290 C.ar      23 UNK        -0.1150 
     11 C11        -2.7386  -16.5908  -50.3471 C.ar      23 UNK        -0.0193 
     12 C12        -2.9128  -17.2186  -49.1112 C.ar      23 UNK        -0.1150 
     13 C13        -3.1646  -16.4661  -47.9615 C.ar      23 UNK        -0.0193 
     14 C14        -3.2539  -15.0740  -48.0561 C.ar      23 UNK        -0.1150 
     15 C15        -3.3622  -17.1678  -46.6282 C.3       23 UNK        -0.0205 
     16 S16        -1.7848  -17.7283  -45.9082 S.3       23 UNK        -0.2404 
     17 C17        -2.4314  -18.8050  -44.5854 C.3       23 UNK        -0.0398 
     18 CA         -2.5371  -20.2737  -45.0652 C.3       11 UNK         0.1400 
     19 N          -1.2682  -20.9993  -44.9456 N.am      11 UNK        -0.5000 
     20 C          -1.0373  -22.2099  -45.4731 C.2       10 UNK         0.5000 
     21 O          -1.8508  -22.8210  -46.1658 O.2       10 UNK        -0.5000 
     22 CA          0.3008  -22.8767  -45.1221 C.3       10 UNK         0.1400 
     23 CB          1.4401  -22.3280  -45.9951 C.3       10 UNK        -0.1800 
     24 N           0.6190  -22.7140  -43.7030 N.am      10 UNK        -0.5000 
     25 C          -0.0199  -23.3608  -42.7159 C.2       9 UNK         0.5000 
     26 O          -0.9076  -24.1896  -42.9096 O.2       9 UNK        -0.5000 
     27 CA          0.3720  -23.0051  -41.2693 C.3       9 UNK         0.1400 
     28 CB          1.5498  -23.8737  -40.8032 C.3       9 UNK        -0.1800 
     29 N           0.7179  -21.5946  -41.0976 N.am      9 UNK        -0.5000 
     30 C          -0.1338  -20.5706  -41.2504 C.2       8 UNK         0.5000 
     31 O          -1.3258  -20.7022  -41.5212 O.2       8 UNK        -0.5000 
     32 CA          0.4712  -19.1582  -41.1583 C.3       8 UNK         0.1400 
     33 CB          0.5032  -18.6717  -39.7024 C.3       8 UNK        -0.1800 
     34 N           1.8182  -19.0815  -41.7315 N.am      8 UNK        -0.5000 
     35 C           2.1036  -19.3454  -43.0120 C.2       7 UNK         0.5000 
     36 O           1.2583  -19.6790  -43.8490 O.2       7 UNK        -0.5000 
     37 CA          3.5757  -19.2593  -43.4203 C.3       7 UNK         0.1400 
     38 CB          4.2896  -20.5969  -43.1558 C.3       7 UNK        -0.1800 
     39 N           3.6243  -18.9385  -44.8398 N.am      7 UNK        -0.5000 
     40 C           4.6552  -18.3715  -45.4749 C.2       6 UNK         0.5000 
     41 O           5.7168  -18.0667  -44.9307 O.2       6 UNK        -0.5000 
     42 CA          4.4440  -18.0614  -46.9605 C.3       6 UNK         0.1400 
     43 CB          4.4553  -19.3466  -47.8092 C.3       6 UNK        -0.1800 
     44 N           3.1891  -17.3343  -47.1415 N.am      6 UNK        -0.5000 
     45 C           2.9160  -16.5211  -48.1677 C.2       5 UNK         0.5000 
     46 O           3.6948  -16.3086  -49.0977 O.2       5 UNK        -0.5000 
     47 CA          1.5425  -15.8252  -48.1634 C.3       5 UNK         0.1400 
     48 CB          0.5796  -16.5369  -49.1196 C.3       5 UNK        -0.1800 
     49 N           0.9248  -15.7543  -46.8352 N.am      5 UNK        -0.5000 
     50 C           1.2402  -14.8367  -45.9150 C.2       4 UNK         0.5000 
     51 O           2.0597  -13.9310  -46.1088 O.2       4 UNK        -0.5000 
     52 CA          0.5069  -14.9321  -44.5671 C.3       4 UNK         0.1400 
     53 CB          0.9551  -16.1625  -43.7643 C.3       4 UNK        -0.1800 
     54 N           0.8109  -13.7226  -43.8213 N.am      4 UNK        -0.5000 
     55 C           0.0643  -13.1345  -42.8816 C.2       3 UNK         0.5000 
     56 O          -0.9630  -13.6231  -42.4106 O.2       3 UNK        -0.5000 
     57 CA          0.5448  -11.7438  -42.4112 C.3       3 UNK         0.1400 
     58 CB          1.3568  -11.8639  -41.1125 C.3       3 UNK        -0.1800 
     59 N           1.3612  -11.0669  -43.4270 N.am      3 UNK        -0.5000 
     60 C           0.8815  -10.6019  -44.5896 C.2       2 UNK         0.5000 
     61 O          -0.3237  -10.5362  -44.8382 O.2       2 UNK        -0.5000 
     62 CA          1.9025  -10.1929  -45.6716 C.3       2 UNK         0.1400 
     63 CB          3.3734  -10.4380  -45.2769 C.3       2 UNK        -0.1800 
     64 N           1.6164  -10.9509  -46.8896 N.am      2 UNK        -0.5000 
     65 C           0.8428  -10.5173  -47.8934 C.2       1 UNK         0.5000 
     66 O           0.3743   -9.3761  -47.9513 O.2       1 UNK        -0.5000 
     67 C          -3.7000  -21.0217  -44.3787 C.2       11 UNK         0.5000 
     68 O          -4.7710  -21.1357  -44.9761 O.2       11 UNK        -0.5000 
     69 N          -3.4608  -21.5756  -43.1804 N.am      12 UNK        -0.5000 
     70 CA         -4.4106  -22.4189  -42.4445 C.3       12 UNK         0.1400 
     71 CB         -3.8529  -22.7207  -41.0460 C.3       12 UNK        -0.1800 
     72 C          -4.7627  -23.7290  -43.1779 C.2       12 UNK         0.5000 
     73 O          -5.8839  -24.2186  -43.0428 O.2       12 UNK        -0.5000 
     74 N          -3.8199  -24.2418  -43.9787 N.am      13 UNK        -0.5000 
     75 CA         -3.9846  -25.3879  -44.8728 C.3       13 UNK         0.1400 
     76 CB         -2.6259  -26.0936  -45.0293 C.3       13 UNK        -0.1800 
     77 C          -4.5884  -25.0055  -46.2428 C.2       13 UNK         0.5000 
     78 O          -4.4700  -25.7891  -47.1845 O.2       13 UNK        -0.5000 
     79 N          -5.2113  -23.8209  -46.3474 N.am      14 UNK        -0.5000 
     80 CA         -5.8673  -23.2629  -47.5343 C.3       14 UNK         0.1400 
     81 CB         -7.0941  -24.1089  -47.9364 C.3       14 UNK        -0.1800 
     82 C          -4.8745  -23.0472  -48.6912 C.2       14 UNK         0.5000 
     83 O          -5.0787  -23.5597  -49.7928 O.2       14 UNK        -0.5000 
     84 N          -3.7904  -22.3196  -48.3889 N.am      15 UNK        -0.5000 
     85 CA         -2.6470  -22.0343  -49.2624 C.3       15 UNK         0.1400 
     86 CB         -3.0699  -21.1571  -50.4576 C.3       15 UNK        -0.1800 
     87 C          -1.9248  -23.3273  -49.6869 C.2       15 UNK         0.5000 
     88 O          -1.6638  -23.5304  -50.8733 O.2       15 UNK        -0.5000 
     89 N          -1.6589  -24.1889  -48.6937 N.am      16 UNK        -0.5000 
     90 CA         -1.0545  -25.5201  -48.8056 C.3       16 UNK         0.1400 
     91 CB          0.4455  -25.3972  -49.1422 C.3       16 UNK        -0.1800 
     92 C          -1.8264  -26.4373  -49.7790 C.2       16 UNK         0.5000 
     93 O          -1.2361  -27.0030  -50.7004 O.2       16 UNK        -0.5000 
     94 N          -3.1450  -26.5378  -49.5568 N.am      17 UNK        -0.5000 
     95 CA         -4.1363  -27.2436  -50.3726 C.3       17 UNK         0.1400 
     96 CB         -3.9055  -28.7687  -50.3234 C.3       17 UNK        -0.1800 
     97 C          -4.2223  -26.6795  -51.8061 C.2       17 UNK         0.5000 
     98 O          -4.1747  -27.4379  -52.7769 O.2       17 UNK        -0.5000 
     99 N          -4.3486  -25.3474  -51.8969 N.am      18 UNK        -0.5000 
    100 CA        -4.4443  -24.5395  -53.1150 C.3       18 UNK         0.1400 
    101 CB        -5.7909  -24.7889  -53.8251 C.3       18 UNK        -0.1800 
    102 C         -3.2251  -24.6988  -54.0472 C.2       18 UNK         0.5000 
    103 O         -3.3848  -24.8749  -55.2571 O.2       18 UNK        -0.5000 
    104 N         -2.0192  -24.6239  -53.4668 N.am      19 UNK        -0.5000 
    105 CA        -0.7496  -24.6157  -54.1981 C.3       19 UNK         0.1400 
    106 CB         0.4033  -24.8984  -53.2236 C.3       19 UNK        -0.1800 
    107 C         -0.5158  -23.2846  -54.9388 C.2       19 UNK         0.5000 
    108 O          0.1714  -23.2690  -55.9610 O.2       19 UNK        -0.5000 
    109 N         -1.1122  -22.2054  -54.4201 N.am      20 UNK        -0.5000 
    110 CA        -1.2097  -20.8958  -55.0518 C.3       20 UNK         0.1400 
    111 CB        -0.6595  -19.8373  -54.0829 C.3       20 UNK        -0.1800 
    112 C         -2.6866  -20.6140  -55.3675 C.2       20 UNK         0.5000 
    113 O         -3.5692  -21.0908  -54.6487 O.2       20 UNK        -0.5000 
    114 N         -2.9267  -19.8273  -56.4241 N.am      21 UNK        -0.5000 
    115 CA        -4.2620  -19.3690  -56.8207 C.3       21 UNK         0.1400 
    116 CB        -4.2295  -18.9458  -58.2976 C.3       21 UNK        -0.1800 
    117 C         -4.7770  -18.2134  -55.9399 C.2       21 UNK         0.5000 
    118 O         -5.9893  -18.0651  -55.7836 O.2       21 UNK        -0.5000 
    119 N         -3.8437  -17.4257  -55.3862 N.am      22 UNK        -0.5000 
    120 CA        -4.0714  -16.3086  -54.4495 C.3       22 UNK         0.1400 
    121 C         -4.7770  -15.0605  -55.0640 C.2       22 UNK         0.5000 
    122 N         -4.8636  -14.9305  -56.3822 N.am      22 UNK        -0.7600 
    123 O         -5.2244  -14.1753  -54.3397 O.2       22 UNK        -0.5000 
    124 C124       -4.7173  -16.7500  -53.1034 C.3       23 UNK        -0.0398 
    125 S125       -3.8875  -18.1770  -52.3210 S.3       23 UNK        -0.2404 
    126 C126       -2.4101  -17.4168  -51.5798 C.3       23 UNK        -0.0205 
    127 H127        0.6364   -9.9293  -53.2097 H         1 UNK         0.0600 
    128 H128        0.4547   -8.4632  -52.2402 H         1 UNK         0.0600 
    129 H129       -0.8372   -9.6665  -52.2729 H         1 UNK         0.0600 
    130 H130       -0.9024  -10.8413  -50.3776 H         1 UNK         0.3000 
    131 H131        1.4723  -12.0580  -49.2298 H         1 UNK         0.0600 
    132 H132       -0.1191  -13.1271  -47.6648 H         1 UNK         0.0800 
    133 H133       -0.5316  -13.3975  -49.3237 H         1 UNK         0.0800 
    134 H134       -2.8986  -12.5825  -50.4054 H         1 UNK         0.0800 
    135 H135       -4.2245  -12.6243  -49.2701 H         1 UNK         0.0800 
    136 H136       -2.6832  -14.7109  -51.3838 H         1 UNK         0.1150 
    137 H137       -2.8384  -18.2941  -49.0398 H         1 UNK         0.1150 
    138 H138       -3.4567  -14.4877  -47.1710 H         1 UNK         0.1150 
    139 H139       -3.8662  -16.5083  -45.9199 H         1 UNK         0.0800 
    140 H140       -4.0223  -18.0243  -46.7747 H         1 UNK         0.0800 
    141 H141       -3.3990  -18.4106  -44.2680 H         1 UNK         0.0800 
    142 H142       -1.7815  -18.7273  -43.7126 H         1 UNK         0.0800 
    143 H143       -2.7914  -20.2630  -46.1276 H         1 UNK         0.0600 
    144 H144       -0.5282  -20.5500  -44.4168 H         1 UNK         0.3000 
    145 H145        0.2069  -23.9444  -45.3317 H         1 UNK         0.0600 
    146 H146        1.5677  -21.2526  -45.8785 H         1 UNK         0.0600 
    147 H147        2.3890  -22.8066  -45.7526 H         1 UNK         0.0600 
    148 H148        1.2418  -22.5170  -47.0509 H         1 UNK         0.0600 
    149 H149        1.2875  -21.9960  -43.4660 H         1 UNK         0.3000 
    150 H150       -0.4859  -23.2213  -40.6296 H         1 UNK         0.0600 
    151 H151        1.3143  -24.9345  -40.8998 H         1 UNK         0.0600 
    152 H152        1.7857  -23.6890  -39.7550 H         1 UNK         0.0600 
    153 H153        2.4494  -23.6822  -41.3896 H         1 UNK         0.0600 
    154 H154        1.6807  -21.3866  -40.8787 H         1 UNK         0.3000 
    155 H155       -0.1739  -18.4864  -41.7282 H         1 UNK         0.0600 
    156 H156       -0.4927  -18.7047  -39.2584 H         1 UNK         0.0600 
    157 H157        0.8513  -17.6406  -39.6395 H         1 UNK         0.0600 
    158 H158        1.1589  -19.2869  -39.0850 H         1 UNK         0.0600 
    159 H159        2.5625  -18.8170  -41.1021 H         1 UNK         0.3000 
    160 H160        4.0531  -18.4609  -42.8482 H         1 UNK         0.0600 
    161 H161        5.3437  -20.5431  -43.4281 H         1 UNK         0.0600 
    162 H162        3.8403  -21.4118  -43.7252 H         1 UNK         0.0600 
    163 H163        4.2431  -20.8666  -42.1001 H         1 UNK         0.0600 
    164 H164        2.7746  -19.1709  -45.3373 H         1 UNK         0.3000 
    165 H165        5.2728  -17.4252  -47.2796 H         1 UNK         0.0600 
    166 H166        3.6144  -19.9982  -47.5687 H         1 UNK         0.0600 
    167 H167        4.4050  -19.1177  -48.8737 H         1 UNK         0.0600 
    168 H168        5.3710  -19.9156  -47.6438 H         1 UNK         0.0600 
    169 H169        2.5161  -17.4013  -46.3930 H         1 UNK         0.3000 
    170 H170        1.6967  -14.8120  -48.5402 H         1 UNK         0.0600 
    171 H171        0.3185  -17.5361  -48.7687 H         1 UNK         0.0600 
    172 H172       -0.3375  -15.9615  -49.2178 H         1 UNK         0.0600 
    173 H173        1.0079  -16.6353  -50.1179 H         1 UNK         0.0600 
    174 H174        0.2119  -16.4425  -46.6283 H         1 UNK         0.3000 
    175 H175       -0.5669  -14.9812  -44.7601 H         1 UNK         0.0600 
    176 H176        2.0317  -16.1604  -43.5897 H         1 UNK         0.0600 
    177 H177        0.4584  -16.2061  -42.7951 H         1 UNK         0.0600 
    178 H178        0.7050  -17.0806  -44.2941 H         1 UNK         0.0600 
    179 H179        1.6150  -13.2266  -44.1840 H         1 UNK         0.3000 
    180 H180       -0.3390  -11.1347  -42.2103 H         1 UNK         0.0600 
    181 H181        2.2591  -12.4600  -41.2546 H         1 UNK         0.0600 
    182 H182        0.7684  -12.3413  -40.3279 H         1 UNK         0.0600 
    183 H183        1.6558  -10.8832  -40.7420 H         1 UNK         0.0600 
    184 H184        2.3604  -11.0706  -43.2806 H         1 UNK         0.3000 
    185 H185        1.7769   -9.1227  -45.8474 H         1 UNK         0.0600 
    186 H186        4.0444  -10.1229  -46.0763 H         1 UNK         0.0600 
    187 H187        3.6488   -9.8656  -44.3902 H         1 UNK         0.0600 
    188 H188        3.5749  -11.4918  -45.0787 H         1 UNK         0.0600 
    189 H189        1.9234  -11.9172  -46.8816 H         1 UNK         0.3000 
    190 H190       -2.5745  -21.3882  -42.7169 H         1 UNK         0.3000 
    191 H191       -5.3355  -21.8507  -42.3263 H         1 UNK         0.0600 
    192 H192       -2.9132  -23.2706  -41.0999 H         1 UNK         0.0600 
    193 H193       -3.6739  -21.8031  -40.4854 H         1 UNK         0.0600 
    194 H194       -4.5535  -23.3234  -40.4667 H         1 UNK         0.0600 
    195 H195       -2.9154  -23.7889  -44.0050 H         1 UNK         0.3000 
    196 H196       -4.6749  -26.0983  -44.4139 H         1 UNK         0.0600 
    197 H197       -2.2313  -26.4023  -44.0612 H         1 UNK         0.0600 
    198 H198       -1.8869  -25.4439  -45.4970 H         1 UNK         0.0600 
    199 H199       -2.7111  -26.9922  -45.6415 H         1 UNK         0.0600 
    200 H200       -5.2047  -23.2125  -45.5383 H         1 UNK         0.3000 
    201 H201       -6.2301  -22.2739  -47.2504 H         1 UNK         0.0600 
    202 H202       -7.6425  -23.6341  -48.7507 H         1 UNK         0.0600 
    203 H203       -7.7854  -24.2213  -47.1014 H         1 UNK         0.0600 
    204 H204       -6.8114  -25.1064  -48.2743 H         1 UNK         0.0600 
    205 H205       -3.6760  -22.0377  -47.4248 H         1 UNK         0.3000 
    206 H206       -1.9354  -21.4603  -48.6672 H         1 UNK         0.0600 
    207 H207       -3.6082  -20.2717  -50.1224 H         1 UNK         0.0600 
    208 H208       -3.7159  -21.6927  -51.1536 H         1 UNK         0.0600 
    209 H209       -2.1992  -20.8180  -51.0192 H         1 UNK         0.0600 
    210 H210       -1.9105  -23.8939  -47.7542 H         1 UNK         0.3000 
    211 H211       -1.1341  -25.9824  -47.8211 H         1 UNK         0.0600 
    212 H212        0.9651  -24.7869  -48.4036 H         1 UNK         0.0600 
    213 H213        0.9260  -26.3761  -49.1502 H         1 UNK         0.0600 
    214 H214        0.6052  -24.9458  -50.1213 H         1 UNK         0.0600 
    215 H215       -3.5347  -26.0614  -48.7452 H         1 UNK         0.3000 
    216 H216       -5.1038  -27.0448  -49.9089 H         1 UNK         0.0600 
    217 H217       -4.7116  -29.3003  -50.8303 H         1 UNK         0.0600 
    218 H218       -2.9713  -29.0559  -50.8065 H         1 UNK         0.0600 
    219 H219       -3.8763  -29.1288  -49.2950 H         1 UNK         0.0600 
    220 H220       -4.4089  -24.8116  -51.0335 H         1 UNK         0.3000 
    221 H221       -4.4374  -23.4988  -52.7875 H         1 UNK         0.0600 
    222 H222       -5.8624  -25.8044  -54.2156 H         1 UNK         0.0600 
    223 H223       -6.6286  -24.6299  -53.1460 H         1 UNK         0.0600 
    224 H224       -5.9208  -24.1046  -54.6645 H         1 UNK         0.0600 
    225 H225       -1.9623  -24.4442  -52.4659 H         1 UNK         0.3000 
    226 H226       -0.7729  -25.4153  -54.9414 H         1 UNK         0.0600 
    227 H227        0.2628  -25.8498  -52.7108 H         1 UNK         0.0600 
    228 H228        1.3563  -24.9507  -53.7514 H         1 UNK         0.0600 
    229 H229        0.4900  -24.1181  -52.4669 H         1 UNK         0.0600 
    230 H230       -1.7050  -22.3389  -53.6124 H         1 UNK         0.3000 
    231 H231       -0.6348  -20.8657  -55.9796 H         1 UNK         0.0600 
    232 H232       -0.7254  -18.8370  -54.5120 H         1 UNK         0.0600 
    233 H233        0.3891  -20.0242  -53.8509 H         1 UNK         0.0600 
    234 H234       -1.2126  -19.8292  -53.1433 H         1 UNK         0.0600 
    235 H235       -2.1509  -19.4911  -56.9767 H         1 UNK         0.3000 
    236 H236       -4.9639  -20.2000  -56.7213 H         1 UNK         0.0600 
    237 H237       -3.9317  -19.7758  -58.9386 H         1 UNK         0.0600 
    238 H238       -5.2148  -18.6171  -58.6311 H         1 UNK         0.0600 
    239 H239       -3.5338  -18.1233  -58.4677 H         1 UNK         0.0600 
    240 H240       -2.8774  -17.6301  -55.5897 H         1 UNK         0.3000 
    241 H241       -3.0726  -15.9440  -54.2104 H         1 UNK         0.0600 
    242 H242       -4.4952  -15.6417  -56.9928 H         1 UNK         0.3800 
    243 H243       -5.3110  -14.1158  -56.7725 H         1 UNK         0.3800 
    244 H244       -4.7343  -15.9241  -52.3918 H         1 UNK         0.0800 
    245 H245       -5.7614  -17.0224  -53.2629 H         1 UNK         0.0800 
    246 H246       -1.7155  -18.2098  -51.2995 H         1 UNK         0.0800 
    247 H247       -1.8880  -16.8137  -52.3232 H         1 UNK         0.0800 
@<TRIPOS>BOND
     1    1    2 1    
     2    1  127 1    
     3    1  128 1    
     4    1  129 1    
     5    2    3 2    
     6    2    4 am   BACKBONE|DICT|INTERRES
     7    4    5 1    
     8    4  130 1    
     9    5    6 1    
    10    5   65 1    
    11    5  131 1    
    12    6    7 1    
    13    6  132 1    
    14    6  133 1    
    15    7    8 1    
    16    8    9 1    
    17    8  134 1    
    18    8  135 1    
    19    9   10 ar   
    20    9   14 ar   
    21   10   11 ar   
    22   10  136 1    
    23   11   12 ar   
    24   11  126 1    
    25   12   13 ar   
    26   12  137 1    
    27   13   14 ar   
    28   13   15 1    
    29   14  138 1    
    30   15   16 1    
    31   15  139 1    
    32   15  140 1    
    33   16   17 1    
    34   17   18 1    
    35   17  141 1    
    36   17  142 1    
    37   18   19 1    
    38   18   67 1    
    39   18  143 1    
    40   19   20 am   BACKBONE|DICT|INTERRES
    41   19  144 1    
    42   20   21 2    
    43   20   22 1    
    44   22   23 1    
    45   22   24 1    
    46   22  145 1    
    47   23  146 1    
    48   23  147 1    
    49   23  148 1    
    50   24   25 am   BACKBONE|DICT|INTERRES
    51   24  149 1    
    52   25   26 2    
    53   25   27 1    
    54   27   28 1    
    55   27   29 1    
    56   27  150 1    
    57   28  151 1    
    58   28  152 1    
    59   28  153 1    
    60   29   30 am   BACKBONE|DICT|INTERRES
    61   29  154 1    
    62   30   31 2    
    63   30   32 1    
    64   32   33 1    
    65   32   34 1    
    66   32  155 1    
    67   33  156 1    
    68   33  157 1    
    69   33  158 1    
    70   34   35 am   BACKBONE|DICT|INTERRES
    71   34  159 1    
    72   35   36 2    
    73   35   37 1    
    74   37   38 1    
    75   37   39 1    
    76   37  160 1    
    77   38  161 1    
    78   38  162 1    
    79   38  163 1    
    80   39   40 am   BACKBONE|DICT|INTERRES
    81   39  164 1    
    82   40   41 2    
    83   40   42 1    
    84   42   43 1    
    85   42   44 1    
    86   42  165 1    
    87   43  166 1    
    88   43  167 1    
    89   43  168 1    
    90   44   45 am   BACKBONE|DICT|INTERRES
    91   44  169 1    
    92   45   46 2    
    93   45   47 1    
    94   47   48 1    
    95   47   49 1    
    96   47  170 1    
    97   48  171 1    
    98   48  172 1    
    99   48  173 1    
   100   49   50 am   BACKBONE|DICT|INTERRES
   101   49  174 1    
   102   50   51 2    
   103   50   52 1    
   104   52   53 1    
   105   52   54 1    
   106   52  175 1    
   107   53  176 1    
   108   53  177 1    
   109   53  178 1    
   110   54   55 am   BACKBONE|DICT|INTERRES
   111   54  179 1    
   112   55   56 2    
   113   55   57 1    
   114   57   58 1    
   115   57   59 1    
   116   57  180 1    
   117   58  181 1    
   118   58  182 1    
   119   58  183 1    
   120   59   60 am   BACKBONE|DICT|INTERRES
   121   59  184 1    
   122   60   61 2    
   123   60   62 1    
   124   62   63 1    
   125   62   64 1    
   126   62  185 1    
   127   63  186 1    
   128   63  187 1    
   129   63  188 1    
   130   64   65 am   BACKBONE|DICT|INTERRES
   131   64  189 1    
   132   65   66 2    
   133   67   68 2    
   134   67   69 am   BACKBONE|DICT|INTERRES
   135   69   70 1    
   136   69  190 1    
   137   70   71 1    
   138   70   72 1    
   139   70  191 1    
   140   71  192 1    
   141   71  193 1    
   142   71  194 1    
   143   72   73 2    
   144   72   74 am   BACKBONE|DICT|INTERRES
   145   74   75 1    
   146   74  195 1    
   147   75   76 1    
   148   75   77 1    
   149   75  196 1    
   150   76  197 1    
   151   76  198 1    
   152   76  199 1    
   153   77   78 2    
   154   77   79 am   BACKBONE|DICT|INTERRES
   155   79   80 1    
   156   79  200 1    
   157   80   81 1    
   158   80   82 1    
   159   80  201 1    
   160   81  202 1    
   161   81  203 1    
   162   81  204 1    
   163   82   83 2    
   164   82   84 am   BACKBONE|DICT|INTERRES
   165   84   85 1    
   166   84  205 1    
   167   85   86 1    
   168   85   87 1    
   169   85  206 1    
   170   86  207 1    
   171   86  208 1    
   172   86  209 1    
   173   87   88 2    
   174   87   89 am   BACKBONE|DICT|INTERRES
   175   89   90 1    
   176   89  210 1    
   177   90   91 1    
   178   90   92 1    
   179   90  211 1    
   180   91  212 1    
   181   91  213 1    
   182   91  214 1    
   183   92   93 2    
   184   92   94 am   BACKBONE|DICT|INTERRES
   185   94   95 1    
   186   94  215 1    
   187   95   96 1    
   188   95   97 1    
   189   95  216 1    
   190   96  217 1    
   191   96  218 1    
   192   96  219 1    
   193   97   98 2    
   194   97   99 am   BACKBONE|DICT|INTERRES
   195   99  100 1    
   196   99  220 1    
   197  100  101 1    
   198  100  102 1    
   199  100  221 1    
   200  101  222 1    
   201  101  223 1    
   202  101  224 1    
   203  102  103 2    
   204  102  104 am   BACKBONE|DICT|INTERRES
   205  104  105 1    
   206  104  225 1    
   207  105  106 1    
   208  105  107 1    
   209  105  226 1    
   210  106  227 1    
   211  106  228 1    
   212  106  229 1    
   213  107  108 2    
   214  107  109 am   BACKBONE|DICT|INTERRES
   215  109  110 1    
   216  109  230 1    
   217  110  111 1    
   218  110  112 1    
   219  110  231 1    
   220  111  232 1    
   221  111  233 1    
   222  111  234 1    
   223  112  113 2    
   224  112  114 am   BACKBONE|DICT|INTERRES
   225  114  115 1    
   226  114  235 1    
   227  115  116 1    
   228  115  117 1    
   229  115  236 1    
   230  116  237 1    
   231  116  238 1    
   232  116  239 1    
   233  117  118 2    
   234  117  119 am   BACKBONE|DICT|INTERRES
   235  119  120 1    
   236  119  240 1    
   237  120  121 1    
   238  120  124 1    
   239  120  241 1    
   240  121  122 am   BACKBONE|DICT|INTERRES
   241  121  123 2    
   242  122  242 1    
   243  122  243 1    
   244  124  125 1    
   245  124  244 1    
   246  124  245 1    
   247  125  126 1    
   248  126  246 1    
   249  126  247 1    
@<TRIPOS>SUBSTRUCTURE
     1 UNK         1 GROUP             0       ****    0 ROOT    
