@<TRIPOS>MOLECULE
3R540
247   249    1
SMALL
USER_CHARGES


@<TRIPOS>ATOM
      1 CA          4.4072  -14.6941  -48.8355 C.3       0 UNK        -0.1800 
      2 C           3.2755  -13.8442  -48.2773 C.2       0 UNK         0.5000 
      3 O           3.1048  -12.7000  -48.6965 O.2       0 UNK        -0.5000 
      4 N           2.5091  -14.4000  -47.3288 N.am      1 UNK        -0.5000 
      5 CA          1.3320  -13.8399  -46.6393 C.3       1 UNK         0.1400 
      6 C6          0.1425  -13.5165  -47.5809 C.3       23 UNK        -0.0398 
      7 S7         -0.5488  -15.0197  -48.3511 S.3       23 UNK        -0.2404 
      8 C8          0.1566  -14.9219  -50.0234 C.3       23 UNK        -0.0205 
      9 C9         -0.1214  -16.1829  -50.8251 C.ar      23 UNK        -0.0193 
     10 C10        -0.9397  -16.1344  -51.9576 C.ar      23 UNK        -0.1150 
     11 C11        -1.1545  -17.2820  -52.7263 C.ar      23 UNK        -0.0193 
     12 C12        -0.5562  -18.4860  -52.3472 C.ar      23 UNK        -0.1150 
     13 C13         0.2603  -18.5473  -51.2143 C.ar      23 UNK        -0.0193 
     14 C14         0.4753  -17.3933  -50.4567 C.ar      23 UNK        -0.1150 
     15 C15         0.9281  -19.8579  -50.8360 C.3       23 UNK        -0.0205 
     16 S16        -0.2724  -21.0332  -50.1468 S.3       23 UNK        -0.2404 
     17 C17        -0.3191  -20.5877  -48.3786 C.3       23 UNK        -0.0398 
     18 CA         -0.4978  -21.8459  -47.4947 C.3       11 UNK         0.1400 
     19 N           0.0310  -21.6487  -46.1414 N.am      11 UNK        -0.5000 
     20 C           0.2655  -22.6451  -45.2756 C.2       10 UNK         0.5000 
     21 O           0.0737  -23.8317  -45.5383 O.2       10 UNK        -0.5000 
     22 CA          0.7496  -22.2538  -43.8677 C.3       10 UNK         0.1400 
     23 CB          2.2505  -21.9299  -43.8764 C.3       10 UNK        -0.1800 
     24 N           0.0001  -21.1293  -43.3066 N.am      10 UNK        -0.5000 
     25 C          -1.3125  -21.1561  -43.0351 C.2       9 UNK         0.5000 
     26 O          -2.0176  -22.1529  -43.1820 O.2       9 UNK        -0.5000 
     27 CA         -1.9621  -19.8380  -42.5784 C.3       9 UNK         0.1400 
     28 CB         -1.7407  -19.6078  -41.0763 C.3       9 UNK        -0.1800 
     29 N          -1.4806  -18.6801  -43.3310 N.am      9 UNK        -0.5000 
     30 C          -1.6187  -18.5149  -44.6551 C.2       8 UNK         0.5000 
     31 O          -2.2031  -19.3092  -45.3910 O.2       8 UNK        -0.5000 
     32 CA         -0.9297  -17.2838  -45.2650 C.3       8 UNK         0.1400 
     33 CB         -1.7320  -16.0053  -44.9696 C.3       8 UNK        -0.1800 
     34 N           0.4447  -17.1493  -44.7766 N.am      8 UNK        -0.5000 
     35 C           1.4347  -18.0046  -45.0766 C.2       7 UNK         0.5000 
     36 O           1.3048  -18.9542  -45.8484 O.2       7 UNK        -0.5000 
     37 CA          2.7834  -17.7905  -44.3622 C.3       7 UNK         0.1400 
     38 CB          3.6890  -16.8431  -45.1609 C.3       7 UNK        -0.1800 
     39 N           2.6249  -17.2721  -43.0040 N.am      7 UNK        -0.5000 
     40 C           2.0886  -17.9630  -41.9888 C.2       6 UNK         0.5000 
     41 O           1.7232  -19.1345  -42.0747 O.2       6 UNK        -0.5000 
     42 CA          1.8593  -17.1820  -40.6855 C.3       6 UNK         0.1400 
     43 CB          3.1443  -17.1206  -39.8469 C.3       6 UNK        -0.1800 
     44 N           1.3762  -15.8261  -40.9553 N.am      6 UNK        -0.5000 
     45 C           0.1509  -15.5453  -41.4245 C.2       5 UNK         0.5000 
     46 O          -0.6790  -16.4206  -41.6716 O.2       5 UNK        -0.5000 
     47 CA         -0.2032  -14.0729  -41.7330 C.3       5 UNK         0.1400 
     48 CB         -1.5951  -13.6860  -41.1935 C.3       5 UNK        -0.1800 
     49 N           0.8198  -13.1013  -41.3281 N.am      5 UNK        -0.5000 
     50 C           1.2230  -12.8027  -40.0831 C.2       4 UNK         0.5000 
     51 O           0.6967  -13.2601  -39.0676 O.2       4 UNK        -0.5000 
     52 CA          2.4448  -11.8642  -39.9559 C.3       4 UNK         0.1400 
     53 CB          3.2391  -12.1149  -38.6572 C.3       4 UNK        -0.1800 
     54 N           3.3580  -11.8901  -41.1079 N.am      4 UNK        -0.5000 
     55 C           3.9943  -12.9456  -41.6360 C.2       3 UNK         0.5000 
     56 O           3.8027  -14.1087  -41.2762 O.2       3 UNK        -0.5000 
     57 CA          4.9720  -12.6398  -42.7918 C.3       3 UNK         0.1400 
     58 CB          5.7781  -13.8782  -43.2229 C.3       3 UNK        -0.1800 
     59 N           4.2800  -12.1043  -43.9645 N.am      3 UNK        -0.5000 
     60 C           3.7637  -10.8738  -44.0889 C.2       2 UNK         0.5000 
     61 O           3.8664  -10.0044  -43.2218 O.2       2 UNK        -0.5000 
     62 CA          2.9866  -10.5625  -45.3841 C.3       2 UNK         0.1400 
     63 CB          3.8373   -9.6940  -46.3233 C.3       2 UNK        -0.1800 
     64 N           2.5415  -11.7499  -46.1191 N.am      2 UNK        -0.5000 
     65 C           1.6460  -12.6522  -45.7007 C.2       1 UNK         0.5000 
     66 O           1.0984  -12.5977  -44.5991 O.2       1 UNK        -0.5000 
     67 C          -1.9586  -22.3567  -47.4901 C.2       11 UNK         0.5000 
     68 O          -2.3308  -23.1506  -48.3575 O.2       11 UNK        -0.5000 
     69 N          -2.7551  -21.9229  -46.5030 N.am      12 UNK        -0.5000 
     70 CA         -4.1095  -22.4155  -46.2538 C.3       12 UNK         0.1400 
     71 CB         -4.8413  -21.4684  -45.2925 C.3       12 UNK        -0.1800 
     72 C          -4.1161  -23.8611  -45.7270 C.2       12 UNK         0.5000 
     73 O          -4.9199  -24.6648  -46.1969 O.2       12 UNK        -0.5000 
     74 N          -3.1977  -24.1857  -44.8053 N.am      13 UNK        -0.5000 
     75 CA         -2.9926  -25.5347  -44.2672 C.3       13 UNK         0.1400 
     76 CB         -2.0200  -25.4759  -43.0799 C.3       13 UNK        -0.1800 
     77 C          -2.4980  -26.5342  -45.3306 C.2       13 UNK         0.5000 
     78 O          -2.9241  -27.6894  -45.3263 O.2       13 UNK        -0.5000 
     79 N          -1.6485  -26.0577  -46.2513 N.am      14 UNK        -0.5000 
     80 CA         -1.1953  -26.7831  -47.4413 C.3       14 UNK         0.1400 
     81 CB          0.0377  -26.0661  -48.0145 C.3       14 UNK        -0.1800 
     82 C          -2.2829  -26.9237  -48.5287 C.2       14 UNK         0.5000 
     83 O          -2.0840  -27.6779  -49.4809 O.2       14 UNK        -0.5000 
     84 N          -3.3906  -26.1817  -48.3805 N.am      15 UNK        -0.5000 
     85 CA         -4.5653  -26.0903  -49.2530 C.3       15 UNK         0.1400 
     86 CB         -5.2413  -27.4633  -49.4390 C.3       15 UNK        -0.1800 
     87 C          -4.3139  -25.3803  -50.5969 C.2       15 UNK         0.5000 
     88 O          -5.2384  -25.2869  -51.4024 O.2       15 UNK        -0.5000 
     89 N          -3.1075  -24.8437  -50.8146 N.am      16 UNK        -0.5000 
     90 CA         -2.7364  -24.1123  -52.0253 C.3       16 UNK         0.1400 
     91 CB         -1.2085  -23.9969  -52.1055 C.3       16 UNK        -0.1800 
     92 C          -3.4235  -22.7384  -52.1158 C.2       16 UNK         0.5000 
     93 O          -3.8352  -22.3388  -53.2059 O.2       16 UNK        -0.5000 
     94 N          -3.5971  -22.0631  -50.9703 N.am      17 UNK        -0.5000 
     95 CA         -4.3672  -20.8190  -50.8875 C.3       17 UNK         0.1400 
     96 CB         -4.0340  -20.0708  -49.5900 C.3       17 UNK        -0.1800 
     97 C          -5.8829  -21.0665  -51.0022 C.2       17 UNK         0.5000 
     98 O          -6.5892  -20.2300  -51.5635 O.2       17 UNK        -0.5000 
     99 N          -6.3494  -22.2211  -50.5026 N.am      18 UNK        -0.5000 
    100 CA        -7.7449  -22.6606  -50.5849 C.3       18 UNK         0.1400 
    101 CB        -7.9784  -23.8227  -49.6068 C.3       18 UNK        -0.1800 
    102 C         -8.1450  -23.0540  -52.0193 C.2       18 UNK         0.5000 
    103 O         -9.2345  -22.6982  -52.4689 O.2       18 UNK        -0.5000 
    104 N         -7.2361  -23.7426  -52.7239 N.am      19 UNK        -0.5000 
    105 CA        -7.3497  -24.0912  -54.1421 C.3       19 UNK         0.1400 
    106 CB        -6.3222  -25.1881  -54.4635 C.3       19 UNK        -0.1800 
    107 C         -7.1526  -22.8877  -55.0867 C.2       19 UNK         0.5000 
    108 O         -7.4879  -22.9939  -56.2670 O.2       19 UNK        -0.5000 
    109 N         -6.6105  -21.7826  -54.5534 N.am      20 UNK        -0.5000 
    110 CA        -6.2662  -20.5311  -55.2285 C.3       20 UNK         0.1400 
    111 CB        -7.5274  -19.8186  -55.7592 C.3       20 UNK        -0.1800 
    112 C         -5.1833  -20.7440  -56.3026 C.2       20 UNK         0.5000 
    113 O         -5.3786  -20.3924  -57.4681 O.2       20 UNK        -0.5000 
    114 N         -4.0458  -21.3133  -55.8767 N.am      21 UNK        -0.5000 
    115 CA        -2.8780  -21.6465  -56.7029 C.3       21 UNK         0.1400 
    116 CB        -1.8138  -22.3061  -55.8114 C.3       21 UNK        -0.1800 
    117 C         -2.2657  -20.4633  -57.4845 C.2       21 UNK         0.5000 
    118 O         -1.6035  -20.6889  -58.4984 O.2       21 UNK        -0.5000 
    119 N         -2.5149  -19.2329  -57.0194 N.am      22 UNK        -0.5000 
    120 CA        -2.1902  -17.9816  -57.7227 C.3       22 UNK         0.1400 
    121 C         -3.0753  -17.6964  -58.9744 C.2       22 UNK         0.5000 
    122 N         -4.1862  -18.3914  -59.1918 N.am      22 UNK        -0.7600 
    123 O         -2.7406  -16.8250  -59.7724 O.2       22 UNK        -0.5000 
    124 C124       -2.2073  -16.7649  -56.7628 C.3       23 UNK        -0.0398 
    125 S125       -0.9614  -16.8947  -55.4375 S.3       23 UNK        -0.2404 
    126 C126       -2.0051  -17.2159  -53.9831 C.3       23 UNK        -0.0205 
    127 H127        4.4464  -15.6781  -48.3677 H         1 UNK         0.0600 
    128 H128        5.3644  -14.1999  -48.6693 H         1 UNK         0.0600 
    129 H129        4.2755  -14.8333  -49.9085 H         1 UNK         0.0600 
    130 H130        2.7281  -15.3465  -47.0573 H         1 UNK         0.3000 
    131 H131        1.0042  -14.6384  -45.9738 H         1 UNK         0.0600 
    132 H132       -0.6705  -13.0500  -47.0214 H         1 UNK         0.0800 
    133 H133        0.4288  -12.7959  -48.3483 H         1 UNK         0.0800 
    134 H134        1.2345  -14.7809  -49.9667 H         1 UNK         0.0800 
    135 H135       -0.2442  -14.0421  -50.5290 H         1 UNK         0.0800 
    136 H136       -1.3925  -15.1991  -52.2556 H         1 UNK         0.1150 
    137 H137       -0.7149  -19.3753  -52.9414 H         1 UNK         0.1150 
    138 H138        1.1120  -17.4315  -49.5839 H         1 UNK         0.1150 
    139 H139        1.7517  -19.6987  -50.1386 H         1 UNK         0.0800 
    140 H140        1.3711  -20.2992  -51.7300 H         1 UNK         0.0800 
    141 H141       -1.0947  -19.8437  -48.1911 H         1 UNK         0.0800 
    142 H142        0.6249  -20.1004  -48.1343 H         1 UNK         0.0800 
    143 H143        0.1067  -22.6430  -47.9333 H         1 UNK         0.0600 
    144 H144        0.2440  -20.6948  -45.8683 H         1 UNK         0.3000 
    145 H145        0.5947  -23.1137  -43.2130 H         1 UNK         0.0600 
    146 H146        2.8288  -22.7740  -44.2542 H         1 UNK         0.0600 
    147 H147        2.6128  -21.7111  -42.8718 H         1 UNK         0.0600 
    148 H148        2.4743  -21.0707  -44.5080 H         1 UNK         0.0600 
    149 H149        0.5283  -20.2896  -43.0883 H         1 UNK         0.3000 
    150 H150       -3.0366  -19.9202  -42.7533 H         1 UNK         0.0600 
    151 H151       -0.6835  -19.4930  -40.8365 H         1 UNK         0.0600 
    152 H152       -2.1212  -20.4469  -40.4926 H         1 UNK         0.0600 
    153 H153       -2.2589  -18.7115  -40.7349 H         1 UNK         0.0600 
    154 H154       -1.0243  -17.9508  -42.7904 H         1 UNK         0.3000 
    155 H155       -0.8922  -17.4191  -46.3483 H         1 UNK         0.0600 
    156 H156       -1.2365  -15.1179  -45.3591 H         1 UNK         0.0600 
    157 H157       -1.8920  -15.8547  -43.9029 H         1 UNK         0.0600 
    158 H158       -2.7155  -16.0554  -45.4380 H         1 UNK         0.0600 
    159 H159        0.6186  -16.4326  -44.0904 H         1 UNK         0.3000 
    160 H160        3.2794  -18.7613  -44.3024 H         1 UNK         0.0600 
    161 H161        3.3242  -15.8172  -45.1277 H         1 UNK         0.0600 
    162 H162        3.7564  -17.1485  -46.2060 H         1 UNK         0.0600 
    163 H163        4.7028  -16.8470  -44.7601 H         1 UNK         0.0600 
    164 H164        2.9133  -16.3193  -42.8331 H         1 UNK         0.3000 
    165 H165        1.0991  -17.7088  -40.1048 H         1 UNK         0.0600 
    166 H166        3.4810  -18.1229  -39.5792 H         1 UNK         0.0600 
    167 H167        3.9587  -16.6354  -40.3856 H         1 UNK         0.0600 
    168 H168        2.9833  -16.5719  -38.9188 H         1 UNK         0.0600 
    169 H169        2.0435  -15.0725  -40.8284 H         1 UNK         0.3000 
    170 H170       -0.2551  -14.0100  -42.8199 H         1 UNK         0.0600 
    171 H171       -1.8374  -12.6509  -41.4339 H         1 UNK         0.0600 
    172 H172       -1.6623  -13.8061  -40.1122 H         1 UNK         0.0600 
    173 H173       -2.3722  -14.3103  -41.6363 H         1 UNK         0.0600 
    174 H174        1.3210  -12.6726  -42.0954 H         1 UNK         0.3000 
    175 H175        2.0419  -10.8516  -39.9087 H         1 UNK         0.0600 
    176 H176        3.6257  -13.1338  -38.6126 H         1 UNK         0.0600 
    177 H177        2.6147  -11.9618  -37.7761 H         1 UNK         0.0600 
    178 H178        4.0844  -11.4318  -38.5737 H         1 UNK         0.0600 
    179 H179        3.5325  -10.9917  -41.5498 H         1 UNK         0.3000 
    180 H180        5.6795  -11.8907  -42.4304 H         1 UNK         0.0600 
    181 H181        5.1317  -14.6645  -43.6125 H         1 UNK         0.0600 
    182 H182        6.3326  -14.2960  -42.3816 H         1 UNK         0.0600 
    183 H183        6.5043  -13.6271  -43.9962 H         1 UNK         0.0600 
    184 H184        4.1325  -12.7471  -44.7275 H         1 UNK         0.3000 
    185 H185        2.0989   -9.9940  -45.0995 H         1 UNK         0.0600 
    186 H186        4.1652   -8.7807  -45.8248 H         1 UNK         0.0600 
    187 H187        4.7291  -10.2236  -46.6610 H         1 UNK         0.0600 
    188 H188        3.2706   -9.3954  -47.2055 H         1 UNK         0.0600 
    189 H189        2.9217  -11.8806  -47.0540 H         1 UNK         0.3000 
    190 H190       -2.4091  -21.2020  -45.8768 H         1 UNK         0.3000 
    191 H191       -4.6527  -22.4137  -47.2007 H         1 UNK         0.0600 
    192 H192       -4.8851  -20.4565  -45.6958 H         1 UNK         0.0600 
    193 H193       -5.8674  -21.7982  -45.1262 H         1 UNK         0.0600 
    194 H194       -4.3509  -21.4191  -44.3206 H         1 UNK         0.0600 
    195 H195       -2.6133  -23.4500  -44.4160 H         1 UNK         0.3000 
    196 H196       -3.9551  -25.8951  -43.8984 H         1 UNK         0.0600 
    197 H197       -1.8717  -26.4658  -42.6466 H         1 UNK         0.0600 
    198 H198       -2.4016  -24.8289  -42.2899 H         1 UNK         0.0600 
    199 H199       -1.0420  -25.0980  -43.3781 H         1 UNK         0.0600 
    200 H200       -1.2740  -25.1219  -46.1226 H         1 UNK         0.3000 
    201 H201       -0.8992  -27.7898  -47.1400 H         1 UNK         0.0600 
    202 H202        0.4417  -26.6038  -48.8731 H         1 UNK         0.0600 
    203 H203        0.8336  -25.9950  -47.2729 H         1 UNK         0.0600 
    204 H204       -0.2038  -25.0555  -48.3446 H         1 UNK         0.0600 
    205 H205       -3.4389  -25.5911  -47.5602 H         1 UNK         0.3000 
    206 H206       -5.2733  -25.4554  -48.7202 H         1 UNK         0.0600 
    207 H207       -5.4310  -27.9424  -48.4784 H         1 UNK         0.0600 
    208 H208       -6.2026  -27.3594  -49.9437 H         1 UNK         0.0600 
    209 H209       -4.6328  -28.1397  -50.0395 H         1 UNK         0.0600 
    210 H210       -2.4237  -24.8869  -50.0722 H         1 UNK         0.3000 
    211 H211       -3.0693  -24.6904  -52.8900 H         1 UNK         0.0600 
    212 H212       -0.7565  -24.9683  -52.3063 H         1 UNK         0.0600 
    213 H213       -0.9004  -23.3223  -52.9055 H         1 UNK         0.0600 
    214 H214       -0.7846  -23.6266  -51.1736 H         1 UNK         0.0600 
    215 H215       -3.2079  -22.4395  -50.1123 H         1 UNK         0.3000 
    216 H216       -4.0749  -20.1763  -51.7212 H         1 UNK         0.0600 
    217 H217       -4.2523  -20.6691  -48.7074 H         1 UNK         0.0600 
    218 H218       -4.6127  -19.1496  -49.5113 H         1 UNK         0.0600 
    219 H219       -2.9831  -19.7892  -49.5620 H         1 UNK         0.0600 
    220 H220       -5.6926  -22.8631  -50.0876 H         1 UNK         0.3000 
    221 H221       -8.3810  -21.8279  -50.2767 H         1 UNK         0.0600 
    222 H222       -7.4035  -24.7073  -49.8799 H         1 UNK         0.0600 
    223 H223       -7.7055  -23.5450  -48.5884 H         1 UNK         0.0600 
    224 H224       -9.0301  -24.1112  -49.5939 H         1 UNK         0.0600 
    225 H225       -6.4027  -24.0809  -52.2495 H         1 UNK         0.3000 
    226 H226       -8.3495  -24.4918  -54.3210 H         1 UNK         0.0600 
    227 H227       -6.4811  -26.0714  -53.8446 H         1 UNK         0.0600 
    228 H228       -6.3960  -25.5039  -55.5048 H         1 UNK         0.0600 
    229 H229       -5.3016  -24.8409  -54.2963 H         1 UNK         0.0600 
    230 H230       -6.3487  -21.8313  -53.5791 H         1 UNK         0.3000 
    231 H231       -5.8237  -19.8861  -54.4679 H         1 UNK         0.0600 
    232 H232       -8.0131  -20.3831  -56.5555 H         1 UNK         0.0600 
    233 H233       -7.2774  -18.8367  -56.1627 H         1 UNK         0.0600 
    234 H234       -8.2564  -19.6667  -54.9631 H         1 UNK         0.0600 
    235 H235       -3.9921  -21.6071  -54.9029 H         1 UNK         0.3000 
    236 H236       -3.2061  -22.3798  -57.4420 H         1 UNK         0.0600 
    237 H237       -1.4922  -21.6381  -55.0112 H         1 UNK         0.0600 
    238 H238       -2.1949  -23.2190  -55.3532 H         1 UNK         0.0600 
    239 H239       -0.9295  -22.5794  -56.3885 H         1 UNK         0.0600 
    240 H240       -3.0667  -19.1466  -56.1809 H         1 UNK         0.3000 
    241 H241       -1.1716  -18.0813  -58.1028 H         1 UNK         0.0600 
    242 H242       -4.4979  -19.1150  -58.5488 H         1 UNK         0.3800 
    243 H243       -4.7380  -18.1910  -60.0106 H         1 UNK         0.3800 
    244 H244       -1.9893  -15.8454  -57.3093 H         1 UNK         0.0800 
    245 H245       -3.2009  -16.6288  -56.3325 H         1 UNK         0.0800 
    246 H246       -2.7555  -16.4294  -53.8871 H         1 UNK         0.0800 
    247 H247       -2.5476  -18.1528  -54.1171 H         1 UNK         0.0800 
@<TRIPOS>BOND
     1    1    2 1    
     2    1  127 1    
     3    1  128 1    
     4    1  129 1    
     5    2    3 2    
     6    2    4 am   BACKBONE|DICT|INTERRES
     7    4    5 1    
     8    4  130 1    
     9    5    6 1    
    10    5   65 1    
    11    5  131 1    
    12    6    7 1    
    13    6  132 1    
    14    6  133 1    
    15    7    8 1    
    16    8    9 1    
    17    8  134 1    
    18    8  135 1    
    19    9   10 ar   
    20    9   14 ar   
    21   10   11 ar   
    22   10  136 1    
    23   11   12 ar   
    24   11  126 1    
    25   12   13 ar   
    26   12  137 1    
    27   13   14 ar   
    28   13   15 1    
    29   14  138 1    
    30   15   16 1    
    31   15  139 1    
    32   15  140 1    
    33   16   17 1    
    34   17   18 1    
    35   17  141 1    
    36   17  142 1    
    37   18   19 1    
    38   18   67 1    
    39   18  143 1    
    40   19   20 am   BACKBONE|DICT|INTERRES
    41   19  144 1    
    42   20   21 2    
    43   20   22 1    
    44   22   23 1    
    45   22   24 1    
    46   22  145 1    
    47   23  146 1    
    48   23  147 1    
    49   23  148 1    
    50   24   25 am   BACKBONE|DICT|INTERRES
    51   24  149 1    
    52   25   26 2    
    53   25   27 1    
    54   27   28 1    
    55   27   29 1    
    56   27  150 1    
    57   28  151 1    
    58   28  152 1    
    59   28  153 1    
    60   29   30 am   BACKBONE|DICT|INTERRES
    61   29  154 1    
    62   30   31 2    
    63   30   32 1    
    64   32   33 1    
    65   32   34 1    
    66   32  155 1    
    67   33  156 1    
    68   33  157 1    
    69   33  158 1    
    70   34   35 am   BACKBONE|DICT|INTERRES
    71   34  159 1    
    72   35   36 2    
    73   35   37 1    
    74   37   38 1    
    75   37   39 1    
    76   37  160 1    
    77   38  161 1    
    78   38  162 1    
    79   38  163 1    
    80   39   40 am   BACKBONE|DICT|INTERRES
    81   39  164 1    
    82   40   41 2    
    83   40   42 1    
    84   42   43 1    
    85   42   44 1    
    86   42  165 1    
    87   43  166 1    
    88   43  167 1    
    89   43  168 1    
    90   44   45 am   BACKBONE|DICT|INTERRES
    91   44  169 1    
    92   45   46 2    
    93   45   47 1    
    94   47   48 1    
    95   47   49 1    
    96   47  170 1    
    97   48  171 1    
    98   48  172 1    
    99   48  173 1    
   100   49   50 am   BACKBONE|DICT|INTERRES
   101   49  174 1    
   102   50   51 2    
   103   50   52 1    
   104   52   53 1    
   105   52   54 1    
   106   52  175 1    
   107   53  176 1    
   108   53  177 1    
   109   53  178 1    
   110   54   55 am   BACKBONE|DICT|INTERRES
   111   54  179 1    
   112   55   56 2    
   113   55   57 1    
   114   57   58 1    
   115   57   59 1    
   116   57  180 1    
   117   58  181 1    
   118   58  182 1    
   119   58  183 1    
   120   59   60 am   BACKBONE|DICT|INTERRES
   121   59  184 1    
   122   60   61 2    
   123   60   62 1    
   124   62   63 1    
   125   62   64 1    
   126   62  185 1    
   127   63  186 1    
   128   63  187 1    
   129   63  188 1    
   130   64   65 am   BACKBONE|DICT|INTERRES
   131   64  189 1    
   132   65   66 2    
   133   67   68 2    
   134   67   69 am   BACKBONE|DICT|INTERRES
   135   69   70 1    
   136   69  190 1    
   137   70   71 1    
   138   70   72 1    
   139   70  191 1    
   140   71  192 1    
   141   71  193 1    
   142   71  194 1    
   143   72   73 2    
   144   72   74 am   BACKBONE|DICT|INTERRES
   145   74   75 1    
   146   74  195 1    
   147   75   76 1    
   148   75   77 1    
   149   75  196 1    
   150   76  197 1    
   151   76  198 1    
   152   76  199 1    
   153   77   78 2    
   154   77   79 am   BACKBONE|DICT|INTERRES
   155   79   80 1    
   156   79  200 1    
   157   80   81 1    
   158   80   82 1    
   159   80  201 1    
   160   81  202 1    
   161   81  203 1    
   162   81  204 1    
   163   82   83 2    
   164   82   84 am   BACKBONE|DICT|INTERRES
   165   84   85 1    
   166   84  205 1    
   167   85   86 1    
   168   85   87 1    
   169   85  206 1    
   170   86  207 1    
   171   86  208 1    
   172   86  209 1    
   173   87   88 2    
   174   87   89 am   BACKBONE|DICT|INTERRES
   175   89   90 1    
   176   89  210 1    
   177   90   91 1    
   178   90   92 1    
   179   90  211 1    
   180   91  212 1    
   181   91  213 1    
   182   91  214 1    
   183   92   93 2    
   184   92   94 am   BACKBONE|DICT|INTERRES
   185   94   95 1    
   186   94  215 1    
   187   95   96 1    
   188   95   97 1    
   189   95  216 1    
   190   96  217 1    
   191   96  218 1    
   192   96  219 1    
   193   97   98 2    
   194   97   99 am   BACKBONE|DICT|INTERRES
   195   99  100 1    
   196   99  220 1    
   197  100  101 1    
   198  100  102 1    
   199  100  221 1    
   200  101  222 1    
   201  101  223 1    
   202  101  224 1    
   203  102  103 2    
   204  102  104 am   BACKBONE|DICT|INTERRES
   205  104  105 1    
   206  104  225 1    
   207  105  106 1    
   208  105  107 1    
   209  105  226 1    
   210  106  227 1    
   211  106  228 1    
   212  106  229 1    
   213  107  108 2    
   214  107  109 am   BACKBONE|DICT|INTERRES
   215  109  110 1    
   216  109  230 1    
   217  110  111 1    
   218  110  112 1    
   219  110  231 1    
   220  111  232 1    
   221  111  233 1    
   222  111  234 1    
   223  112  113 2    
   224  112  114 am   BACKBONE|DICT|INTERRES
   225  114  115 1    
   226  114  235 1    
   227  115  116 1    
   228  115  117 1    
   229  115  236 1    
   230  116  237 1    
   231  116  238 1    
   232  116  239 1    
   233  117  118 2    
   234  117  119 am   BACKBONE|DICT|INTERRES
   235  119  120 1    
   236  119  240 1    
   237  120  121 1    
   238  120  124 1    
   239  120  241 1    
   240  121  122 am   BACKBONE|DICT|INTERRES
   241  121  123 2    
   242  122  242 1    
   243  122  243 1    
   244  124  125 1    
   245  124  244 1    
   246  124  245 1    
   247  125  126 1    
   248  126  246 1    
   249  126  247 1    
@<TRIPOS>SUBSTRUCTURE
     1 UNK         1 GROUP             0       ****    0 ROOT    
