@<TRIPOS>MOLECULE
3R540
247   249    1
SMALL
USER_CHARGES


@<TRIPOS>ATOM
      1 CA          6.1092  -11.0083  -49.1520 C.3       0 UNK        -0.1800 
      2 C           4.9832  -11.9532  -48.7575 C.2       0 UNK         0.5000 
      3 O           4.2607  -11.6812  -47.7976 O.2       0 UNK        -0.5000 
      4 N           4.8261  -13.0597  -49.4938 N.am      1 UNK        -0.5000 
      5 CA          3.8032  -14.0889  -49.2776 C.3       1 UNK         0.1400 
      6 C6          4.2176  -15.4589  -49.8701 C.3       23 UNK        -0.0398 
      7 S7          5.7801  -16.1116  -49.1931 S.3       23 UNK        -0.2404 
      8 C8          6.2426  -17.2982  -50.4968 C.3       23 UNK        -0.0205 
      9 C9          5.3328  -18.5184  -50.4965 C.ar      23 UNK        -0.0193 
     10 C10         4.1330  -18.5072  -51.2145 C.ar      23 UNK        -0.1150 
     11 C11         3.2741  -19.6089  -51.1840 C.ar      23 UNK        -0.0193 
     12 C12         3.6411  -20.7436  -50.4543 C.ar      23 UNK        -0.1150 
     13 C13         4.8577  -20.7834  -49.7658 C.ar      23 UNK        -0.0193 
     14 C14         5.6944  -19.6641  -49.7827 C.ar      23 UNK        -0.1150 
     15 C15         5.2844  -22.0483  -49.0347 C.3       23 UNK        -0.0205 
     16 S16         5.3795  -21.8374  -47.2273 S.3       23 UNK        -0.2404 
     17 C17         3.6694  -21.3856  -46.7836 C.3       23 UNK        -0.0398 
     18 CA          2.7995  -22.5997  -46.3713 C.3       11 UNK         0.1400 
     19 N           1.7366  -22.2217  -45.4364 N.am      11 UNK        -0.5000 
     20 C           0.9764  -23.0855  -44.7477 C.2       10 UNK         0.5000 
     21 O           1.1400  -24.3052  -44.7631 O.2       10 UNK        -0.5000 
     22 CA         -0.1732  -22.4926  -43.9120 C.3       10 UNK         0.1400 
     23 CB          0.3227  -22.0965  -42.5134 C.3       10 UNK        -0.1800 
     24 N          -0.8030  -21.3368  -44.5500 N.am      10 UNK        -0.5000 
     25 C          -1.5141  -21.3865  -45.6843 C.2       9 UNK         0.5000 
     26 O          -1.7631  -22.4279  -46.2941 O.2       9 UNK        -0.5000 
     27 CA         -1.9832  -20.0401  -46.2646 C.3       9 UNK         0.1400 
     28 CB         -3.2339  -19.5258  -45.5410 C.3       9 UNK        -0.1800 
     29 N          -0.9466  -19.0087  -46.2356 N.am      9 UNK        -0.5000 
     30 C           0.2225  -19.0882  -46.8870 C.2       8 UNK         0.5000 
     31 O           0.5444  -20.0349  -47.6033 O.2       8 UNK        -0.5000 
     32 CA          1.2261  -17.9501  -46.6375 C.3       8 UNK         0.1400 
     33 CB          0.9014  -16.7270  -47.5085 C.3       8 UNK        -0.1800 
     34 N           1.2627  -17.5616  -45.2257 N.am      8 UNK        -0.5000 
     35 C           1.7266  -18.3473  -44.2419 C.2       7 UNK         0.5000 
     36 O           2.1957  -19.4685  -44.4275 O.2       7 UNK        -0.5000 
     37 CA          1.5987  -17.8148  -42.8040 C.3       7 UNK         0.1400 
     38 CB          2.7092  -16.7986  -42.4983 C.3       7 UNK        -0.1800 
     39 N           0.2955  -17.2038  -42.5479 N.am      7 UNK        -0.5000 
     40 C          -0.8756  -17.8564  -42.5840 C.2       6 UNK         0.5000 
     41 O          -0.9786  -19.0651  -42.7859 O.2       6 UNK        -0.5000 
     42 CA         -2.1476  -17.0051  -42.4129 C.3       6 UNK         0.1400 
     43 CB         -2.5622  -16.9453  -40.9355 C.3       6 UNK        -0.1800 
     44 N          -1.9933  -15.6431  -42.9303 N.am      6 UNK        -0.5000 
     45 C          -1.7832  -15.3425  -44.2184 C.2       5 UNK         0.5000 
     46 O          -1.7157  -16.1857  -45.1168 O.2       5 UNK        -0.5000 
     47 CA         -1.5282  -13.8605  -44.5331 C.3       5 UNK         0.1400 
     48 CB         -0.0317  -13.6200  -44.7896 C.3       5 UNK        -0.1800 
     49 N          -2.3020  -13.4274  -45.6932 N.am      5 UNK        -0.5000 
     50 C          -3.6103  -13.1319  -45.6511 C.2       4 UNK         0.5000 
     51 O          -4.2796  -13.1797  -44.6176 O.2       4 UNK        -0.5000 
     52 CA         -4.2958  -12.6784  -46.9576 C.3       4 UNK         0.1400 
     53 CB         -4.4976  -11.1548  -46.9551 C.3       4 UNK        -0.1800 
     54 N          -3.5574  -13.0479  -48.1632 N.am      4 UNK        -0.5000 
     55 C          -3.4709  -14.2901  -48.6553 C.2       3 UNK         0.5000 
     56 O          -4.0931  -15.2467  -48.1964 O.2       3 UNK        -0.5000 
     57 CA         -2.5161  -14.5036  -49.8495 C.3       3 UNK         0.1400 
     58 CB         -3.3066  -14.6549  -51.1586 C.3       3 UNK        -0.1800 
     59 N          -1.5018  -13.4557  -50.0208 N.am      3 UNK        -0.5000 
     60 C          -0.5391  -13.1830  -49.1309 C.2       2 UNK         0.5000 
     61 O          -0.4654  -13.7175  -48.0243 O.2       2 UNK        -0.5000 
     62 CA          0.5015  -12.1199  -49.5211 C.3       2 UNK         0.1400 
     63 CB          0.2468  -10.8113  -48.7579 C.3       2 UNK        -0.1800 
     64 N           1.8518  -12.5949  -49.2241 N.am      2 UNK        -0.5000 
     65 C           2.4403  -13.6276  -49.8388 C.2       1 UNK         0.5000 
     66 O           1.9540  -14.1904  -50.8208 O.2       1 UNK        -0.5000 
     67 C           2.2285  -23.3295  -47.6045 C.2       11 UNK         0.5000 
     68 O           2.7509  -24.3778  -47.9861 O.2       11 UNK        -0.5000 
     69 N           1.1598  -22.7691  -48.1906 N.am      12 UNK        -0.5000 
     70 CA          0.4370  -23.3330  -49.3294 C.3       12 UNK         0.1400 
     71 CB         -0.6109  -22.3242  -49.8198 C.3       12 UNK        -0.1800 
     72 C          -0.2225  -24.6821  -48.9982 C.2       12 UNK         0.5000 
     73 O          -0.0453  -25.6407  -49.7511 O.2       12 UNK        -0.5000 
     74 N          -0.9550  -24.7241  -47.8742 N.am      13 UNK        -0.5000 
     75 CA         -1.6315  -25.8660  -47.2439 C.3       13 UNK         0.1400 
     76 CB         -0.6172  -26.9398  -46.8099 C.3       13 UNK        -0.1800 
     77 C          -2.7773  -26.4913  -48.0653 C.2       13 UNK         0.5000 
     78 O          -3.8608  -26.7031  -47.5227 O.2       13 UNK        -0.5000 
     79 N          -2.5355  -26.7677  -49.3518 N.am      14 UNK        -0.5000 
     80 CA         -3.4824  -27.3750  -50.2897 C.3       14 UNK         0.1400 
     81 CB         -2.7323  -27.7726  -51.5694 C.3       14 UNK        -0.1800 
     82 C          -4.6762  -26.4628  -50.6259 C.2       14 UNK         0.5000 
     83 O          -5.7669  -26.9624  -50.9051 O.2       14 UNK        -0.5000 
     84 N          -4.4652  -25.1417  -50.5562 N.am      15 UNK        -0.5000 
     85 CA         -5.4696  -24.0967  -50.7605 C.3       15 UNK         0.1400 
     86 CB         -4.7420  -22.8070  -51.1711 C.3       15 UNK        -0.1800 
     87 C          -6.3517  -23.9127  -49.5068 C.2       15 UNK         0.5000 
     88 O          -6.3927  -22.8259  -48.9212 O.2       15 UNK        -0.5000 
     89 N          -6.9842  -25.0132  -49.0728 N.am      16 UNK        -0.5000 
     90 CA         -7.8628  -25.1700  -47.9026 C.3       16 UNK         0.1400 
     91 CB         -9.1584  -24.3589  -48.1118 C.3       16 UNK        -0.1800 
     92 C          -7.2056  -24.8356  -46.5429 C.2       16 UNK         0.5000 
     93 O          -7.9094  -24.7525  -45.5355 O.2       16 UNK        -0.5000 
     94 N          -5.8839  -24.6045  -46.5491 N.am      17 UNK        -0.5000 
     95 CA         -5.0657  -24.0003  -45.4944 C.3       17 UNK         0.1400 
     96 CB         -4.8822  -24.9814  -44.3197 C.3       17 UNK        -0.1800 
     97 C          -5.5872  -22.6128  -45.0531 C.2       17 UNK         0.5000 
     98 O          -5.4157  -22.2379  -43.8919 O.2       17 UNK        -0.5000 
     99 N          -6.2318  -21.8823  -45.9776 N.am      18 UNK        -0.5000 
    100 CA        -6.9447  -20.6383  -45.6820 C.3       18 UNK         0.1400 
    101 CB        -8.3586  -20.9615  -45.1667 C.3       18 UNK        -0.1800 
    102 C         -7.0149  -19.6766  -46.8777 C.2       18 UNK         0.5000 
    103 O         -6.9564  -18.4656  -46.6645 O.2       18 UNK        -0.5000 
    104 N         -7.1527  -20.2025  -48.1039 N.am      19 UNK        -0.5000 
    105 CA        -7.2771  -19.3913  -49.3190 C.3       19 UNK         0.1400 
    106 CB        -8.0397  -20.1887  -50.3886 C.3       19 UNK        -0.1800 
    107 C         -5.9138  -18.9230  -49.8569 C.2       19 UNK         0.5000 
    108 O         -5.8433  -17.8625  -50.4797 O.2       19 UNK        -0.5000 
    109 N         -4.8668  -19.7232  -49.6032 N.am      20 UNK        -0.5000 
    110 CA        -3.4554  -19.5416  -49.9655 C.3       20 UNK         0.1400 
    111 CB        -2.8766  -18.2675  -49.3226 C.3       20 UNK        -0.1800 
    112 C         -3.1787  -19.5678  -51.4807 C.2       20 UNK         0.5000 
    113 O         -2.4125  -20.4129  -51.9394 O.2       20 UNK        -0.5000 
    114 N         -3.7953  -18.6340  -52.2183 N.am      21 UNK        -0.5000 
    115 CA        -3.6451  -18.3779  -53.6564 C.3       21 UNK         0.1400 
    116 CB        -4.1750  -19.5697  -54.4808 C.3       21 UNK        -0.1800 
    117 C         -2.2155  -17.9527  -54.0676 C.2       21 UNK         0.5000 
    118 O         -1.8395  -18.1068  -55.2308 O.2       21 UNK        -0.5000 
    119 N         -1.4480  -17.4147  -53.1102 N.am      22 UNK        -0.5000 
    120 CA        -0.0415  -17.0080  -53.2738 C.3       22 UNK         0.1400 
    121 C          0.1688  -15.6506  -54.0084 C.2       22 UNK         0.5000 
    122 N         -0.8723  -14.8866  -54.3171 N.am      22 UNK        -0.7600 
    123 O          1.2995  -15.2933  -54.3261 O.2       22 UNK        -0.5000 
    124 C124        0.7287  -17.0386  -51.9262 C.3       23 UNK        -0.0398 
    125 S125        0.6600  -18.6640  -51.0970 S.3       23 UNK        -0.2404 
    126 C126        1.9672  -19.5900  -51.9633 C.3       23 UNK        -0.0205 
    127 H127        6.8057  -10.8882  -48.3223 H         1 UNK         0.0600 
    128 H128        5.7049  -10.0280  -49.4041 H         1 UNK         0.0600 
    129 H129        6.6665  -11.3785  -50.0129 H         1 UNK         0.0600 
    130 H130        5.4443  -13.2223  -50.2757 H         1 UNK         0.3000 
    131 H131        3.6732  -14.2289  -48.2021 H         1 UNK         0.0600 
    132 H132        4.3129  -15.3840  -50.9548 H         1 UNK         0.0800 
    133 H133        3.4394  -16.1999  -49.6763 H         1 UNK         0.0800 
    134 H134        6.2216  -16.8088  -51.4717 H         1 UNK         0.0800 
    135 H135        7.2769  -17.6070  -50.3375 H         1 UNK         0.0800 
    136 H136        3.8628  -17.6346  -51.7897 H         1 UNK         0.1150 
    137 H137        2.9859  -21.6032  -50.4374 H         1 UNK         0.1150 
    138 H138        6.6289  -19.6876  -49.2396 H         1 UNK         0.1150 
    139 H139        4.6172  -22.8773  -49.2712 H         1 UNK         0.0800 
    140 H140        6.2683  -22.3466  -49.3992 H         1 UNK         0.0800 
    141 H141        3.2013  -20.7914  -47.5696 H         1 UNK         0.0800 
    142 H142        3.7745  -20.7085  -45.9377 H         1 UNK         0.0800 
    143 H143        3.4370  -23.3084  -45.8378 H         1 UNK         0.0600 
    144 H144        1.5772  -21.2282  -45.3106 H         1 UNK         0.3000 
    145 H145       -0.9337  -23.2680  -43.7972 H         1 UNK         0.0600 
    146 H146        0.7854  -22.9444  -42.0069 H         1 UNK         0.0600 
    147 H147        1.0625  -21.2966  -42.5609 H         1 UNK         0.0600 
    148 H148       -0.5005  -21.7527  -41.8869 H         1 UNK         0.0600 
    149 H149       -0.6974  -20.4442  -44.0748 H         1 UNK         0.3000 
    150 H150       -2.2410  -20.2167  -47.3082 H         1 UNK         0.0600 
    151 H151       -3.5523  -18.5561  -45.9242 H         1 UNK         0.0600 
    152 H152       -3.0715  -19.4252  -44.4684 H         1 UNK         0.0600 
    153 H153       -4.0613  -20.2158  -45.6816 H         1 UNK         0.0600 
    154 H154       -1.1397  -18.1778  -45.6875 H         1 UNK         0.3000 
    155 H155        2.2183  -18.3108  -46.9176 H         1 UNK         0.0600 
    156 H156        0.9352  -16.9826  -48.5678 H         1 UNK         0.0600 
    157 H157        1.6177  -15.9215  -47.3474 H         1 UNK         0.0600 
    158 H158       -0.0949  -16.3353  -47.3007 H         1 UNK         0.0600 
    159 H159        0.8362  -16.6792  -44.9867 H         1 UNK         0.3000 
    160 H160        1.7127  -18.6617  -42.1238 H         1 UNK         0.0600 
    161 H161        3.6943  -17.2345  -42.6706 H         1 UNK         0.0600 
    162 H162        2.6747  -16.4788  -41.4567 H         1 UNK         0.0600 
    163 H163        2.6292  -15.9098  -43.1255 H         1 UNK         0.0600 
    164 H164        0.2846  -16.2118  -42.3652 H         1 UNK         0.3000 
    165 H165       -2.9493  -17.4890  -42.9741 H         1 UNK         0.0600 
    166 H166       -3.5027  -16.4082  -40.8110 H         1 UNK         0.0600 
    167 H167       -2.7062  -17.9480  -40.5305 H         1 UNK         0.0600 
    168 H168       -1.8074  -16.4494  -40.3239 H         1 UNK         0.0600 
    169 H169       -2.0362  -14.8965  -42.2514 H         1 UNK         0.3000 
    170 H170       -1.8220  -13.2529  -43.6743 H         1 UNK         0.0600 
    171 H171        0.1615  -12.5826  -45.0630 H         1 UNK         0.0600 
    172 H172        0.5566  -13.8367  -43.8973 H         1 UNK         0.0600 
    173 H173        0.3496  -14.2525  -45.5917 H         1 UNK         0.0600 
    174 H174       -1.8163  -13.4445  -46.5844 H         1 UNK         0.3000 
    175 H175       -5.2786  -13.1531  -46.9944 H         1 UNK         0.0600 
    176 H176       -3.5455  -10.6230  -46.9279 H         1 UNK         0.0600 
    177 H177       -5.0415  -10.8268  -47.8412 H         1 UNK         0.0600 
    178 H178       -5.0753  -10.8379  -46.0858 H         1 UNK         0.0600 
    179 H179       -3.0148  -12.3214  -48.6054 H         1 UNK         0.3000 
    180 H180       -1.9797  -15.4357  -49.6629 H         1 UNK         0.0600 
    181 H181       -2.6505  -14.9216  -51.9857 H         1 UNK         0.0600 
    182 H182       -3.8234  -13.7316  -51.4228 H         1 UNK         0.0600 
    183 H183       -4.0610  -15.4388  -51.0767 H         1 UNK         0.0600 
    184 H184       -1.5070  -12.9658  -50.9039 H         1 UNK         0.3000 
    185 H185        0.4325  -11.9211  -50.5926 H         1 UNK         0.0600 
    186 H186        0.3142  -10.9552  -47.6784 H         1 UNK         0.0600 
    187 H187        0.9686  -10.0442  -49.0390 H         1 UNK         0.0600 
    188 H188       -0.7470  -10.4183  -48.9756 H         1 UNK         0.0600 
    189 H189        2.3359  -12.1646  -48.4443 H         1 UNK         0.3000 
    190 H190        0.8282  -21.8707  -47.8458 H         1 UNK         0.3000 
    191 H191        1.1560  -23.4977  -50.1344 H         1 UNK         0.0600 
    192 H192       -1.3389  -22.0918  -49.0429 H         1 UNK         0.0600 
    193 H193       -1.1576  -22.7099  -50.6812 H         1 UNK         0.0600 
    194 H194       -0.1433  -21.3888  -50.1254 H         1 UNK         0.0600 
    195 H195       -1.0637  -23.8516  -47.3618 H         1 UNK         0.3000 
    196 H196       -2.0843  -25.4649  -46.3357 H         1 UNK         0.0600 
    197 H197       -1.1099  -27.7396  -46.2557 H         1 UNK         0.0600 
    198 H198        0.1478  -26.5168  -46.1588 H         1 UNK         0.0600 
    199 H199       -0.1141  -27.3959  -47.6629 H         1 UNK         0.0600 
    200 H200       -1.6093  -26.5377  -49.7075 H         1 UNK         0.3000 
    201 H201       -3.8801  -28.2812  -49.8283 H         1 UNK         0.0600 
    202 H202       -1.9333  -28.4820  -51.3532 H         1 UNK         0.0600 
    203 H203       -2.2870  -26.9059  -52.0599 H         1 UNK         0.0600 
    204 H204       -3.4037  -28.2482  -52.2856 H         1 UNK         0.0600 
    205 H205       -3.5417  -24.8309  -50.2951 H         1 UNK         0.3000 
    206 H206       -6.1275  -24.3871  -51.5822 H         1 UNK         0.0600 
    207 H207       -5.4467  -22.0009  -51.3734 H         1 UNK         0.0600 
    208 H208       -4.0594  -22.4695  -50.3912 H         1 UNK         0.0600 
    209 H209       -4.1583  -22.9550  -52.0799 H         1 UNK         0.0600 
    210 H210       -6.8270  -25.8600  -49.6112 H         1 UNK         0.3000 
    211 H211       -8.1298  -26.2267  -47.8596 H         1 UNK         0.0600 
    212 H212       -8.9699  -23.2848  -48.1035 H         1 UNK         0.0600 
    213 H213       -9.8858  -24.5679  -47.3266 H         1 UNK         0.0600 
    214 H214       -9.6308  -24.6086  -49.0618 H         1 UNK         0.0600 
    215 H215       -5.4047  -24.7673  -47.4230 H         1 UNK         0.3000 
    216 H216       -4.0836  -23.8265  -45.9350 H         1 UNK         0.0600 
    217 H217       -4.1643  -24.5954  -43.5951 H         1 UNK         0.0600 
    218 H218       -4.5048  -25.9431  -44.6676 H         1 UNK         0.0600 
    219 H219       -5.8196  -25.1591  -43.7919 H         1 UNK         0.0600 
    220 H220       -6.3054  -22.2488  -46.9196 H         1 UNK         0.3000 
    221 H221       -6.4114  -20.1030  -44.8932 H         1 UNK         0.0600 
    222 H222       -8.9272  -21.5398  -45.8961 H         1 UNK         0.0600 
    223 H223       -8.3207  -21.5379  -44.2422 H         1 UNK         0.0600 
    224 H224       -8.9194  -20.0497  -44.9572 H         1 UNK         0.0600 
    225 H225       -7.1581  -21.2079  -48.2403 H         1 UNK         0.3000 
    226 H226       -7.8644  -18.4984  -49.0935 H         1 UNK         0.0600 
    227 H227       -9.0329  -20.4674  -50.0365 H         1 UNK         0.0600 
    228 H228       -8.1707  -19.5976  -51.2959 H         1 UNK         0.0600 
    229 H229       -7.5169  -21.1027  -50.6669 H         1 UNK         0.0600 
    230 H230       -5.0761  -20.5831  -49.1159 H         1 UNK         0.3000 
    231 H231       -2.9299  -20.3936  -49.5357 H         1 UNK         0.0600 
    232 H232       -3.2823  -17.3694  -49.7829 H         1 UNK         0.0600 
    233 H233       -3.1069  -18.2113  -48.2603 H         1 UNK         0.0600 
    234 H234       -1.7920  -18.2318  -49.4246 H         1 UNK         0.0600 
    235 H235       -4.4675  -18.0471  -51.7287 H         1 UNK         0.3000 
    236 H236       -4.2840  -17.5210  -53.8740 H         1 UNK         0.0600 
    237 H237       -3.5396  -20.4495  -54.3761 H         1 UNK         0.0600 
    238 H238       -5.1831  -19.8457  -54.1713 H         1 UNK         0.0600 
    239 H239       -4.2189  -19.3238  -55.5423 H         1 UNK         0.0600 
    240 H240       -1.8257  -17.3484  -52.1785 H         1 UNK         0.3000 
    241 H241        0.4278  -17.7496  -53.9225 H         1 UNK         0.0600 
    242 H242       -0.7194  -14.0180  -54.8048 H         1 UNK         0.3800 
    243 H243       -1.8094  -15.1840  -54.1037 H         1 UNK         0.3800 
    244 H244        1.7728  -16.7587  -52.0668 H         1 UNK         0.0800 
    245 H245        0.3107  -16.2984  -51.2420 H         1 UNK         0.0800 
    246 H246        2.1347  -19.1759  -52.9580 H         1 UNK         0.0800 
    247 H247        1.6122  -20.6096  -52.1207 H         1 UNK         0.0800 
@<TRIPOS>BOND
     1    1    2 1    
     2    1  127 1    
     3    1  128 1    
     4    1  129 1    
     5    2    3 2    
     6    2    4 am   BACKBONE|DICT|INTERRES
     7    4    5 1    
     8    4  130 1    
     9    5    6 1    
    10    5   65 1    
    11    5  131 1    
    12    6    7 1    
    13    6  132 1    
    14    6  133 1    
    15    7    8 1    
    16    8    9 1    
    17    8  134 1    
    18    8  135 1    
    19    9   10 ar   
    20    9   14 ar   
    21   10   11 ar   
    22   10  136 1    
    23   11   12 ar   
    24   11  126 1    
    25   12   13 ar   
    26   12  137 1    
    27   13   14 ar   
    28   13   15 1    
    29   14  138 1    
    30   15   16 1    
    31   15  139 1    
    32   15  140 1    
    33   16   17 1    
    34   17   18 1    
    35   17  141 1    
    36   17  142 1    
    37   18   19 1    
    38   18   67 1    
    39   18  143 1    
    40   19   20 am   BACKBONE|DICT|INTERRES
    41   19  144 1    
    42   20   21 2    
    43   20   22 1    
    44   22   23 1    
    45   22   24 1    
    46   22  145 1    
    47   23  146 1    
    48   23  147 1    
    49   23  148 1    
    50   24   25 am   BACKBONE|DICT|INTERRES
    51   24  149 1    
    52   25   26 2    
    53   25   27 1    
    54   27   28 1    
    55   27   29 1    
    56   27  150 1    
    57   28  151 1    
    58   28  152 1    
    59   28  153 1    
    60   29   30 am   BACKBONE|DICT|INTERRES
    61   29  154 1    
    62   30   31 2    
    63   30   32 1    
    64   32   33 1    
    65   32   34 1    
    66   32  155 1    
    67   33  156 1    
    68   33  157 1    
    69   33  158 1    
    70   34   35 am   BACKBONE|DICT|INTERRES
    71   34  159 1    
    72   35   36 2    
    73   35   37 1    
    74   37   38 1    
    75   37   39 1    
    76   37  160 1    
    77   38  161 1    
    78   38  162 1    
    79   38  163 1    
    80   39   40 am   BACKBONE|DICT|INTERRES
    81   39  164 1    
    82   40   41 2    
    83   40   42 1    
    84   42   43 1    
    85   42   44 1    
    86   42  165 1    
    87   43  166 1    
    88   43  167 1    
    89   43  168 1    
    90   44   45 am   BACKBONE|DICT|INTERRES
    91   44  169 1    
    92   45   46 2    
    93   45   47 1    
    94   47   48 1    
    95   47   49 1    
    96   47  170 1    
    97   48  171 1    
    98   48  172 1    
    99   48  173 1    
   100   49   50 am   BACKBONE|DICT|INTERRES
   101   49  174 1    
   102   50   51 2    
   103   50   52 1    
   104   52   53 1    
   105   52   54 1    
   106   52  175 1    
   107   53  176 1    
   108   53  177 1    
   109   53  178 1    
   110   54   55 am   BACKBONE|DICT|INTERRES
   111   54  179 1    
   112   55   56 2    
   113   55   57 1    
   114   57   58 1    
   115   57   59 1    
   116   57  180 1    
   117   58  181 1    
   118   58  182 1    
   119   58  183 1    
   120   59   60 am   BACKBONE|DICT|INTERRES
   121   59  184 1    
   122   60   61 2    
   123   60   62 1    
   124   62   63 1    
   125   62   64 1    
   126   62  185 1    
   127   63  186 1    
   128   63  187 1    
   129   63  188 1    
   130   64   65 am   BACKBONE|DICT|INTERRES
   131   64  189 1    
   132   65   66 2    
   133   67   68 2    
   134   67   69 am   BACKBONE|DICT|INTERRES
   135   69   70 1    
   136   69  190 1    
   137   70   71 1    
   138   70   72 1    
   139   70  191 1    
   140   71  192 1    
   141   71  193 1    
   142   71  194 1    
   143   72   73 2    
   144   72   74 am   BACKBONE|DICT|INTERRES
   145   74   75 1    
   146   74  195 1    
   147   75   76 1    
   148   75   77 1    
   149   75  196 1    
   150   76  197 1    
   151   76  198 1    
   152   76  199 1    
   153   77   78 2    
   154   77   79 am   BACKBONE|DICT|INTERRES
   155   79   80 1    
   156   79  200 1    
   157   80   81 1    
   158   80   82 1    
   159   80  201 1    
   160   81  202 1    
   161   81  203 1    
   162   81  204 1    
   163   82   83 2    
   164   82   84 am   BACKBONE|DICT|INTERRES
   165   84   85 1    
   166   84  205 1    
   167   85   86 1    
   168   85   87 1    
   169   85  206 1    
   170   86  207 1    
   171   86  208 1    
   172   86  209 1    
   173   87   88 2    
   174   87   89 am   BACKBONE|DICT|INTERRES
   175   89   90 1    
   176   89  210 1    
   177   90   91 1    
   178   90   92 1    
   179   90  211 1    
   180   91  212 1    
   181   91  213 1    
   182   91  214 1    
   183   92   93 2    
   184   92   94 am   BACKBONE|DICT|INTERRES
   185   94   95 1    
   186   94  215 1    
   187   95   96 1    
   188   95   97 1    
   189   95  216 1    
   190   96  217 1    
   191   96  218 1    
   192   96  219 1    
   193   97   98 2    
   194   97   99 am   BACKBONE|DICT|INTERRES
   195   99  100 1    
   196   99  220 1    
   197  100  101 1    
   198  100  102 1    
   199  100  221 1    
   200  101  222 1    
   201  101  223 1    
   202  101  224 1    
   203  102  103 2    
   204  102  104 am   BACKBONE|DICT|INTERRES
   205  104  105 1    
   206  104  225 1    
   207  105  106 1    
   208  105  107 1    
   209  105  226 1    
   210  106  227 1    
   211  106  228 1    
   212  106  229 1    
   213  107  108 2    
   214  107  109 am   BACKBONE|DICT|INTERRES
   215  109  110 1    
   216  109  230 1    
   217  110  111 1    
   218  110  112 1    
   219  110  231 1    
   220  111  232 1    
   221  111  233 1    
   222  111  234 1    
   223  112  113 2    
   224  112  114 am   BACKBONE|DICT|INTERRES
   225  114  115 1    
   226  114  235 1    
   227  115  116 1    
   228  115  117 1    
   229  115  236 1    
   230  116  237 1    
   231  116  238 1    
   232  116  239 1    
   233  117  118 2    
   234  117  119 am   BACKBONE|DICT|INTERRES
   235  119  120 1    
   236  119  240 1    
   237  120  121 1    
   238  120  124 1    
   239  120  241 1    
   240  121  122 am   BACKBONE|DICT|INTERRES
   241  121  123 2    
   242  122  242 1    
   243  122  243 1    
   244  124  125 1    
   245  124  244 1    
   246  124  245 1    
   247  125  126 1    
   248  126  246 1    
   249  126  247 1    
@<TRIPOS>SUBSTRUCTURE
     1 UNK         1 GROUP             0       ****    0 ROOT    
