@<TRIPOS>MOLECULE
3R540
247   249    1
SMALL
USER_CHARGES


@<TRIPOS>ATOM
      1 CA          2.3086   -9.5310  -50.4592 C.3       0 UNK        -0.1800 
      2 C           2.7995   -9.9200  -49.0724 C.2       0 UNK         0.5000 
      3 O           2.4937   -9.2322  -48.0980 O.2       0 UNK        -0.5000 
      4 N           3.5481  -11.0275  -48.9763 N.am      1 UNK        -0.5000 
      5 CA          4.1168  -11.5682  -47.7332 C.3       1 UNK         0.1400 
      6 C6          5.1184  -12.7266  -47.9862 C.3       23 UNK        -0.0398 
      7 S7          4.4955  -14.0378  -49.0978 S.3       23 UNK        -0.2404 
      8 C8          3.9524  -15.3101  -47.9135 C.3       23 UNK        -0.0205 
      9 C9          3.1388  -16.3904  -48.6087 C.ar      23 UNK        -0.0193 
     10 C10         1.8857  -16.0756  -49.1412 C.ar      23 UNK        -0.1150 
     11 C11         1.1122  -17.0516  -49.7723 C.ar      23 UNK        -0.0193 
     12 C12         1.6104  -18.3520  -49.8822 C.ar      23 UNK        -0.1150 
     13 C13         2.8616  -18.6843  -49.3534 C.ar      23 UNK        -0.0193 
     14 C14         3.6209  -17.6989  -48.7132 C.ar      23 UNK        -0.1150 
     15 C15         3.3965  -20.1032  -49.4887 C.3       23 UNK        -0.0205 
     16 S16         2.8330  -21.1844  -48.1356 S.3       23 UNK        -0.2404 
     17 C17         1.0568  -21.3326  -48.5189 C.3       23 UNK        -0.0398 
     18 CA          0.3836  -22.5453  -47.8394 C.3       11 UNK         0.1400 
     19 N           0.4023  -22.4656  -46.3760 N.am      11 UNK        -0.5000 
     20 C          -0.0195  -23.4344  -45.5502 C.2       10 UNK         0.5000 
     21 O          -0.4024  -24.5404  -45.9303 O.2       10 UNK        -0.5000 
     22 CA         -0.0929  -23.0855  -44.0539 C.3       10 UNK         0.1400 
     23 CB          1.2743  -23.2474  -43.3722 C.3       10 UNK        -0.1800 
     24 N          -0.6055  -21.7312  -43.8426 N.am      10 UNK        -0.5000 
     25 C          -1.8724  -21.3635  -44.0828 C.2       9 UNK         0.5000 
     26 O          -2.7511  -22.1464  -44.4435 O.2       9 UNK        -0.5000 
     27 CA         -2.2036  -19.8673  -43.9379 C.3       9 UNK         0.1400 
     28 CB         -2.5562  -19.5277  -42.4826 C.3       9 UNK        -0.1800 
     29 N          -1.1083  -19.0097  -44.3931 N.am      9 UNK        -0.5000 
     30 C          -0.7618  -18.8577  -45.6810 C.2       8 UNK         0.5000 
     31 O          -1.3578  -19.3982  -46.6120 O.2       8 UNK        -0.5000 
     32 CA          0.4868  -18.0036  -45.9810 C.3       8 UNK         0.1400 
     33 CB          0.0983  -16.5301  -46.1563 C.3       8 UNK        -0.1800 
     34 N           1.5240  -18.1024  -44.9539 N.am      8 UNK        -0.5000 
     35 C           2.1126  -19.2433  -44.5666 C.2       7 UNK         0.5000 
     36 O           1.8708  -20.3368  -45.0726 O.2       7 UNK        -0.5000 
     37 CA          3.0826  -19.1720  -43.3726 C.3       7 UNK         0.1400 
     38 CB          4.5312  -19.0816  -43.8748 C.3       7 UNK        -0.1800 
     39 N           2.8264  -18.0599  -42.4538 N.am      7 UNK        -0.5000 
     40 C           1.6744  -17.7982  -41.8158 C.2       6 UNK         0.5000 
     41 O           0.6663  -18.4988  -41.9122 O.2       6 UNK        -0.5000 
     42 CA          1.6303  -16.5158  -40.9597 C.3       6 UNK         0.1400 
     43 CB          1.7535  -16.8612  -39.4682 C.3       6 UNK        -0.1800 
     44 N           2.6752  -15.5496  -41.3153 N.am      6 UNK        -0.5000 
     45 C           2.7194  -14.8621  -42.4639 C.2       5 UNK         0.5000 
     46 O           1.8502  -14.9233  -43.3361 O.2       5 UNK        -0.5000 
     47 CA          3.9802  -14.0185  -42.7012 C.3       5 UNK         0.1400 
     48 CB          4.7244  -14.4979  -43.9590 C.3       5 UNK        -0.1800 
     49 N           3.6429  -12.6074  -42.8479 N.am      5 UNK        -0.5000 
     50 C           3.4147  -11.7723  -41.8268 C.2       4 UNK         0.5000 
     51 O           3.4363  -12.1235  -40.6462 O.2       4 UNK        -0.5000 
     52 CA          3.1361  -10.2995  -42.1665 C.3       4 UNK         0.1400 
     53 CB          4.4481   -9.5568  -42.4675 C.3       4 UNK        -0.1800 
     54 N           2.2317  -10.1553  -43.3077 N.am      4 UNK        -0.5000 
     55 C           1.1249   -9.3977  -43.3120 C.2       3 UNK         0.5000 
     56 O           0.7372   -8.7506  -42.3378 O.2       3 UNK        -0.5000 
     57 CA          0.3074   -9.3266  -44.6197 C.3       3 UNK         0.1400 
     58 CB          0.5861   -8.0060  -45.3538 C.3       3 UNK        -0.1800 
     59 N           0.5702  -10.4355  -45.5354 N.am      3 UNK        -0.5000 
     60 C           0.2045  -11.7069  -45.3215 C.2       2 UNK         0.5000 
     61 O          -0.4888  -12.0614  -44.3679 O.2       2 UNK        -0.5000 
     62 CA          0.7056  -12.7643  -46.3270 C.3       2 UNK         0.1400 
     63 CB         -0.4410  -13.1900  -47.2579 C.3       2 UNK        -0.1800 
     64 N           1.8501  -12.3471  -47.1466 N.am      2 UNK        -0.5000 
     65 C           3.0524  -11.9644  -46.6893 C.2       1 UNK         0.5000 
     66 O           3.3287  -11.8780  -45.4934 O.2       1 UNK        -0.5000 
     67 C          -1.0498  -22.7250  -48.3784 C.2       11 UNK         0.5000 
     68 O          -1.2648  -23.5858  -49.2295 O.2       11 UNK        -0.5000 
     69 N          -2.0089  -21.9464  -47.8530 N.am      12 UNK        -0.5000 
     70 CA         -3.4316  -22.0545  -48.1801 C.3       12 UNK         0.1400 
     71 CB         -4.2168  -20.9221  -47.5021 C.3       12 UNK        -0.1800 
     72 C          -4.0254  -23.4241  -47.8098 C.2       12 UNK         0.5000 
     73 O          -4.7458  -24.0037  -48.6224 O.2       12 UNK        -0.5000 
     74 N          -3.6879  -23.9321  -46.6162 N.am      13 UNK        -0.5000 
     75 CA         -4.0828  -25.2581  -46.1385 C.3       13 UNK         0.1400 
     76 CB         -3.6755  -25.4240  -44.6671 C.3       13 UNK        -0.1800 
     77 C          -3.5084  -26.3949  -47.0039 C.2       13 UNK         0.5000 
     78 O          -4.2521  -27.3015  -47.3815 O.2       13 UNK        -0.5000 
     79 N          -2.2153  -26.2998  -47.3478 N.am      14 UNK        -0.5000 
     80 CA         -1.5185  -27.2211  -48.2510 C.3       14 UNK         0.1400 
     81 CB         -0.0187  -26.8902  -48.2639 C.3       14 UNK        -0.1800 
     82 C          -2.0915  -27.2095  -49.6817 C.2       14 UNK         0.5000 
     83 O          -2.1497  -28.2579  -50.3241 O.2       14 UNK        -0.5000 
     84 N          -2.5559  -26.0364  -50.1290 N.am      15 UNK        -0.5000 
     85 CA         -3.2600  -25.8119  -51.3908 C.3       15 UNK         0.1400 
     86 CB         -3.0128  -24.3634  -51.8467 C.3       15 UNK        -0.1800 
     87 C          -4.7690  -26.1359  -51.3197 C.2       15 UNK         0.5000 
     88 O          -5.5193  -25.6510  -52.1649 O.2       15 UNK        -0.5000 
     89 N          -5.1988  -26.9346  -50.3304 N.am      16 UNK        -0.5000 
     90 CA         -6.5588  -27.4501  -50.1357 C.3       16 UNK         0.1400 
     91 CB         -6.9215  -28.4479  -51.2561 C.3       16 UNK        -0.1800 
     92 C          -7.6051  -26.3307  -49.9617 C.2       16 UNK         0.5000 
     93 O          -8.6310  -26.3248  -50.6443 O.2       16 UNK        -0.5000 
     94 N          -7.2999  -25.3983  -49.0492 N.am      17 UNK        -0.5000 
     95 CA         -8.0422  -24.1701  -48.7500 C.3       17 UNK         0.1400 
     96 CB         -9.4775  -24.4659  -48.2644 C.3       17 UNK        -0.1800 
     97 C          -7.9719  -23.1676  -49.9188 C.2       17 UNK         0.5000 
     98 O          -8.9935  -22.6187  -50.3356 O.2       17 UNK        -0.5000 
     99 N          -6.7404  -22.9473  -50.4022 N.am      18 UNK        -0.5000 
    100 CA        -6.3446  -21.9922  -51.4405 C.3       18 UNK         0.1400 
    101 CB        -6.5302  -20.5479  -50.9310 C.3       18 UNK        -0.1800 
    102 C         -7.0214  -22.2442  -52.8050 C.2       18 UNK         0.5000 
    103 O         -7.4726  -21.3009  -53.4579 O.2       18 UNK        -0.5000 
    104 N         -7.0772  -23.5145  -53.2257 N.am      19 UNK        -0.5000 
    105 CA        -7.5902  -23.9299  -54.5286 C.3       19 UNK         0.1400 
    106 CB        -7.8991  -25.4366  -54.5006 C.3       19 UNK        -0.1800 
    107 C         -6.5741  -23.5672  -55.6272 C.2       19 UNK         0.5000 
    108 O         -5.5685  -24.2626  -55.7830 O.2       19 UNK        -0.5000 
    109 N         -6.8433  -22.4587  -56.3325 N.am      20 UNK        -0.5000 
    110 CA        -5.9991  -21.8372  -57.3614 C.3       20 UNK         0.1400 
    111 CB        -5.8837  -22.7455  -58.6042 C.3       20 UNK        -0.1800 
    112 C         -4.6300  -21.3770  -56.8119 C.2       20 UNK         0.5000 
    113 O         -3.6022  -21.5501  -57.4701 O.2       20 UNK        -0.5000 
    114 N         -4.6468  -20.7960  -55.6075 N.am      21 UNK        -0.5000 
    115 CA        -3.4873  -20.2680  -54.8955 C.3       21 UNK         0.1400 
    116 CB        -2.8596  -21.3890  -54.0473 C.3       21 UNK        -0.1800 
    117 C         -3.9353  -19.0913  -54.0158 C.2       21 UNK         0.5000 
    118 O         -5.1378  -18.8591  -53.8693 O.2       21 UNK        -0.5000 
    119 N         -2.9660  -18.3765  -53.4335 N.am      22 UNK        -0.5000 
    120 CA        -3.2109  -17.3002  -52.4577 C.3       22 UNK         0.1400 
    121 C         -3.5740  -17.7931  -51.0257 C.2       22 UNK         0.5000 
    122 N         -3.3439  -19.0539  -50.6782 N.am      22 UNK        -0.7600 
    123 O         -4.0714  -17.0156  -50.2167 O.2       22 UNK        -0.5000 
    124 C124       -2.0599  -16.2602  -52.4334 C.3       23 UNK        -0.0398 
    125 S125       -0.4017  -16.9569  -52.1020 S.3       23 UNK        -0.2404 
    126 C126       -0.2716  -16.7084  -50.3019 C.3       23 UNK        -0.0205 
    127 H127        2.6463  -10.2341  -51.2210 H         1 UNK         0.0600 
    128 H128        2.6778   -8.5399  -50.7229 H         1 UNK         0.0600 
    129 H129        1.2190   -9.5063  -50.4776 H         1 UNK         0.0600 
    130 H130        3.7557  -11.5608  -49.8095 H         1 UNK         0.3000 
    131 H131        4.6843  -10.7541  -47.2770 H         1 UNK         0.0600 
    132 H132        6.0153  -12.3168  -48.4524 H         1 UNK         0.0800 
    133 H133        5.4618  -13.1661  -47.0473 H         1 UNK         0.0800 
    134 H134        3.3369  -14.8594  -47.1352 H         1 UNK         0.0800 
    135 H135        4.8243  -15.7364  -47.4149 H         1 UNK         0.0800 
    136 H136        1.5166  -15.0642  -49.0595 H         1 UNK         0.1150 
    137 H137        1.0170  -19.1051  -50.3803 H         1 UNK         0.1150 
    138 H138        4.5878  -17.9512  -48.3010 H         1 UNK         0.1150 
    139 H139        3.1002  -20.5283  -50.4489 H         1 UNK         0.0800 
    140 H140        4.4873  -20.0880  -49.4909 H         1 UNK         0.0800 
    141 H141        0.9544  -21.4111  -49.6029 H         1 UNK         0.0800 
    142 H142        0.5600  -20.4076  -48.2259 H         1 UNK         0.0800 
    143 H143        0.9442  -23.4398  -48.1190 H         1 UNK         0.0600 
    144 H144        0.7763  -21.6108  -45.9717 H         1 UNK         0.3000 
    145 H145       -0.7855  -23.7858  -43.5821 H         1 UNK         0.0600 
    146 H146        1.2152  -23.0147  -42.3089 H         1 UNK         0.0600 
    147 H147        1.6297  -24.2747  -43.4609 H         1 UNK         0.0600 
    148 H148        2.0333  -22.6032  -43.8152 H         1 UNK         0.0600 
    149 H149        0.0699  -21.0194  -43.6039 H         1 UNK         0.3000 
    150 H150       -3.0800  -19.6572  -44.5544 H         1 UNK         0.0600 
    151 H151       -3.4136  -20.1111  -42.1446 H         1 UNK         0.0600 
    152 H152       -2.8159  -18.4745  -42.3742 H         1 UNK         0.0600 
    153 H153       -1.7287  -19.7410  -41.8052 H         1 UNK         0.0600 
    154 H154       -0.5381  -18.5809  -43.6729 H         1 UNK         0.3000 
    155 H155        0.9179  -18.3602  -46.9181 H         1 UNK         0.0600 
    156 H156       -0.3306  -16.1129  -45.2442 H         1 UNK         0.0600 
    157 H157       -0.6366  -16.4122  -46.9537 H         1 UNK         0.0600 
    158 H158        0.9667  -15.9285  -46.4209 H         1 UNK         0.0600 
    159 H159        1.7619  -17.2484  -44.4688 H         1 UNK         0.3000 
    160 H160        2.9694  -20.0985  -42.8062 H         1 UNK         0.0600 
    161 H161        5.2406  -19.1228  -43.0481 H         1 UNK         0.0600 
    162 H162        4.7085  -18.1574  -44.4265 H         1 UNK         0.0600 
    163 H163        4.7648  -19.9116  -44.5433 H         1 UNK         0.0600 
    164 H164        3.5959  -17.4266  -42.2992 H         1 UNK         0.3000 
    165 H165        0.6586  -16.0456  -41.1249 H         1 UNK         0.0600 
    166 H166        1.6540  -15.9705  -38.8474 H         1 UNK         0.0600 
    167 H167        0.9712  -17.5573  -39.1626 H         1 UNK         0.0600 
    168 H168        2.7137  -17.3256  -39.2398 H         1 UNK         0.0600 
    169 H169        3.4195  -15.4275  -40.6432 H         1 UNK         0.3000 
    170 H170        4.6581  -14.1326  -41.8523 H         1 UNK         0.0600 
    171 H171        5.0363  -15.5378  -43.8563 H         1 UNK         0.0600 
    172 H172        4.0980  -14.4313  -44.8486 H         1 UNK         0.0600 
    173 H173        5.6212  -13.9046  -44.1376 H         1 UNK         0.0600 
    174 H174        3.5702  -12.2704  -43.8057 H         1 UNK         0.3000 
    175 H175        2.6960   -9.8526  -41.2727 H         1 UNK         0.0600 
    176 H176        4.9341   -9.9452  -43.3637 H         1 UNK         0.0600 
    177 H177        4.2703   -8.4920  -42.6187 H         1 UNK         0.0600 
    178 H178        5.1529   -9.6547  -41.6408 H         1 UNK         0.0600 
    179 H179        2.4710  -10.6751  -44.1451 H         1 UNK         0.3000 
    180 H180       -0.7500   -9.3506  -44.3483 H         1 UNK         0.0600 
    181 H181        1.6316   -7.9279  -45.6552 H         1 UNK         0.0600 
    182 H182        0.3622   -7.1488  -44.7177 H         1 UNK         0.0600 
    183 H183       -0.0282   -7.9146  -46.2498 H         1 UNK         0.0600 
    184 H184        1.1380  -10.2257  -46.3463 H         1 UNK         0.3000 
    185 H185        1.0217  -13.6300  -45.7424 H         1 UNK         0.0600 
    186 H186       -1.3011  -13.5389  -46.6848 H         1 UNK         0.0600 
    187 H187       -0.7773  -12.3625  -47.8837 H         1 UNK         0.0600 
    188 H188       -0.1432  -14.0063  -47.9133 H         1 UNK         0.0600 
    189 H189        1.7123  -12.3547  -48.1465 H         1 UNK         0.3000 
    190 H190       -1.7481  -21.2133  -47.1997 H         1 UNK         0.3000 
    191 H191       -3.5315  -21.9343  -49.2605 H         1 UNK         0.0600 
    192 H192       -4.1419  -20.9735  -46.4164 H         1 UNK         0.0600 
    193 H193       -5.2761  -20.9742  -47.7559 H         1 UNK         0.0600 
    194 H194       -3.8531  -19.9429  -47.8121 H         1 UNK         0.0600 
    195 H195       -3.1314  -23.3666  -45.9826 H         1 UNK         0.3000 
    196 H196       -5.1717  -25.3181  -46.1945 H         1 UNK         0.0600 
    197 H197       -3.9876  -26.3957  -44.2827 H         1 UNK         0.0600 
    198 H198       -4.1408  -24.6617  -44.0419 H         1 UNK         0.0600 
    199 H199       -2.5961  -25.3499  -44.5349 H         1 UNK         0.0600 
    200 H200       -1.6605  -25.5402  -46.9607 H         1 UNK         0.3000 
    201 H201       -1.6412  -28.2309  -47.8543 H         1 UNK         0.0600 
    202 H202        0.4108  -26.9691  -47.2651 H         1 UNK         0.0600 
    203 H203        0.1669  -25.8794  -48.6282 H         1 UNK         0.0600 
    204 H204        0.5285  -27.5784  -48.9093 H         1 UNK         0.0600 
    205 H205       -2.4079  -25.2133  -49.5538 H         1 UNK         0.3000 
    206 H206       -2.8356  -26.4726  -52.1491 H         1 UNK         0.0600 
    207 H207       -1.9468  -24.1569  -51.9425 H         1 UNK         0.0600 
    208 H208       -3.4653  -24.1724  -52.8206 H         1 UNK         0.0600 
    209 H209       -3.4283  -23.6465  -51.1393 H         1 UNK         0.0600 
    210 H210       -4.5238  -27.2291  -49.6365 H         1 UNK         0.3000 
    211 H211       -6.5442  -28.0038  -49.1958 H         1 UNK         0.0600 
    212 H212       -6.9902  -27.9593  -52.2288 H         1 UNK         0.0600 
    213 H213       -7.8841  -28.9216  -51.0601 H         1 UNK         0.0600 
    214 H214       -6.1790  -29.2422  -51.3317 H         1 UNK         0.0600 
    215 H215       -6.3844  -25.4538  -48.6195 H         1 UNK         0.3000 
    216 H216       -7.5160  -23.6986  -47.9186 H         1 UNK         0.0600 
    217 H217       -9.9569  -23.5563  -47.9010 H         1 UNK         0.0600 
    218 H218       -9.4763  -25.1822  -47.4429 H         1 UNK         0.0600 
    219 H219      -10.1071  -24.8661  -49.0591 H         1 UNK         0.0600 
    220 H220       -5.9813  -23.4642  -49.9666 H         1 UNK         0.3000 
    221 H221       -5.2777  -22.1442  -51.6018 H         1 UNK         0.0600 
    222 H222       -7.5816  -20.3029  -50.7790 H         1 UNK         0.0600 
    223 H223       -6.0095  -20.3901  -49.9877 H         1 UNK         0.0600 
    224 H224       -6.1290  -19.8258  -51.6409 H         1 UNK         0.0600 
    225 H225       -6.6256  -24.2436  -52.6768 H         1 UNK         0.3000 
    226 H226       -8.5287  -23.4052  -54.7204 H         1 UNK         0.0600 
    227 H227       -8.3380  -25.7599  -55.4450 H         1 UNK         0.0600 
    228 H228       -7.0024  -26.0346  -54.3357 H         1 UNK         0.0600 
    229 H229       -8.6088  -25.6786  -53.7090 H         1 UNK         0.0600 
    230 H230       -7.6710  -21.9349  -56.0813 H         1 UNK         0.3000 
    231 H231       -6.5174  -20.9286  -57.6711 H         1 UNK         0.0600 
    232 H232       -6.8674  -23.0371  -58.9721 H         1 UNK         0.0600 
    233 H233       -5.3210  -23.6552  -58.3932 H         1 UNK         0.0600 
    234 H234       -5.3742  -22.2291  -59.4186 H         1 UNK         0.0600 
    235 H235       -5.5322  -20.6283  -55.1436 H         1 UNK         0.3000 
    236 H236       -2.7537  -19.8921  -55.6118 H         1 UNK         0.0600 
    237 H237       -2.5738  -22.2403  -54.6656 H         1 UNK         0.0600 
    238 H238       -1.9594  -21.0463  -53.5364 H         1 UNK         0.0600 
    239 H239       -3.5543  -21.7483  -53.2885 H         1 UNK         0.0600 
    240 H240       -1.9971  -18.6108  -53.5963 H         1 UNK         0.3000 
    241 H241       -4.0955  -16.7568  -52.7963 H         1 UNK         0.0600 
    242 H242       -2.9115  -19.6929  -51.3229 H         1 UNK         0.3800 
    243 H243       -3.5688  -19.3441  -49.7424 H         1 UNK         0.3800 
    244 H244       -2.0112  -15.7688  -53.4059 H         1 UNK         0.0800 
    245 H245       -2.2745  -15.4603  -51.7224 H         1 UNK         0.0800 
    246 H246       -1.0029  -17.3338  -49.7891 H         1 UNK         0.0800 
    247 H247       -0.5253  -15.6745  -50.0627 H         1 UNK         0.0800 
@<TRIPOS>BOND
     1    1    2 1    
     2    1  127 1    
     3    1  128 1    
     4    1  129 1    
     5    2    3 2    
     6    2    4 am   BACKBONE|DICT|INTERRES
     7    4    5 1    
     8    4  130 1    
     9    5    6 1    
    10    5   65 1    
    11    5  131 1    
    12    6    7 1    
    13    6  132 1    
    14    6  133 1    
    15    7    8 1    
    16    8    9 1    
    17    8  134 1    
    18    8  135 1    
    19    9   10 ar   
    20    9   14 ar   
    21   10   11 ar   
    22   10  136 1    
    23   11   12 ar   
    24   11  126 1    
    25   12   13 ar   
    26   12  137 1    
    27   13   14 ar   
    28   13   15 1    
    29   14  138 1    
    30   15   16 1    
    31   15  139 1    
    32   15  140 1    
    33   16   17 1    
    34   17   18 1    
    35   17  141 1    
    36   17  142 1    
    37   18   19 1    
    38   18   67 1    
    39   18  143 1    
    40   19   20 am   BACKBONE|DICT|INTERRES
    41   19  144 1    
    42   20   21 2    
    43   20   22 1    
    44   22   23 1    
    45   22   24 1    
    46   22  145 1    
    47   23  146 1    
    48   23  147 1    
    49   23  148 1    
    50   24   25 am   BACKBONE|DICT|INTERRES
    51   24  149 1    
    52   25   26 2    
    53   25   27 1    
    54   27   28 1    
    55   27   29 1    
    56   27  150 1    
    57   28  151 1    
    58   28  152 1    
    59   28  153 1    
    60   29   30 am   BACKBONE|DICT|INTERRES
    61   29  154 1    
    62   30   31 2    
    63   30   32 1    
    64   32   33 1    
    65   32   34 1    
    66   32  155 1    
    67   33  156 1    
    68   33  157 1    
    69   33  158 1    
    70   34   35 am   BACKBONE|DICT|INTERRES
    71   34  159 1    
    72   35   36 2    
    73   35   37 1    
    74   37   38 1    
    75   37   39 1    
    76   37  160 1    
    77   38  161 1    
    78   38  162 1    
    79   38  163 1    
    80   39   40 am   BACKBONE|DICT|INTERRES
    81   39  164 1    
    82   40   41 2    
    83   40   42 1    
    84   42   43 1    
    85   42   44 1    
    86   42  165 1    
    87   43  166 1    
    88   43  167 1    
    89   43  168 1    
    90   44   45 am   BACKBONE|DICT|INTERRES
    91   44  169 1    
    92   45   46 2    
    93   45   47 1    
    94   47   48 1    
    95   47   49 1    
    96   47  170 1    
    97   48  171 1    
    98   48  172 1    
    99   48  173 1    
   100   49   50 am   BACKBONE|DICT|INTERRES
   101   49  174 1    
   102   50   51 2    
   103   50   52 1    
   104   52   53 1    
   105   52   54 1    
   106   52  175 1    
   107   53  176 1    
   108   53  177 1    
   109   53  178 1    
   110   54   55 am   BACKBONE|DICT|INTERRES
   111   54  179 1    
   112   55   56 2    
   113   55   57 1    
   114   57   58 1    
   115   57   59 1    
   116   57  180 1    
   117   58  181 1    
   118   58  182 1    
   119   58  183 1    
   120   59   60 am   BACKBONE|DICT|INTERRES
   121   59  184 1    
   122   60   61 2    
   123   60   62 1    
   124   62   63 1    
   125   62   64 1    
   126   62  185 1    
   127   63  186 1    
   128   63  187 1    
   129   63  188 1    
   130   64   65 am   BACKBONE|DICT|INTERRES
   131   64  189 1    
   132   65   66 2    
   133   67   68 2    
   134   67   69 am   BACKBONE|DICT|INTERRES
   135   69   70 1    
   136   69  190 1    
   137   70   71 1    
   138   70   72 1    
   139   70  191 1    
   140   71  192 1    
   141   71  193 1    
   142   71  194 1    
   143   72   73 2    
   144   72   74 am   BACKBONE|DICT|INTERRES
   145   74   75 1    
   146   74  195 1    
   147   75   76 1    
   148   75   77 1    
   149   75  196 1    
   150   76  197 1    
   151   76  198 1    
   152   76  199 1    
   153   77   78 2    
   154   77   79 am   BACKBONE|DICT|INTERRES
   155   79   80 1    
   156   79  200 1    
   157   80   81 1    
   158   80   82 1    
   159   80  201 1    
   160   81  202 1    
   161   81  203 1    
   162   81  204 1    
   163   82   83 2    
   164   82   84 am   BACKBONE|DICT|INTERRES
   165   84   85 1    
   166   84  205 1    
   167   85   86 1    
   168   85   87 1    
   169   85  206 1    
   170   86  207 1    
   171   86  208 1    
   172   86  209 1    
   173   87   88 2    
   174   87   89 am   BACKBONE|DICT|INTERRES
   175   89   90 1    
   176   89  210 1    
   177   90   91 1    
   178   90   92 1    
   179   90  211 1    
   180   91  212 1    
   181   91  213 1    
   182   91  214 1    
   183   92   93 2    
   184   92   94 am   BACKBONE|DICT|INTERRES
   185   94   95 1    
   186   94  215 1    
   187   95   96 1    
   188   95   97 1    
   189   95  216 1    
   190   96  217 1    
   191   96  218 1    
   192   96  219 1    
   193   97   98 2    
   194   97   99 am   BACKBONE|DICT|INTERRES
   195   99  100 1    
   196   99  220 1    
   197  100  101 1    
   198  100  102 1    
   199  100  221 1    
   200  101  222 1    
   201  101  223 1    
   202  101  224 1    
   203  102  103 2    
   204  102  104 am   BACKBONE|DICT|INTERRES
   205  104  105 1    
   206  104  225 1    
   207  105  106 1    
   208  105  107 1    
   209  105  226 1    
   210  106  227 1    
   211  106  228 1    
   212  106  229 1    
   213  107  108 2    
   214  107  109 am   BACKBONE|DICT|INTERRES
   215  109  110 1    
   216  109  230 1    
   217  110  111 1    
   218  110  112 1    
   219  110  231 1    
   220  111  232 1    
   221  111  233 1    
   222  111  234 1    
   223  112  113 2    
   224  112  114 am   BACKBONE|DICT|INTERRES
   225  114  115 1    
   226  114  235 1    
   227  115  116 1    
   228  115  117 1    
   229  115  236 1    
   230  116  237 1    
   231  116  238 1    
   232  116  239 1    
   233  117  118 2    
   234  117  119 am   BACKBONE|DICT|INTERRES
   235  119  120 1    
   236  119  240 1    
   237  120  121 1    
   238  120  124 1    
   239  120  241 1    
   240  121  122 am   BACKBONE|DICT|INTERRES
   241  121  123 2    
   242  122  242 1    
   243  122  243 1    
   244  124  125 1    
   245  124  244 1    
   246  124  245 1    
   247  125  126 1    
   248  126  246 1    
   249  126  247 1    
@<TRIPOS>SUBSTRUCTURE
     1 UNK         1 GROUP             0       ****    0 ROOT    
