@<TRIPOS>MOLECULE
3R540
247   249    1
SMALL
USER_CHARGES


@<TRIPOS>ATOM
      1 CA         -4.8052  -16.6679  -48.2509 C.3       0 UNK        -0.1800 
      2 C          -3.7072  -15.6146  -48.2046 C.2       0 UNK         0.5000 
      3 O          -3.8577  -14.6092  -47.5106 O.2       0 UNK        -0.5000 
      4 N          -2.6143  -15.8505  -48.9448 N.am      1 UNK        -0.5000 
      5 CA         -1.4139  -15.0132  -49.0624 C.3       1 UNK         0.1400 
      6 C6         -0.3769  -15.6852  -50.0012 C.3       23 UNK        -0.0398 
      7 S7          1.0562  -14.6198  -50.3815 S.3       23 UNK        -0.2404 
      8 C8          1.7014  -15.3973  -51.8945 C.3       23 UNK        -0.0205 
      9 C9          2.1538  -16.8373  -51.6826 C.ar      23 UNK        -0.0193 
     10 C10         1.4935  -17.8802  -52.3365 C.ar      23 UNK        -0.1150 
     11 C11         1.9559  -19.1953  -52.2291 C.ar      23 UNK        -0.0193 
     12 C12         3.0658  -19.4658  -51.4266 C.ar      23 UNK        -0.1150 
     13 C13         3.7078  -18.4417  -50.7215 C.ar      23 UNK        -0.0193 
     14 C14         3.2548  -17.1263  -50.8700 C.ar      23 UNK        -0.1150 
     15 C15         4.9153  -18.7269  -49.8317 C.3       23 UNK        -0.0205 
     16 S16         4.8305  -20.3086  -48.9207 S.3       23 UNK        -0.2404 
     17 C17         3.4952  -19.9956  -47.7182 C.3       23 UNK        -0.0398 
     18 CA          2.5527  -21.2197  -47.5481 C.3       11 UNK         0.1400 
     19 N           2.1716  -21.4164  -46.1458 N.am      11 UNK        -0.5000 
     20 C           1.6688  -22.5467  -45.6300 C.2       10 UNK         0.5000 
     21 O           1.5169  -23.5846  -46.2737 O.2       10 UNK        -0.5000 
     22 CA          1.2350  -22.5052  -44.1501 C.3       10 UNK         0.1400 
     23 CB          2.4026  -22.8838  -43.2269 C.3       10 UNK        -0.1800 
     24 N           0.7007  -21.2024  -43.7494 N.am      10 UNK        -0.5000 
     25 C          -0.4362  -20.6763  -44.2260 C.2       9 UNK         0.5000 
     26 O          -1.1907  -21.2737  -44.9902 O.2       9 UNK        -0.5000 
     27 CA         -0.7562  -19.2237  -43.8311 C.3       9 UNK         0.1400 
     28 CB         -1.4656  -19.1852  -42.4701 C.3       9 UNK        -0.1800 
     29 N           0.4330  -18.3688  -43.8004 N.am      9 UNK        -0.5000 
     30 C           1.2300  -18.1256  -44.8524 C.2       8 UNK         0.5000 
     31 O           1.0220  -18.5700  -45.9796 O.2       8 UNK        -0.5000 
     32 CA          2.5213  -17.3337  -44.5859 C.3       8 UNK         0.1400 
     33 CB          2.2626  -15.8266  -44.5650 C.3       8 UNK        -0.1800 
     34 N           3.1415  -17.7299  -43.3258 N.am      8 UNK        -0.5000 
     35 C           3.8078  -18.8764  -43.1431 C.2       7 UNK         0.5000 
     36 O           4.0088  -19.7001  -44.0354 O.2       7 UNK        -0.5000 
     37 CA          4.2976  -19.1598  -41.7114 C.3       7 UNK         0.1400 
     38 CB          5.6693  -18.5124  -41.4701 C.3       7 UNK        -0.1800 
     39 N           3.3534  -18.6907  -40.6938 N.am      7 UNK        -0.5000 
     40 C           2.1402  -19.2240  -40.4948 C.2       6 UNK         0.5000 
     41 O           1.7037  -20.1801  -41.1358 O.2       6 UNK        -0.5000 
     42 CA          1.2544  -18.5546  -39.4276 C.3       6 UNK         0.1400 
     43 CB          1.5734  -19.1157  -38.0340 C.3       6 UNK        -0.1800 
     44 N           1.3598  -17.0916  -39.3990 N.am      6 UNK        -0.5000 
     45 C           0.9963  -16.2839  -40.4036 C.2       5 UNK         0.5000 
     46 O           0.6215  -16.6910  -41.5048 O.2       5 UNK        -0.5000 
     47 CA          1.0885  -14.7714  -40.1505 C.3       5 UNK         0.1400 
     48 CB          2.3009  -14.1725  -40.8791 C.3       5 UNK        -0.1800 
     49 N          -0.1291  -14.1289  -40.6377 N.am      5 UNK        -0.5000 
     50 C          -1.2274  -13.9189  -39.8964 C.2       4 UNK         0.5000 
     51 O          -1.2818  -14.1232  -38.6830 O.2       4 UNK        -0.5000 
     52 CA         -2.4878  -13.4186  -40.6345 C.3       4 UNK         0.1400 
     53 CB         -2.5360  -11.8833  -40.6452 C.3       4 UNK        -0.1800 
     54 N          -2.5434  -13.9083  -42.0109 N.am      4 UNK        -0.5000 
     55 C          -2.7439  -15.1866  -42.3527 C.2       3 UNK         0.5000 
     56 O          -3.1575  -16.0322  -41.5587 O.2       3 UNK        -0.5000 
     57 CA         -2.3960  -15.6085  -43.7995 C.3       3 UNK         0.1400 
     58 CB         -3.5082  -16.4602  -44.4339 C.3       3 UNK        -0.1800 
     59 N          -2.0391  -14.5319  -44.7318 N.am      3 UNK        -0.5000 
     60 C          -0.9497  -13.7516  -44.6707 C.2       2 UNK         0.5000 
     61 O          -0.2141  -13.6929  -43.6839 O.2       2 UNK        -0.5000 
     62 CA         -0.6513  -12.8800  -45.9119 C.3       2 UNK         0.1400 
     63 CB          0.8308  -12.4667  -46.0134 C.3       2 UNK        -0.1800 
     64 N          -1.1005  -13.4640  -47.1833 N.am      2 UNK        -0.5000 
     65 C          -0.8073  -14.6771  -47.6807 C.2       1 UNK         0.5000 
     66 O          -0.1263  -15.5212  -47.1002 O.2       1 UNK        -0.5000 
     67 C           1.3094  -21.1361  -48.4628 C.2       11 UNK         0.5000 
     68 O           1.2857  -21.7602  -49.5234 O.2       11 UNK        -0.5000 
     69 N           0.2867  -20.3957  -48.0102 N.am      12 UNK        -0.5000 
     70 CA         -1.0171  -20.2454  -48.6611 C.3       12 UNK         0.1400 
     71 CB         -1.7726  -19.0959  -47.9782 C.3       12 UNK        -0.1800 
     72 C          -1.8797  -21.5225  -48.6304 C.2       12 UNK         0.5000 
     73 O          -2.7193  -21.7038  -49.5158 O.2       12 UNK        -0.5000 
     74 N          -1.6432  -22.3654  -47.6171 N.am      13 UNK        -0.5000 
     75 CA         -2.3270  -23.6090  -47.2622 C.3       13 UNK         0.1400 
     76 CB         -2.3260  -24.6098  -48.4345 C.3       13 UNK        -0.1800 
     77 C          -3.7444  -23.3824  -46.7022 C.2       13 UNK         0.5000 
     78 O          -4.2958  -22.2802  -46.7783 O.2       13 UNK        -0.5000 
     79 N          -4.3111  -24.4547  -46.1318 N.am      14 UNK        -0.5000 
     80 CA         -5.6644  -24.4993  -45.5770 C.3       14 UNK         0.1400 
     81 CB         -5.9239  -25.8928  -44.9854 C.3       14 UNK        -0.1800 
     82 C          -6.7220  -24.1542  -46.6396 C.2       14 UNK         0.5000 
     83 O          -6.6523  -24.6721  -47.7559 O.2       14 UNK        -0.5000 
     84 N          -7.6453  -23.2513  -46.2828 N.am      15 UNK        -0.5000 
     85 CA         -8.6952  -22.6849  -47.1403 C.3       15 UNK         0.1400 
     86 CB         -9.7353  -23.7649  -47.5072 C.3       15 UNK        -0.1800 
     87 C          -8.1549  -21.9361  -48.3822 C.2       15 UNK         0.5000 
     88 O          -8.8786  -21.8032  -49.3703 O.2       15 UNK        -0.5000 
     89 N          -6.8974  -21.4650  -48.3100 N.am      16 UNK        -0.5000 
     90 CA         -6.1416  -20.7797  -49.3651 C.3       16 UNK         0.1400 
     91 CB         -6.8059  -19.4300  -49.7176 C.3       16 UNK        -0.1800 
     92 C          -5.8851  -21.6661  -50.6051 C.2       16 UNK         0.5000 
     93 O          -5.7602  -21.1437  -51.7139 O.2       16 UNK        -0.5000 
     94 N          -5.8177  -22.9917  -50.4052 N.am      17 UNK        -0.5000 
     95 CA         -5.7354  -23.9974  -51.4666 C.3       17 UNK         0.1400 
     96 CB         -5.8230  -25.4001  -50.8478 C.3       17 UNK        -0.1800 
     97 C          -4.4969  -23.8873  -52.3748 C.2       17 UNK         0.5000 
     98 O          -4.6121  -24.1511  -53.5724 O.2       17 UNK        -0.5000 
     99 N          -3.3466  -23.4954  -51.8099 N.am      18 UNK        -0.5000 
    100 CA        -2.1198  -23.2682  -52.5719 C.3       18 UNK         0.1400 
    101 CB        -0.8844  -23.5883  -51.7198 C.3       18 UNK        -0.1800 
    102 C         -2.0691  -21.8332  -53.1102 C.2       18 UNK         0.5000 
    103 O         -1.6162  -21.6354  -54.2349 O.2       18 UNK        -0.5000 
    104 N         -2.5670  -20.8547  -52.3383 N.am      19 UNK        -0.5000 
    105 CA        -2.6848  -19.4496  -52.7497 C.3       19 UNK         0.1400 
    106 CB        -3.1855  -18.5975  -51.5773 C.3       19 UNK        -0.1800 
    107 C         -3.5476  -19.2538  -54.0103 C.2       19 UNK         0.5000 
    108 O         -3.2036  -18.4296  -54.8578 O.2       19 UNK        -0.5000 
    109 N         -4.6002  -20.0697  -54.1478 N.am      20 UNK        -0.5000 
    110 CA        -5.4377  -20.1704  -55.3429 C.3       20 UNK         0.1400 
    111 CB        -6.6308  -21.0875  -55.0338 C.3       20 UNK        -0.1800 
    112 C         -4.6858  -20.6685  -56.5969 C.2       20 UNK         0.5000 
    113 O         -5.0848  -20.3192  -57.7086 O.2       20 UNK        -0.5000 
    114 N         -3.6224  -21.4635  -56.4081 N.am      21 UNK        -0.5000 
    115 CA        -2.7509  -21.9489  -57.4784 C.3       21 UNK         0.1400 
    116 CB        -2.1991  -23.3359  -57.1107 C.3       21 UNK        -0.1800 
    117 C         -1.6102  -20.9570  -57.7686 C.2       21 UNK         0.5000 
    118 O         -1.3051  -20.7195  -58.9383 O.2       21 UNK        -0.5000 
    119 N         -1.0107  -20.3901  -56.7113 N.am      22 UNK        -0.5000 
    120 CA         0.0227  -19.3431  -56.7920 C.3       22 UNK         0.1400 
    121 C         -0.4833  -18.0184  -57.4323 C.2       22 UNK         0.5000 
    122 N         -1.6950  -17.5674  -57.1313 N.am      22 UNK        -0.7600 
    123 O          0.2331  -17.3938  -58.2097 O.2       22 UNK        -0.5000 
    124 C124        0.6667  -19.0416  -55.4147 C.3       23 UNK        -0.0398 
    125 S125        1.6323  -20.4302  -54.7251 S.3       23 UNK        -0.2404 
    126 C126        1.2437  -20.3343  -52.9441 C.3       23 UNK        -0.0205 
    127 H127       -4.8876  -17.1697  -47.2870 H         1 UNK         0.0600 
    128 H128       -4.6109  -17.4219  -49.0130 H         1 UNK         0.0600 
    129 H129       -5.7642  -16.2016  -48.4762 H         1 UNK         0.0600 
    130 H130       -2.5817  -16.7061  -49.4753 H         1 UNK         0.3000 
    131 H131       -1.7289  -14.0796  -49.5329 H         1 UNK         0.0600 
    132 H132       -0.8571  -15.9511  -50.9440 H         1 UNK         0.0800 
    133 H133       -0.0094  -16.6201  -49.5734 H         1 UNK         0.0800 
    134 H134        2.5498  -14.8124  -52.2522 H         1 UNK         0.0800 
    135 H135        0.9426  -15.3374  -52.6763 H         1 UNK         0.0800 
    136 H136        0.6299  -17.6586  -52.9440 H         1 UNK         0.1150 
    137 H137        3.4188  -20.4836  -51.3401 H         1 UNK         0.1150 
    138 H138        3.7618  -16.3202  -50.3583 H         1 UNK         0.1150 
    139 H139        5.8060  -18.7384  -50.4609 H         1 UNK         0.0800 
    140 H140        5.0575  -17.9199  -49.1111 H         1 UNK         0.0800 
    141 H141        2.9439  -19.0913  -47.9840 H         1 UNK         0.0800 
    142 H142        3.9905  -19.7631  -46.7746 H         1 UNK         0.0800 
    143 H143        3.1002  -22.1187  -47.8404 H         1 UNK         0.0600 
    144 H144        2.2588  -20.6117  -45.5401 H         1 UNK         0.3000 
    145 H145        0.4444  -23.2467  -44.0170 H         1 UNK         0.0600 
    146 H146        2.0860  -22.9157  -42.1842 H         1 UNK         0.0600 
    147 H147        2.7955  -23.8695  -43.4787 H         1 UNK         0.0600 
    148 H148        3.2254  -22.1731  -43.3040 H         1 UNK         0.0600 
    149 H149        1.2296  -20.6793  -43.0592 H         1 UNK         0.3000 
    150 H150       -1.4336  -18.8123  -44.5814 H         1 UNK         0.0600 
    151 H151       -2.4199  -19.7112  -42.5156 H         1 UNK         0.0600 
    152 H152       -1.6719  -18.1641  -42.1551 H         1 UNK         0.0600 
    153 H153       -0.8699  -19.6577  -41.6901 H         1 UNK         0.0600 
    154 H154        0.6446  -17.9171  -42.9141 H         1 UNK         0.3000 
    155 H155        3.2200  -17.5430  -45.3989 H         1 UNK         0.0600 
    156 H156        1.5151  -15.5656  -43.8184 H         1 UNK         0.0600 
    157 H157        1.8974  -15.4909  -45.5331 H         1 UNK         0.0600 
    158 H158        3.1712  -15.2652  -44.3478 H         1 UNK         0.0600 
    159 H159        2.9763  -17.1322  -42.5300 H         1 UNK         0.3000 
    160 H160        4.4059  -20.2415  -41.6054 H         1 UNK         0.0600 
    161 H161        5.6212  -17.4251  -41.5411 H         1 UNK         0.0600 
    162 H162        6.3978  -18.8578  -42.2049 H         1 UNK         0.0600 
    163 H163        6.0578  -18.7682  -40.4842 H         1 UNK         0.0600 
    164 H164        3.6389  -17.9078  -40.1243 H         1 UNK         0.3000 
    165 H165        0.2175  -18.8045  -39.6612 H         1 UNK         0.0600 
    166 H166        0.8849  -18.7253  -37.2843 H         1 UNK         0.0600 
    167 H167        1.4829  -20.2028  -38.0206 H         1 UNK         0.0600 
    168 H168        2.5881  -18.8668  -37.7209 H         1 UNK         0.0600 
    169 H169        1.6682  -16.6821  -38.5288 H         1 UNK         0.3000 
    170 H170        1.2077  -14.5894  -39.0803 H         1 UNK         0.0600 
    171 H171        3.2269  -14.6556  -40.5651 H         1 UNK         0.0600 
    172 H172        2.2197  -14.2838  -41.9603 H         1 UNK         0.0600 
    173 H173        2.3995  -13.1086  -40.6634 H         1 UNK         0.0600 
    174 H174       -0.1821  -13.9895  -41.6420 H         1 UNK         0.3000 
    175 H175       -3.3636  -13.7878  -40.0967 H         1 UNK         0.0600 
    176 H176       -1.6872  -11.4575  -41.1819 H         1 UNK         0.0600 
    177 H177       -3.4490  -11.5208  -41.1180 H         1 UNK         0.0600 
    178 H178       -2.5161  -11.4857  -39.6297 H         1 UNK         0.0600 
    179 H179       -2.1602  -13.3000  -42.7205 H         1 UNK         0.3000 
    180 H180       -1.5113  -16.2411  -43.7100 H         1 UNK         0.0600 
    181 H181       -3.1818  -16.8789  -45.3859 H         1 UNK         0.0600 
    182 H182       -4.4090  -15.8726  -44.6140 H         1 UNK         0.0600 
    183 H183       -3.7828  -17.3006  -43.7953 H         1 UNK         0.0600 
    184 H184       -2.5973  -14.4796  -45.5753 H         1 UNK         0.3000 
    185 H185       -1.2341  -11.9683  -45.7739 H         1 UNK         0.0600 
    186 H186        1.1675  -11.9651  -45.1054 H         1 UNK         0.0600 
    187 H187        1.4806  -13.3254  -46.1753 H         1 UNK         0.0600 
    188 H188        0.9876  -11.7736  -46.8398 H         1 UNK         0.0600 
    189 H189       -1.7308  -12.8825  -47.7183 H         1 UNK         0.3000 
    190 H190        0.4296  -19.8568  -47.1583 H         1 UNK         0.3000 
    191 H191       -0.8432  -19.9847  -49.7069 H         1 UNK         0.0600 
    192 H192       -2.7396  -18.9263  -48.4506 H         1 UNK         0.0600 
    193 H193       -1.2059  -18.1663  -48.0243 H         1 UNK         0.0600 
    194 H194       -1.9629  -19.3137  -46.9270 H         1 UNK         0.0600 
    195 H195       -1.0191  -22.0235  -46.8957 H         1 UNK         0.3000 
    196 H196       -1.7328  -24.0384  -46.4541 H         1 UNK         0.0600 
    197 H197       -3.0193  -24.3130  -49.2190 H         1 UNK         0.0600 
    198 H198       -1.3327  -24.7024  -48.8734 H         1 UNK         0.0600 
    199 H199       -2.6251  -25.6045  -48.1035 H         1 UNK         0.0600 
    200 H200       -3.8044  -25.3273  -46.1282 H         1 UNK         0.3000 
    201 H201       -5.7152  -23.7654  -44.7701 H         1 UNK         0.0600 
    202 H202       -5.8561  -26.6716  -45.7462 H         1 UNK         0.0600 
    203 H203       -6.9204  -25.9503  -44.5454 H         1 UNK         0.0600 
    204 H204       -5.2077  -26.1282  -44.1979 H         1 UNK         0.0600 
    205 H205       -7.6049  -22.8711  -45.3471 H         1 UNK         0.3000 
    206 H206       -9.2042  -21.9314  -46.5378 H         1 UNK         0.0600 
    207 H207      -10.1033  -24.2766  -46.6180 H         1 UNK         0.0600 
    208 H208      -10.5994  -23.3245  -48.0060 H         1 UNK         0.0600 
    209 H209       -9.3194  -24.5164  -48.1791 H         1 UNK         0.0600 
    210 H210       -6.3633  -21.6646  -47.4724 H         1 UNK         0.3000 
    211 H211       -5.1597  -20.5624  -48.9428 H         1 UNK         0.0600 
    212 H212       -6.1913  -18.8445  -50.3992 H         1 UNK         0.0600 
    213 H213       -6.9635  -18.8245  -48.8252 H         1 UNK         0.0600 
    214 H214       -7.7718  -19.5668  -50.2037 H         1 UNK         0.0600 
    215 H215       -5.9475  -23.3436  -49.4646 H         1 UNK         0.3000 
    216 H216       -6.6102  -23.8587  -52.1053 H         1 UNK         0.0600 
    217 H217       -5.0273  -25.5709  -50.1218 H         1 UNK         0.0600 
    218 H218       -5.7437  -26.1740  -51.6125 H         1 UNK         0.0600 
    219 H219       -6.7766  -25.5461  -50.3403 H         1 UNK         0.0600 
    220 H220       -3.3391  -23.2124  -50.8364 H         1 UNK         0.3000 
    221 H221       -2.0958  -23.9416  -53.4317 H         1 UNK         0.0600 
    222 H222       -0.9126  -24.6149  -51.3553 H         1 UNK         0.0600 
    223 H223       -0.7951  -22.9282  -50.8599 H         1 UNK         0.0600 
    224 H224        0.0285  -23.4772  -52.3061 H         1 UNK         0.0600 
    225 H225       -2.9077  -21.0983  -51.4144 H         1 UNK         0.3000 
    226 H226       -1.6908  -19.0853  -53.0035 H         1 UNK         0.0600 
    227 H227       -4.0785  -19.0251  -51.1274 H         1 UNK         0.0600 
    228 H228       -2.4225  -18.5210  -50.8055 H         1 UNK         0.0600 
    229 H229       -3.4250  -17.5823  -51.8968 H         1 UNK         0.0600 
    230 H230       -4.8555  -20.6625  -53.3621 H         1 UNK         0.3000 
    231 H231       -5.8207  -19.1724  -55.5652 H         1 UNK         0.0600 
    232 H232       -6.3037  -22.0938  -54.7684 H         1 UNK         0.0600 
    233 H233       -7.2950  -21.1722  -55.8948 H         1 UNK         0.0600 
    234 H234       -7.2217  -20.6992  -54.2038 H         1 UNK         0.0600 
    235 H235       -3.3208  -21.6611  -55.4626 H         1 UNK         0.3000 
    236 H236       -3.3353  -22.0630  -58.3939 H         1 UNK         0.0600 
    237 H237       -3.0065  -24.0406  -56.9110 H         1 UNK         0.0600 
    238 H238       -1.6049  -23.7446  -57.9288 H         1 UNK         0.0600 
    239 H239       -1.5585  -23.3038  -56.2297 H         1 UNK         0.0600 
    240 H240       -1.2704  -20.7021  -55.7790 H         1 UNK         0.3000 
    241 H241        0.8094  -19.7232  -57.4466 H         1 UNK         0.0600 
    242 H242       -2.0211  -16.7123  -57.5518 H         1 UNK         0.3800 
    243 H243       -2.2679  -18.0262  -56.4268 H         1 UNK         0.3800 
    244 H244       -0.1186  -18.7584  -54.7157 H         1 UNK         0.0800 
    245 H245        1.3438  -18.1877  -55.4812 H         1 UNK         0.0800 
    246 H246        0.1755  -20.2284  -52.7962 H         1 UNK         0.0800 
    247 H247        1.5087  -21.2872  -52.4832 H         1 UNK         0.0800 
@<TRIPOS>BOND
     1    1    2 1    
     2    1  127 1    
     3    1  128 1    
     4    1  129 1    
     5    2    3 2    
     6    2    4 am   BACKBONE|DICT|INTERRES
     7    4    5 1    
     8    4  130 1    
     9    5    6 1    
    10    5   65 1    
    11    5  131 1    
    12    6    7 1    
    13    6  132 1    
    14    6  133 1    
    15    7    8 1    
    16    8    9 1    
    17    8  134 1    
    18    8  135 1    
    19    9   10 ar   
    20    9   14 ar   
    21   10   11 ar   
    22   10  136 1    
    23   11   12 ar   
    24   11  126 1    
    25   12   13 ar   
    26   12  137 1    
    27   13   14 ar   
    28   13   15 1    
    29   14  138 1    
    30   15   16 1    
    31   15  139 1    
    32   15  140 1    
    33   16   17 1    
    34   17   18 1    
    35   17  141 1    
    36   17  142 1    
    37   18   19 1    
    38   18   67 1    
    39   18  143 1    
    40   19   20 am   BACKBONE|DICT|INTERRES
    41   19  144 1    
    42   20   21 2    
    43   20   22 1    
    44   22   23 1    
    45   22   24 1    
    46   22  145 1    
    47   23  146 1    
    48   23  147 1    
    49   23  148 1    
    50   24   25 am   BACKBONE|DICT|INTERRES
    51   24  149 1    
    52   25   26 2    
    53   25   27 1    
    54   27   28 1    
    55   27   29 1    
    56   27  150 1    
    57   28  151 1    
    58   28  152 1    
    59   28  153 1    
    60   29   30 am   BACKBONE|DICT|INTERRES
    61   29  154 1    
    62   30   31 2    
    63   30   32 1    
    64   32   33 1    
    65   32   34 1    
    66   32  155 1    
    67   33  156 1    
    68   33  157 1    
    69   33  158 1    
    70   34   35 am   BACKBONE|DICT|INTERRES
    71   34  159 1    
    72   35   36 2    
    73   35   37 1    
    74   37   38 1    
    75   37   39 1    
    76   37  160 1    
    77   38  161 1    
    78   38  162 1    
    79   38  163 1    
    80   39   40 am   BACKBONE|DICT|INTERRES
    81   39  164 1    
    82   40   41 2    
    83   40   42 1    
    84   42   43 1    
    85   42   44 1    
    86   42  165 1    
    87   43  166 1    
    88   43  167 1    
    89   43  168 1    
    90   44   45 am   BACKBONE|DICT|INTERRES
    91   44  169 1    
    92   45   46 2    
    93   45   47 1    
    94   47   48 1    
    95   47   49 1    
    96   47  170 1    
    97   48  171 1    
    98   48  172 1    
    99   48  173 1    
   100   49   50 am   BACKBONE|DICT|INTERRES
   101   49  174 1    
   102   50   51 2    
   103   50   52 1    
   104   52   53 1    
   105   52   54 1    
   106   52  175 1    
   107   53  176 1    
   108   53  177 1    
   109   53  178 1    
   110   54   55 am   BACKBONE|DICT|INTERRES
   111   54  179 1    
   112   55   56 2    
   113   55   57 1    
   114   57   58 1    
   115   57   59 1    
   116   57  180 1    
   117   58  181 1    
   118   58  182 1    
   119   58  183 1    
   120   59   60 am   BACKBONE|DICT|INTERRES
   121   59  184 1    
   122   60   61 2    
   123   60   62 1    
   124   62   63 1    
   125   62   64 1    
   126   62  185 1    
   127   63  186 1    
   128   63  187 1    
   129   63  188 1    
   130   64   65 am   BACKBONE|DICT|INTERRES
   131   64  189 1    
   132   65   66 2    
   133   67   68 2    
   134   67   69 am   BACKBONE|DICT|INTERRES
   135   69   70 1    
   136   69  190 1    
   137   70   71 1    
   138   70   72 1    
   139   70  191 1    
   140   71  192 1    
   141   71  193 1    
   142   71  194 1    
   143   72   73 2    
   144   72   74 am   BACKBONE|DICT|INTERRES
   145   74   75 1    
   146   74  195 1    
   147   75   76 1    
   148   75   77 1    
   149   75  196 1    
   150   76  197 1    
   151   76  198 1    
   152   76  199 1    
   153   77   78 2    
   154   77   79 am   BACKBONE|DICT|INTERRES
   155   79   80 1    
   156   79  200 1    
   157   80   81 1    
   158   80   82 1    
   159   80  201 1    
   160   81  202 1    
   161   81  203 1    
   162   81  204 1    
   163   82   83 2    
   164   82   84 am   BACKBONE|DICT|INTERRES
   165   84   85 1    
   166   84  205 1    
   167   85   86 1    
   168   85   87 1    
   169   85  206 1    
   170   86  207 1    
   171   86  208 1    
   172   86  209 1    
   173   87   88 2    
   174   87   89 am   BACKBONE|DICT|INTERRES
   175   89   90 1    
   176   89  210 1    
   177   90   91 1    
   178   90   92 1    
   179   90  211 1    
   180   91  212 1    
   181   91  213 1    
   182   91  214 1    
   183   92   93 2    
   184   92   94 am   BACKBONE|DICT|INTERRES
   185   94   95 1    
   186   94  215 1    
   187   95   96 1    
   188   95   97 1    
   189   95  216 1    
   190   96  217 1    
   191   96  218 1    
   192   96  219 1    
   193   97   98 2    
   194   97   99 am   BACKBONE|DICT|INTERRES
   195   99  100 1    
   196   99  220 1    
   197  100  101 1    
   198  100  102 1    
   199  100  221 1    
   200  101  222 1    
   201  101  223 1    
   202  101  224 1    
   203  102  103 2    
   204  102  104 am   BACKBONE|DICT|INTERRES
   205  104  105 1    
   206  104  225 1    
   207  105  106 1    
   208  105  107 1    
   209  105  226 1    
   210  106  227 1    
   211  106  228 1    
   212  106  229 1    
   213  107  108 2    
   214  107  109 am   BACKBONE|DICT|INTERRES
   215  109  110 1    
   216  109  230 1    
   217  110  111 1    
   218  110  112 1    
   219  110  231 1    
   220  111  232 1    
   221  111  233 1    
   222  111  234 1    
   223  112  113 2    
   224  112  114 am   BACKBONE|DICT|INTERRES
   225  114  115 1    
   226  114  235 1    
   227  115  116 1    
   228  115  117 1    
   229  115  236 1    
   230  116  237 1    
   231  116  238 1    
   232  116  239 1    
   233  117  118 2    
   234  117  119 am   BACKBONE|DICT|INTERRES
   235  119  120 1    
   236  119  240 1    
   237  120  121 1    
   238  120  124 1    
   239  120  241 1    
   240  121  122 am   BACKBONE|DICT|INTERRES
   241  121  123 2    
   242  122  242 1    
   243  122  243 1    
   244  124  125 1    
   245  124  244 1    
   246  124  245 1    
   247  125  126 1    
   248  126  246 1    
   249  126  247 1    
@<TRIPOS>SUBSTRUCTURE
     1 UNK         1 GROUP             0       ****    0 ROOT    
