@<TRIPOS>MOLECULE
3R540
247   249    1
SMALL
USER_CHARGES


@<TRIPOS>ATOM
      1 CA          2.2383  -15.2812  -51.4060 C.3       0 UNK        -0.1800 
      2 C           2.2618  -14.8668  -49.9419 C.2       0 UNK         0.5000 
      3 O           3.2436  -15.1277  -49.2450 O.2       0 UNK        -0.5000 
      4 N           1.1915  -14.2131  -49.4735 N.am      1 UNK        -0.5000 
      5 CA          1.0211  -13.7383  -48.0978 C.3       1 UNK         0.1400 
      6 C6         -0.4781  -13.6065  -47.7099 C.3       23 UNK        -0.0398 
      7 S7         -1.0645  -15.1101  -46.8677 S.3       23 UNK        -0.2404 
      8 C8         -2.3287  -15.7468  -48.0046 C.3       23 UNK        -0.0205 
      9 C9         -1.7388  -16.2856  -49.2996 C.ar      23 UNK        -0.0193 
     10 C10        -2.0923  -15.7122  -50.5242 C.ar      23 UNK        -0.1150 
     11 C11        -1.5681  -16.2110  -51.7189 C.ar      23 UNK        -0.0193 
     12 C12        -0.6679  -17.2780  -51.6725 C.ar      23 UNK        -0.1150 
     13 C13        -0.3350  -17.8961  -50.4646 C.ar      23 UNK        -0.0193 
     14 C14        -0.8707  -17.3817  -49.2760 C.ar      23 UNK        -0.1150 
     15 C15         0.5979  -19.1089  -50.5223 C.3       23 UNK        -0.0205 
     16 S16         1.0014  -19.9104  -48.9341 S.3       23 UNK        -0.2404 
     17 C17        -0.5559  -20.7717  -48.5107 C.3       23 UNK        -0.0398 
     18 CA         -0.2836  -22.1054  -47.7746 C.3       11 UNK         0.1400 
     19 N           0.3848  -21.9046  -46.4843 N.am      11 UNK        -0.5000 
     20 C           0.9581  -22.8797  -45.7672 C.2       10 UNK         0.5000 
     21 O           0.9771  -24.0592  -46.1167 O.2       10 UNK        -0.5000 
     22 CA          1.5825  -22.4833  -44.4173 C.3       10 UNK         0.1400 
     23 CB          2.9291  -21.7741  -44.6230 C.3       10 UNK        -0.1800 
     24 N           0.6993  -21.6503  -43.5993 N.am      10 UNK        -0.5000 
     25 C          -0.4879  -22.0506  -43.1208 C.2       9 UNK         0.5000 
     26 O          -0.9631  -23.1677  -43.3195 O.2       9 UNK        -0.5000 
     27 CA         -1.3027  -21.0237  -42.3148 C.3       9 UNK         0.1400 
     28 CB         -0.7705  -20.9070  -40.8788 C.3       9 UNK        -0.1800 
     29 N          -1.3202  -19.7031  -42.9389 N.am      9 UNK        -0.5000 
     30 C          -1.8381  -19.4379  -44.1470 C.2       8 UNK         0.5000 
     31 O          -2.4021  -20.2706  -44.8571 O.2       8 UNK        -0.5000 
     32 CA         -1.6213  -18.0125  -44.6795 C.3       8 UNK         0.1400 
     33 CB         -2.5721  -17.0151  -43.9980 C.3       8 UNK        -0.1800 
     34 N          -0.2341  -17.5754  -44.5172 N.am      8 UNK        -0.5000 
     35 C           0.8180  -18.1777  -45.0913 C.2       7 UNK         0.5000 
     36 O           0.7267  -19.1636  -45.8172 O.2       7 UNK        -0.5000 
     37 CA          2.2094  -17.6239  -44.7504 C.3       7 UNK         0.1400 
     38 CB          2.5601  -16.4432  -45.6649 C.3       7 UNK        -0.1800 
     39 N           2.3011  -17.2117  -43.3512 N.am      7 UNK        -0.5000 
     40 C           2.2749  -18.0630  -42.3156 C.2       6 UNK         0.5000 
     41 O           2.2031  -19.2866  -42.4355 O.2       6 UNK        -0.5000 
     42 CA          2.2791  -17.4339  -40.9124 C.3       6 UNK         0.1400 
     43 CB          3.6869  -16.9444  -40.5395 C.3       6 UNK        -0.1800 
     44 N           1.3339  -16.3227  -40.7984 N.am      6 UNK        -0.5000 
     45 C           0.0007  -16.4440  -40.8750 C.2       5 UNK         0.5000 
     46 O          -0.5832  -17.5132  -41.0506 O.2       5 UNK        -0.5000 
     47 CA         -0.7993  -15.1378  -40.8242 C.3       5 UNK         0.1400 
     48 CB         -0.6634  -14.4238  -39.4674 C.3       5 UNK        -0.1800 
     49 N          -0.3328  -14.2888  -41.9118 N.am      5 UNK        -0.5000 
     50 C          -1.0070  -13.3121  -42.5172 C.2       4 UNK         0.5000 
     51 O          -2.1104  -12.9157  -42.1384 O.2       4 UNK        -0.5000 
     52 CA         -0.3425  -12.7034  -43.7767 C.3       4 UNK         0.1400 
     53 CB         -1.1101  -11.4829  -44.3161 C.3       4 UNK        -0.1800 
     54 N           1.0744  -12.3360  -43.6465 N.am      4 UNK        -0.5000 
     55 C           2.1200  -13.1544  -43.4705 C.2       3 UNK         0.5000 
     56 O           2.0227  -14.3674  -43.2715 O.2       3 UNK        -0.5000 
     57 CA          3.5052  -12.5205  -43.6447 C.3       3 UNK         0.1400 
     58 CB          4.6148  -13.3367  -42.9571 C.3       3 UNK        -0.1800 
     59 N           3.7577  -12.4816  -45.0801 N.am      3 UNK        -0.5000 
     60 C           4.0653  -11.3978  -45.8031 C.2       2 UNK         0.5000 
     61 O           4.2736  -10.2843  -45.3207 O.2       2 UNK        -0.5000 
     62 CA          4.1204  -11.5932  -47.3328 C.3       2 UNK         0.1400 
     63 CB          5.5370  -11.9865  -47.7775 C.3       2 UNK        -0.1800 
     64 N           3.1732  -12.6132  -47.7910 N.am      2 UNK        -0.5000 
     65 C           1.8433  -12.4587  -47.8274 C.2       1 UNK         0.5000 
     66 O           1.2820  -11.3779  -47.6407 O.2       1 UNK        -0.5000 
     67 C          -1.5662  -22.9512  -47.6279 C.2       11 UNK         0.5000 
     68 O          -1.8334  -23.7945  -48.4860 O.2       11 UNK        -0.5000 
     69 N          -2.3101  -22.7600  -46.5272 N.am      12 UNK        -0.5000 
     70 CA         -3.4641  -23.5845  -46.1666 C.3       12 UNK         0.1400 
     71 CB         -4.2295  -22.9411  -45.0015 C.3       12 UNK        -0.1800 
     72 C          -3.0722  -25.0364  -45.8357 C.2       12 UNK         0.5000 
     73 O          -3.7143  -25.9589  -46.3370 O.2       12 UNK        -0.5000 
     74 N          -2.0054  -25.2211  -45.0435 N.am      13 UNK        -0.5000 
     75 CA         -1.4459  -26.5298  -44.6868 C.3       13 UNK         0.1400 
     76 CB         -0.3671  -26.3551  -43.6075 C.3       13 UNK        -0.1800 
     77 C          -0.8832  -27.2988  -45.8975 C.2       13 UNK         0.5000 
     78 O          -1.0166  -28.5214  -45.9580 O.2       13 UNK        -0.5000 
     79 N          -0.3071  -26.5648  -46.8588 N.am      14 UNK        -0.5000 
     80 CA          0.1507  -27.0737  -48.1534 C.3       14 UNK         0.1400 
     81 CB          1.0979  -26.0395  -48.7830 C.3       14 UNK        -0.1800 
     82 C          -0.9972  -27.4129  -49.1292 C.2       14 UNK         0.5000 
     83 O          -0.7300  -28.0016  -50.1775 O.2       14 UNK        -0.5000 
     84 N          -2.2368  -27.0313  -48.7820 N.am      15 UNK        -0.5000 
     85 CA         -3.4702  -27.1742  -49.5606 C.3       15 UNK         0.1400 
     86 CB         -3.8372  -28.6608  -49.7520 C.3       15 UNK        -0.1800 
     87 C          -3.4320  -26.3766  -50.8801 C.2       15 UNK         0.5000 
     88 O          -3.9385  -26.8419  -51.9028 O.2       15 UNK        -0.5000 
     89 N          -2.8341  -25.1809  -50.8266 N.am      16 UNK        -0.5000 
     90 CA         -2.6806  -24.2583  -51.9463 C.3       16 UNK         0.1400 
     91 CB         -1.2696  -24.4107  -52.5418 C.3       16 UNK        -0.1800 
     92 C          -2.9879  -22.8332  -51.4583 C.2       16 UNK         0.5000 
     93 O          -2.1846  -21.9188  -51.6513 O.2       16 UNK        -0.5000 
     94 N          -4.1364  -22.6955  -50.7846 N.am      17 UNK        -0.5000 
     95 CA         -4.5993  -21.4924  -50.0957 C.3       17 UNK         0.1400 
     96 CB         -5.8938  -21.8435  -49.3431 C.3       17 UNK        -0.1800 
     97 C          -4.8178  -20.2692  -51.0095 C.2       17 UNK         0.5000 
     98 O          -4.8717  -20.3951  -52.2383 O.2       17 UNK        -0.5000 
     99 N          -4.9664  -19.1061  -50.3606 N.am      18 UNK        -0.5000 
    100 CA        -5.2305  -17.7997  -50.9628 C.3       18 UNK         0.1400 
    101 CB        -5.4193  -16.7666  -49.8430 C.3       18 UNK        -0.1800 
    102 C         -6.4725  -17.8102  -51.8683 C.2       18 UNK         0.5000 
    103 O         -7.5206  -18.3071  -51.4500 O.2       18 UNK        -0.5000 
    104 N         -6.3205  -17.2901  -53.0928 N.am      19 UNK        -0.5000 
    105 CA        -7.2990  -17.2079  -54.1883 C.3       19 UNK         0.1400 
    106 CB        -8.5279  -16.3724  -53.7821 C.3       19 UNK        -0.1800 
    107 C         -7.7230  -18.5670  -54.7863 C.2       19 UNK         0.5000 
    108 O         -7.9848  -18.6354  -55.9877 O.2       19 UNK        -0.5000 
    109 N         -7.7643  -19.6213  -53.9619 N.am      20 UNK        -0.5000 
    110 CA        -8.0428  -21.0041  -54.3444 C.3       20 UNK         0.1400 
    111 CB        -8.1962  -21.8561  -53.0750 C.3       20 UNK        -0.1800 
    112 C         -6.9574  -21.5927  -55.2625 C.2       20 UNK         0.5000 
    113 O         -7.2874  -22.3369  -56.1871 O.2       20 UNK        -0.5000 
    114 N         -5.6939  -21.2302  -55.0076 N.am      21 UNK        -0.5000 
    115 CA        -4.5497  -21.6030  -55.8356 C.3       21 UNK         0.1400 
    116 CB        -4.0627  -23.0149  -55.4709 C.3       21 UNK        -0.1800 
    117 C         -3.3993  -20.5935  -55.7240 C.2       21 UNK         0.5000 
    118 O         -2.7439  -20.3339  -56.7337 O.2       21 UNK        -0.5000 
    119 N         -3.1638  -20.0552  -54.5175 N.am      22 UNK        -0.5000 
    120 CA        -1.9952  -19.2327  -54.1622 C.3       22 UNK         0.1400 
    121 C         -0.6512  -19.9943  -54.3718 C.2       22 UNK         0.5000 
    122 N         -0.4295  -21.0801  -53.6459 N.am      22 UNK        -0.7600 
    123 O          0.1928  -19.6133  -55.1791 O.2       22 UNK        -0.5000 
    124 C124       -2.0003  -17.8180  -54.8162 C.3       23 UNK        -0.0398 
    125 S125       -3.1337  -16.6512  -53.9893 S.3       23 UNK        -0.2404 
    126 C126       -1.9707  -15.5948  -53.0536 C.3       23 UNK        -0.0205 
    127 H127        1.3183  -14.9693  -51.9008 H         1 UNK         0.0600 
    128 H128        2.3188  -16.3648  -51.4890 H         1 UNK         0.0600 
    129 H129        3.0787  -14.8338  -51.9365 H         1 UNK         0.0600 
    130 H130        0.4218  -14.0245  -50.0987 H         1 UNK         0.3000 
    131 H131        1.4663  -14.4873  -47.4438 H         1 UNK         0.0600 
    132 H132       -0.6568  -12.7947  -47.0049 H         1 UNK         0.0800 
    133 H133       -1.0989  -13.3794  -48.5775 H         1 UNK         0.0800 
    134 H134       -2.8657  -16.5519  -47.5024 H         1 UNK         0.0800 
    135 H135       -3.0625  -14.9631  -48.1989 H         1 UNK         0.0800 
    136 H136       -2.7831  -14.8811  -50.5481 H         1 UNK         0.1150 
    137 H137       -0.2316  -17.6461  -52.5883 H         1 UNK         0.1150 
    138 H138       -0.6168  -17.8173  -48.3210 H         1 UNK         0.1150 
    139 H139        0.1674  -19.8579  -51.1875 H         1 UNK         0.0800 
    140 H140        1.5362  -18.7954  -50.9813 H         1 UNK         0.0800 
    141 H141       -1.1159  -20.9498  -49.4295 H         1 UNK         0.0800 
    142 H142       -1.1703  -20.1129  -47.8948 H         1 UNK         0.0800 
    143 H143        0.3961  -22.6879  -48.4003 H         1 UNK         0.0600 
    144 H144        0.4457  -20.9425  -46.1542 H         1 UNK         0.3000 
    145 H145        1.7716  -23.4035  -43.8606 H         1 UNK         0.0600 
    146 H146        3.4086  -21.5529  -43.6694 H         1 UNK         0.0600 
    147 H147        3.6152  -22.3997  -45.1953 H         1 UNK         0.0600 
    148 H148        2.8124  -20.8361  -45.1652 H         1 UNK         0.0600 
    149 H149        1.0345  -20.7213  -43.3677 H         1 UNK         0.3000 
    150 H150       -2.3331  -21.3818  -42.2673 H         1 UNK         0.0600 
    151 H151       -0.7575  -21.8799  -40.3861 H         1 UNK         0.0600 
    152 H152       -1.3975  -20.2464  -40.2798 H         1 UNK         0.0600 
    153 H153        0.2457  -20.5118  -40.8560 H         1 UNK         0.0600 
    154 H154       -0.8932  -18.9479  -42.4115 H         1 UNK         0.3000 
    155 H155       -1.8415  -18.0198  -45.7488 H         1 UNK         0.0600 
    156 H156       -2.4299  -16.9884  -42.9183 H         1 UNK         0.0600 
    157 H157       -2.4308  -16.0034  -44.3766 H         1 UNK         0.0600 
    158 H158       -3.6121  -17.2870  -44.1821 H         1 UNK         0.0600 
    159 H159       -0.0669  -16.7859  -43.9141 H         1 UNK         0.3000 
    160 H160        2.9413  -18.4153  -44.9226 H         1 UNK         0.0600 
    161 H161        3.5576  -16.0585  -45.4528 H         1 UNK         0.0600 
    162 H162        1.8494  -15.6276  -45.5408 H         1 UNK         0.0600 
    163 H163        2.5384  -16.7418  -46.7142 H         1 UNK         0.0600 
    164 H164        2.3304  -16.2108  -43.1765 H         1 UNK         0.3000 
    165 H165        1.9838  -18.2063  -40.1989 H         1 UNK         0.0600 
    166 H166        3.7158  -16.5716  -39.5155 H         1 UNK         0.0600 
    167 H167        4.4132  -17.7553  -40.6100 H         1 UNK         0.0600 
    168 H168        4.0242  -16.1428  -41.1981 H         1 UNK         0.0600 
    169 H169        1.7344  -15.4058  -40.6653 H         1 UNK         0.3000 
    170 H170       -1.8505  -15.3834  -40.9893 H         1 UNK         0.0600 
    171 H171       -1.3066  -13.5450  -39.4201 H         1 UNK         0.0600 
    172 H172        0.3596  -14.0962  -39.2797 H         1 UNK         0.0600 
    173 H173       -0.9553  -15.0832  -38.6492 H         1 UNK         0.0600 
    174 H174        0.5722  -14.5283  -42.3138 H         1 UNK         0.3000 
    175 H175       -0.3948  -13.4811  -44.5388 H         1 UNK         0.0600 
    176 H176       -0.6614  -11.1050  -45.2351 H         1 UNK         0.0600 
    177 H177       -1.1245  -10.6677  -43.5918 H         1 UNK         0.0600 
    178 H178       -2.1451  -11.7390  -44.5466 H         1 UNK         0.0600 
    179 H179        1.2737  -11.3575  -43.7965 H         1 UNK         0.3000 
    180 H180        3.4857  -11.5174  -43.2137 H         1 UNK         0.0600 
    181 H181        4.6931  -14.3451  -43.3658 H         1 UNK         0.0600 
    182 H182        4.4253  -13.4284  -41.8870 H         1 UNK         0.0600 
    183 H183        5.5850  -12.8543  -43.0764 H         1 UNK         0.0600 
    184 H184        3.5829  -13.3446  -45.5736 H         1 UNK         0.3000 
    185 H185        3.8641  -10.6416  -47.8033 H         1 UNK         0.0600 
    186 H186        5.8450  -12.9403  -47.3471 H         1 UNK         0.0600 
    187 H187        5.5993  -12.0726  -48.8625 H         1 UNK         0.0600 
    188 H188        6.2656  -11.2357  -47.4688 H         1 UNK         0.0600 
    189 H189        3.5512  -13.5182  -48.0542 H         1 UNK         0.3000 
    190 H190       -2.0562  -22.0253  -45.8744 H         1 UNK         0.3000 
    191 H191       -4.1331  -23.6144  -47.0288 H         1 UNK         0.0600 
    192 H192       -4.5968  -21.9512  -45.2725 H         1 UNK         0.0600 
    193 H193       -5.0948  -23.5432  -44.7218 H         1 UNK         0.0600 
    194 H194       -3.6026  -22.8342  -44.1160 H         1 UNK         0.0600 
    195 H195       -1.5528  -24.4106  -44.6277 H         1 UNK         0.3000 
    196 H196       -2.2534  -27.1306  -44.2635 H         1 UNK         0.0600 
    197 H197        0.0577  -27.3172  -43.3185 H         1 UNK         0.0600 
    198 H198       -0.7808  -25.8997  -42.7077 H         1 UNK         0.0600 
    199 H199        0.4517  -25.7247  -43.9553 H         1 UNK         0.0600 
    200 H200       -0.1589  -25.5749  -46.6855 H         1 UNK         0.3000 
    201 H201        0.7143  -27.9927  -47.9811 H         1 UNK         0.0600 
    202 H202        1.9402  -25.8229  -48.1257 H         1 UNK         0.0600 
    203 H203        0.5842  -25.1007  -48.9909 H         1 UNK         0.0600 
    204 H204        1.5078  -26.4039  -49.7257 H         1 UNK         0.0600 
    205 H205       -2.3494  -26.5527  -47.8967 H         1 UNK         0.3000 
    206 H206       -4.2594  -26.7199  -48.9603 H         1 UNK         0.0600 
    207 H207       -3.8577  -29.1866  -48.7974 H         1 UNK         0.0600 
    208 H208       -4.8263  -28.7637  -50.1994 H         1 UNK         0.0600 
    209 H209       -3.1301  -29.1747  -50.4036 H         1 UNK         0.0600 
    210 H210       -2.4665  -24.8463  -49.9372 H         1 UNK         0.3000 
    211 H211       -3.4117  -24.4939  -52.7206 H         1 UNK         0.0600 
    212 H212       -0.4984  -24.1202  -51.8270 H         1 UNK         0.0600 
    213 H213       -1.1531  -23.7928  -53.4321 H         1 UNK         0.0600 
    214 H214       -1.0775  -25.4420  -52.8383 H         1 UNK         0.0600 
    215 H215       -4.7270  -23.5083  -50.6970 H         1 UNK         0.3000 
    216 H216       -3.8332  -21.2263  -49.3645 H         1 UNK         0.0600 
    217 H217       -6.2517  -21.0024  -48.7483 H         1 UNK         0.0600 
    218 H218       -5.7396  -22.6760  -48.6567 H         1 UNK         0.0600 
    219 H219       -6.6939  -22.1209  -50.0305 H         1 UNK         0.0600 
    220 H220       -4.9412  -19.1173  -49.3525 H         1 UNK         0.3000 
    221 H221       -4.3490  -17.5307  -51.5441 H         1 UNK         0.0600 
    222 H222       -6.3342  -16.9466  -49.2767 H         1 UNK         0.0600 
    223 H223       -4.5909  -16.7917  -49.1403 H         1 UNK         0.0600 
    224 H224       -5.4759  -15.7562  -50.2496 H         1 UNK         0.0600 
    225 H225       -5.3979  -16.9526  -53.3389 H         1 UNK         0.3000 
    226 H226       -6.7897  -16.6687  -54.9887 H         1 UNK         0.0600 
    227 H227       -8.2325  -15.3907  -53.4117 H         1 UNK         0.0600 
    228 H228       -9.1871  -16.2126  -54.6361 H         1 UNK         0.0600 
    229 H229       -9.1173  -16.8614  -53.0062 H         1 UNK         0.0600 
    230 H230       -7.5831  -19.4443  -52.9786 H         1 UNK         0.3000 
    231 H231       -8.9895  -21.0194  -54.8882 H         1 UNK         0.0600 
    232 H232       -7.2777  -21.8700  -52.4873 H         1 UNK         0.0600 
    233 H233       -8.4413  -22.8890  -53.3255 H         1 UNK         0.0600 
    234 H234       -8.9955  -21.4766  -52.4383 H         1 UNK         0.0600 
    235 H235       -5.5123  -20.6344  -54.2076 H         1 UNK         0.3000 
    236 H236       -4.8634  -21.6059  -56.8820 H         1 UNK         0.0600 
    237 H237       -4.8451  -23.7602  -55.6135 H         1 UNK         0.0600 
    238 H238       -3.2145  -23.3096  -56.0900 H         1 UNK         0.0600 
    239 H239       -3.7412  -23.0561  -54.4326 H         1 UNK         0.0600 
    240 H240       -3.7392  -20.3312  -53.7266 H         1 UNK         0.3000 
    241 H241       -2.0741  -19.0983  -53.0837 H         1 UNK         0.0600 
    242 H242       -1.1010  -21.3886  -52.9428 H         1 UNK         0.3800 
    243 H243        0.4313  -21.5870  -53.7705 H         1 UNK         0.3800 
    244 H244       -1.0040  -17.3750  -54.8094 H         1 UNK         0.0800 
    245 H245       -2.2729  -17.8783  -55.8699 H         1 UNK         0.0800 
    246 H246       -2.4508  -14.6295  -52.8861 H         1 UNK         0.0800 
    247 H247       -1.0823  -15.3821  -53.6496 H         1 UNK         0.0800 
@<TRIPOS>BOND
     1    1    2 1    
     2    1  127 1    
     3    1  128 1    
     4    1  129 1    
     5    2    3 2    
     6    2    4 am   BACKBONE|DICT|INTERRES
     7    4    5 1    
     8    4  130 1    
     9    5    6 1    
    10    5   65 1    
    11    5  131 1    
    12    6    7 1    
    13    6  132 1    
    14    6  133 1    
    15    7    8 1    
    16    8    9 1    
    17    8  134 1    
    18    8  135 1    
    19    9   10 ar   
    20    9   14 ar   
    21   10   11 ar   
    22   10  136 1    
    23   11   12 ar   
    24   11  126 1    
    25   12   13 ar   
    26   12  137 1    
    27   13   14 ar   
    28   13   15 1    
    29   14  138 1    
    30   15   16 1    
    31   15  139 1    
    32   15  140 1    
    33   16   17 1    
    34   17   18 1    
    35   17  141 1    
    36   17  142 1    
    37   18   19 1    
    38   18   67 1    
    39   18  143 1    
    40   19   20 am   BACKBONE|DICT|INTERRES
    41   19  144 1    
    42   20   21 2    
    43   20   22 1    
    44   22   23 1    
    45   22   24 1    
    46   22  145 1    
    47   23  146 1    
    48   23  147 1    
    49   23  148 1    
    50   24   25 am   BACKBONE|DICT|INTERRES
    51   24  149 1    
    52   25   26 2    
    53   25   27 1    
    54   27   28 1    
    55   27   29 1    
    56   27  150 1    
    57   28  151 1    
    58   28  152 1    
    59   28  153 1    
    60   29   30 am   BACKBONE|DICT|INTERRES
    61   29  154 1    
    62   30   31 2    
    63   30   32 1    
    64   32   33 1    
    65   32   34 1    
    66   32  155 1    
    67   33  156 1    
    68   33  157 1    
    69   33  158 1    
    70   34   35 am   BACKBONE|DICT|INTERRES
    71   34  159 1    
    72   35   36 2    
    73   35   37 1    
    74   37   38 1    
    75   37   39 1    
    76   37  160 1    
    77   38  161 1    
    78   38  162 1    
    79   38  163 1    
    80   39   40 am   BACKBONE|DICT|INTERRES
    81   39  164 1    
    82   40   41 2    
    83   40   42 1    
    84   42   43 1    
    85   42   44 1    
    86   42  165 1    
    87   43  166 1    
    88   43  167 1    
    89   43  168 1    
    90   44   45 am   BACKBONE|DICT|INTERRES
    91   44  169 1    
    92   45   46 2    
    93   45   47 1    
    94   47   48 1    
    95   47   49 1    
    96   47  170 1    
    97   48  171 1    
    98   48  172 1    
    99   48  173 1    
   100   49   50 am   BACKBONE|DICT|INTERRES
   101   49  174 1    
   102   50   51 2    
   103   50   52 1    
   104   52   53 1    
   105   52   54 1    
   106   52  175 1    
   107   53  176 1    
   108   53  177 1    
   109   53  178 1    
   110   54   55 am   BACKBONE|DICT|INTERRES
   111   54  179 1    
   112   55   56 2    
   113   55   57 1    
   114   57   58 1    
   115   57   59 1    
   116   57  180 1    
   117   58  181 1    
   118   58  182 1    
   119   58  183 1    
   120   59   60 am   BACKBONE|DICT|INTERRES
   121   59  184 1    
   122   60   61 2    
   123   60   62 1    
   124   62   63 1    
   125   62   64 1    
   126   62  185 1    
   127   63  186 1    
   128   63  187 1    
   129   63  188 1    
   130   64   65 am   BACKBONE|DICT|INTERRES
   131   64  189 1    
   132   65   66 2    
   133   67   68 2    
   134   67   69 am   BACKBONE|DICT|INTERRES
   135   69   70 1    
   136   69  190 1    
   137   70   71 1    
   138   70   72 1    
   139   70  191 1    
   140   71  192 1    
   141   71  193 1    
   142   71  194 1    
   143   72   73 2    
   144   72   74 am   BACKBONE|DICT|INTERRES
   145   74   75 1    
   146   74  195 1    
   147   75   76 1    
   148   75   77 1    
   149   75  196 1    
   150   76  197 1    
   151   76  198 1    
   152   76  199 1    
   153   77   78 2    
   154   77   79 am   BACKBONE|DICT|INTERRES
   155   79   80 1    
   156   79  200 1    
   157   80   81 1    
   158   80   82 1    
   159   80  201 1    
   160   81  202 1    
   161   81  203 1    
   162   81  204 1    
   163   82   83 2    
   164   82   84 am   BACKBONE|DICT|INTERRES
   165   84   85 1    
   166   84  205 1    
   167   85   86 1    
   168   85   87 1    
   169   85  206 1    
   170   86  207 1    
   171   86  208 1    
   172   86  209 1    
   173   87   88 2    
   174   87   89 am   BACKBONE|DICT|INTERRES
   175   89   90 1    
   176   89  210 1    
   177   90   91 1    
   178   90   92 1    
   179   90  211 1    
   180   91  212 1    
   181   91  213 1    
   182   91  214 1    
   183   92   93 2    
   184   92   94 am   BACKBONE|DICT|INTERRES
   185   94   95 1    
   186   94  215 1    
   187   95   96 1    
   188   95   97 1    
   189   95  216 1    
   190   96  217 1    
   191   96  218 1    
   192   96  219 1    
   193   97   98 2    
   194   97   99 am   BACKBONE|DICT|INTERRES
   195   99  100 1    
   196   99  220 1    
   197  100  101 1    
   198  100  102 1    
   199  100  221 1    
   200  101  222 1    
   201  101  223 1    
   202  101  224 1    
   203  102  103 2    
   204  102  104 am   BACKBONE|DICT|INTERRES
   205  104  105 1    
   206  104  225 1    
   207  105  106 1    
   208  105  107 1    
   209  105  226 1    
   210  106  227 1    
   211  106  228 1    
   212  106  229 1    
   213  107  108 2    
   214  107  109 am   BACKBONE|DICT|INTERRES
   215  109  110 1    
   216  109  230 1    
   217  110  111 1    
   218  110  112 1    
   219  110  231 1    
   220  111  232 1    
   221  111  233 1    
   222  111  234 1    
   223  112  113 2    
   224  112  114 am   BACKBONE|DICT|INTERRES
   225  114  115 1    
   226  114  235 1    
   227  115  116 1    
   228  115  117 1    
   229  115  236 1    
   230  116  237 1    
   231  116  238 1    
   232  116  239 1    
   233  117  118 2    
   234  117  119 am   BACKBONE|DICT|INTERRES
   235  119  120 1    
   236  119  240 1    
   237  120  121 1    
   238  120  124 1    
   239  120  241 1    
   240  121  122 am   BACKBONE|DICT|INTERRES
   241  121  123 2    
   242  122  242 1    
   243  122  243 1    
   244  124  125 1    
   245  124  244 1    
   246  124  245 1    
   247  125  126 1    
   248  126  246 1    
   249  126  247 1    
@<TRIPOS>SUBSTRUCTURE
     1 UNK         1 GROUP             0       ****    0 ROOT    
