@<TRIPOS>MOLECULE
3R540
247   249    1
SMALL
USER_CHARGES


@<TRIPOS>ATOM
      1 CA          1.0945  -11.3986  -46.1484 C.3       0 UNK        -0.1800 
      2 C           2.3667  -12.2224  -46.2976 C.2       0 UNK         0.5000 
      3 O           2.5523  -13.1859  -45.5550 O.2       0 UNK        -0.5000 
      4 N           3.2173  -11.8286  -47.2583 N.am      1 UNK        -0.5000 
      5 CA          4.4980  -12.4278  -47.6636 C.3       1 UNK         0.1400 
      6 C6          4.3983  -13.5319  -48.7563 C.3       23 UNK        -0.0398 
      7 S7          3.1211  -14.8239  -48.5603 S.3       23 UNK        -0.2404 
      8 C8          2.9469  -15.3048  -50.3054 C.3       23 UNK        -0.0205 
      9 C9          1.9019  -16.3878  -50.5112 C.ar      23 UNK        -0.0193 
     10 C10         0.5773  -16.0402  -50.7888 C.ar      23 UNK        -0.1150 
     11 C11        -0.3746  -17.0273  -51.0591 C.ar      23 UNK        -0.0193 
     12 C12         0.0073  -18.3722  -51.0394 C.ar      23 UNK        -0.1150 
     13 C13         1.3275  -18.7321  -50.7567 C.ar      23 UNK        -0.0193 
     14 C14         2.2696  -17.7357  -50.4864 C.ar      23 UNK        -0.1150 
     15 C15         1.7462  -20.1938  -50.7781 C.3       23 UNK        -0.0205 
     16 S16         1.6583  -20.9416  -49.1243 S.3       23 UNK        -0.2404 
     17 C17        -0.1431  -21.1005  -48.9044 C.3       23 UNK        -0.0398 
     18 CA         -0.4888  -22.2051  -47.8820 C.3       11 UNK         0.1400 
     19 N          -0.1526  -21.8353  -46.5060 N.am      11 UNK        -0.5000 
     20 C          -0.1899  -22.6809  -45.4666 C.2       10 UNK         0.5000 
     21 O          -0.4217  -23.8851  -45.5750 O.2       10 UNK        -0.5000 
     22 CA         -0.0079  -22.0677  -44.0668 C.3       10 UNK         0.1400 
     23 CB          1.4795  -21.8844  -43.7316 C.3       10 UNK        -0.1800 
     24 N          -0.7149  -20.7927  -43.9282 N.am      10 UNK        -0.5000 
     25 C          -2.0478  -20.6596  -43.9915 C.2       9 UNK         0.5000 
     26 O          -2.8195  -21.6142  -44.0895 O.2       9 UNK        -0.5000 
     27 CA         -2.6125  -19.2258  -43.9942 C.3       9 UNK         0.1400 
     28 CB         -2.7298  -18.6825  -42.5633 C.3       9 UNK        -0.1800 
     29 N          -1.8192  -18.3045  -44.8113 N.am      9 UNK        -0.5000 
     30 C          -1.6894  -18.3888  -46.1434 C.2       8 UNK         0.5000 
     31 O          -2.2761  -19.2237  -46.8296 O.2       8 UNK        -0.5000 
     32 CA         -0.7024  -17.4173  -46.8193 C.3       8 UNK         0.1400 
     33 CB         -1.3714  -16.0731  -47.1411 C.3       8 UNK        -0.1800 
     34 N           0.4961  -17.1923  -46.0117 N.am      8 UNK        -0.5000 
     35 C           1.4127  -18.1348  -45.7505 C.2       7 UNK         0.5000 
     36 O           1.3504  -19.2848  -46.1823 O.2       7 UNK        -0.5000 
     37 CA          2.5461  -17.7457  -44.7843 C.3       7 UNK         0.1400 
     38 CB          3.6116  -16.8935  -45.4880 C.3       7 UNK        -0.1800 
     39 N           2.0431  -17.0253  -43.6153 N.am      7 UNK        -0.5000 
     40 C           1.2547  -17.5662  -42.6757 C.2       6 UNK         0.5000 
     41 O           0.9229  -18.7503  -42.6618 O.2       6 UNK        -0.5000 
     42 CA          0.7063  -16.6158  -41.5962 C.3       6 UNK         0.1400 
     43 CB          1.6452  -16.5746  -40.3824 C.3       6 UNK        -0.1800 
     44 N           0.4765  -15.2565  -42.0920 N.am      6 UNK        -0.5000 
     45 C          -0.4343  -14.9291  -43.0209 C.2       5 UNK         0.5000 
     46 O          -1.1406  -15.7638  -43.5865 O.2       5 UNK        -0.5000 
     47 CA         -0.5529  -13.4439  -43.4239 C.3       5 UNK         0.1400 
     48 CB         -2.0199  -12.9936  -43.5716 C.3       5 UNK        -0.1800 
     49 N           0.2064  -12.5176  -42.5742 N.am      5 UNK        -0.5000 
     50 C           0.0175  -12.2211  -41.2801 C.2       4 UNK         0.5000 
     51 O          -0.8940  -12.6875  -40.5958 O.2       4 UNK        -0.5000 
     52 CA          1.0796  -11.2970  -40.6411 C.3       4 UNK         0.1400 
     53 CB          0.8494  -11.0770  -39.1349 C.3       4 UNK        -0.1800 
     54 N           2.4340  -11.8259  -40.8382 N.am      4 UNK        -0.5000 
     55 C           3.1409  -11.7293  -41.9705 C.2       3 UNK         0.5000 
     56 O           2.7427  -11.1172  -42.9660 O.2       3 UNK        -0.5000 
     57 CA          4.4726  -12.4904  -42.0182 C.3       3 UNK         0.1400 
     58 CB          4.2399  -14.0123  -42.0026 C.3       3 UNK        -0.1800 
     59 N           5.1705  -12.1131  -43.2385 N.am      3 UNK        -0.5000 
     60 C           6.4817  -12.2219  -43.4656 C.2       2 UNK         0.5000 
     61 O           7.2756  -12.6993  -42.6525 O.2       2 UNK        -0.5000 
     62 CA          6.9899  -11.6690  -44.8129 C.3       2 UNK         0.1400 
     63 CB          8.3086  -12.3249  -45.2763 C.3       2 UNK        -0.1800 
     64 N           5.9811  -11.6852  -45.8818 N.am      2 UNK        -0.5000 
     65 C           5.4508  -12.7572  -46.4926 C.2       1 UNK         0.5000 
     66 O           5.7013  -13.9248  -46.1902 O.2       1 UNK        -0.5000 
     67 C          -1.9591  -22.6460  -48.0137 C.2       11 UNK         0.5000 
     68 O          -2.2145  -23.6434  -48.6833 O.2       11 UNK        -0.5000 
     69 N          -2.8950  -21.9488  -47.3541 N.am      12 UNK        -0.5000 
     70 CA         -4.3176  -22.3023  -47.3309 C.3       12 UNK         0.1400 
     71 CB         -5.1369  -21.1948  -46.6509 C.3       12 UNK        -0.1800 
     72 C          -4.5833  -23.6720  -46.6844 C.2       12 UNK         0.5000 
     73 O          -5.3612  -24.4563  -47.2275 O.2       12 UNK        -0.5000 
     74 N          -3.8812  -23.9654  -45.5813 N.am      13 UNK        -0.5000 
     75 CA         -3.8941  -25.2694  -44.9129 C.3       13 UNK         0.1400 
     76 CB         -3.1348  -25.1650  -43.5818 C.3       13 UNK        -0.1800 
     77 C          -3.3206  -26.4058  -45.7865 C.2       13 UNK         0.5000 
     78 O          -3.7903  -27.5400  -45.6929 O.2       13 UNK        -0.5000 
     79 N          -2.3417  -26.0752  -46.6389 N.am      14 UNK        -0.5000 
     80 CA         -1.7248  -26.9764  -47.6147 C.3       14 UNK         0.1400 
     81 CB         -0.2858  -26.4992  -47.8738 C.3       14 UNK        -0.1800 
     82 C          -2.5077  -27.0816  -48.9428 C.2       14 UNK         0.5000 
     83 O          -2.1013  -27.8567  -49.8092 O.2       14 UNK        -0.5000 
     84 N          -3.5874  -26.2979  -49.0952 N.am      15 UNK        -0.5000 
     85 CA         -4.4232  -26.1393  -50.2937 C.3       15 UNK         0.1400 
     86 CB         -5.1188  -27.4641  -50.6726 C.3       15 UNK        -0.1800 
     87 C          -3.6915  -25.4791  -51.4863 C.2       15 UNK         0.5000 
     88 O          -4.1140  -25.6385  -52.6313 O.2       15 UNK        -0.5000 
     89 N          -2.6314  -24.7155  -51.1937 N.am      16 UNK        -0.5000 
     90 CA         -1.8919  -23.8658  -52.1307 C.3       16 UNK         0.1400 
     91 CB         -0.4032  -23.8907  -51.7478 C.3       16 UNK        -0.1800 
     92 C          -2.4367  -22.4214  -52.1500 C.2       16 UNK         0.5000 
     93 O          -1.9518  -21.5919  -52.9216 O.2       16 UNK        -0.5000 
     94 N          -3.4369  -22.1445  -51.3096 N.am      17 UNK        -0.5000 
     95 CA         -4.2668  -20.9525  -51.3349 C.3       17 UNK         0.1400 
     96 CB         -3.7665  -19.9367  -50.2953 C.3       17 UNK        -0.1800 
     97 C          -5.7123  -21.3795  -51.0541 C.2       17 UNK         0.5000 
     98 O          -5.9384  -22.4892  -50.5606 O.2       17 UNK        -0.5000 
     99 N          -6.6566  -20.4845  -51.3691 N.am      18 UNK        -0.5000 
    100 CA        -8.1121  -20.5806  -51.1941 C.3       18 UNK         0.1400 
    101 CB        -8.4874  -20.7072  -49.7040 C.3       18 UNK        -0.1800 
    102 C         -8.7872  -21.6791  -52.0402 C.2       18 UNK         0.5000 
    103 O         -9.6877  -21.3754  -52.8231 O.2       18 UNK        -0.5000 
    104 N         -8.3462  -22.9288  -51.8669 N.am      19 UNK        -0.5000 
    105 CA        -8.8528  -24.1128  -52.5578 C.3       19 UNK         0.1400 
    106 CB        -8.4395  -25.3590  -51.7602 C.3       19 UNK        -0.1800 
    107 C         -8.3552  -24.2199  -54.0106 C.2       19 UNK         0.5000 
    108 O         -9.0736  -24.7514  -54.8584 O.2       19 UNK        -0.5000 
    109 N         -7.1413  -23.7228  -54.2695 N.am      20 UNK        -0.5000 
    110 CA        -6.4490  -23.7572  -55.5535 C.3       20 UNK         0.1400 
    111 CB        -5.9617  -25.1903  -55.8541 C.3       20 UNK        -0.1800 
    112 C         -5.2756  -22.7651  -55.5105 C.2       20 UNK         0.5000 
    113 O         -5.0433  -22.1384  -54.4713 O.2       20 UNK        -0.5000 
    114 N         -4.5617  -22.6495  -56.6404 N.am      21 UNK        -0.5000 
    115 CA        -3.3445  -21.8595  -56.8595 C.3       21 UNK         0.1400 
    116 CB        -2.1372  -22.5364  -56.1794 C.3       21 UNK        -0.1800 
    117 C         -3.5242  -20.3715  -56.4971 C.2       21 UNK         0.5000 
    118 O         -4.0800  -19.6285  -57.3077 O.2       21 UNK        -0.5000 
    119 N         -3.0797  -19.9640  -55.3001 N.am      22 UNK        -0.5000 
    120 CA        -3.3015  -18.6167  -54.7484 C.3       22 UNK         0.1400 
    121 C         -4.7887  -18.3200  -54.3692 C.2       22 UNK         0.5000 
    122 N         -5.6646  -19.3143  -54.2673 N.am      22 UNK        -0.7600 
    123 O         -5.1702  -17.1660  -54.2004 O.2       22 UNK        -0.5000 
    124 C124       -2.3128  -18.3397  -53.5859 C.3       23 UNK        -0.0398 
    125 S125       -2.0799  -16.5711  -53.1939 S.3       23 UNK        -0.2404 
    126 C126       -1.8050  -16.6317  -51.3933 C.3       23 UNK        -0.0205 
    127 H127        1.0978  -10.5244  -46.7998 H         1 UNK         0.0600 
    128 H128        0.9865  -11.0511  -45.1214 H         1 UNK         0.0600 
    129 H129        0.2243  -12.0043  -46.4008 H         1 UNK         0.0600 
    130 H130        2.9586  -11.0151  -47.7984 H         1 UNK         0.3000 
    131 H131        5.0044  -11.6046  -48.1716 H         1 UNK         0.0600 
    132 H132        4.2012  -13.0312  -49.7051 H         1 UNK         0.0800 
    133 H133        5.3622  -14.0241  -48.8974 H         1 UNK         0.0800 
    134 H134        2.6822  -14.4280  -50.8985 H         1 UNK         0.0800 
    135 H135        3.9126  -15.6468  -50.6811 H         1 UNK         0.0800 
    136 H136        0.2929  -14.9976  -50.8173 H         1 UNK         0.1150 
    137 H137       -0.7144  -19.1423  -51.2652 H         1 UNK         0.1150 
    138 H138        3.2943  -18.0089  -50.2769 H         1 UNK         0.1150 
    139 H139        1.1306  -20.7611  -51.4783 H         1 UNK         0.0800 
    140 H140        2.7708  -20.2752  -51.1441 H         1 UNK         0.0800 
    141 H141       -0.5853  -21.3224  -49.8768 H         1 UNK         0.0800 
    142 H142       -0.5510  -20.1380  -48.5976 H         1 UNK         0.0800 
    143 H143        0.1123  -23.0828  -48.1294 H         1 UNK         0.0600 
    144 H144        0.1223  -20.8709  -46.3463 H         1 UNK         0.3000 
    145 H145       -0.4332  -22.7654  -43.3424 H         1 UNK         0.0600 
    146 H146        1.6108  -21.5176  -42.7136 H         1 UNK         0.0600 
    147 H147        1.9633  -21.1779  -44.4057 H         1 UNK         0.0600 
    148 H148        2.0156  -22.8311  -43.8084 H         1 UNK         0.0600 
    149 H149       -0.1423  -19.9678  -43.7776 H         1 UNK         0.3000 
    150 H150       -3.6162  -19.2648  -44.4221 H         1 UNK         0.0600 
    151 H151       -3.1391  -17.6721  -42.5551 H         1 UNK         0.0600 
    152 H152       -1.7630  -18.6578  -42.0620 H         1 UNK         0.0600 
    153 H153       -3.3920  -19.3083  -41.9639 H         1 UNK         0.0600 
    154 H154       -1.3612  -17.5379  -44.3269 H         1 UNK         0.3000 
    155 H155       -0.3873  -17.8659  -47.7639 H         1 UNK         0.0600 
    156 H156       -2.2466  -16.2182  -47.7756 H         1 UNK         0.0600 
    157 H157       -0.6884  -15.4136  -47.6775 H         1 UNK         0.0600 
    158 H158       -1.7008  -15.5565  -46.2392 H         1 UNK         0.0600 
    159 H159        0.5974  -16.2827  -45.5882 H         1 UNK         0.3000 
    160 H160        3.0207  -18.6673  -44.4407 H         1 UNK         0.0600 
    161 H161        3.2205  -15.9173  -45.7760 H         1 UNK         0.0600 
    162 H162        3.9726  -17.3828  -46.3935 H         1 UNK         0.0600 
    163 H163        4.4735  -16.7255  -44.8421 H         1 UNK         0.0600 
    164 H164        2.2564  -16.0409  -43.5601 H         1 UNK         0.3000 
    165 H165       -0.2555  -17.0090  -41.2623 H         1 UNK         0.0600 
    166 H166        1.2825  -15.8845  -39.6203 H         1 UNK         0.0600 
    167 H167        1.7182  -17.5596  -39.9195 H         1 UNK         0.0600 
    168 H168        2.6547  -16.2752  -40.6610 H         1 UNK         0.0600 
    169 H169        1.0083  -14.5145  -41.6645 H         1 UNK         0.3000 
    170 H170       -0.0951  -13.3826  -44.4107 H         1 UNK         0.0600 
    171 H171       -2.5729  -13.0970  -42.6379 H         1 UNK         0.0600 
    172 H172       -2.0822  -11.9521  -43.8870 H         1 UNK         0.0600 
    173 H173       -2.5385  -13.5897  -44.3234 H         1 UNK         0.0600 
    174 H174        1.0120  -12.0854  -43.0178 H         1 UNK         0.3000 
    175 H175        1.0000  -10.3254  -41.1335 H         1 UNK         0.0600 
    176 H176        0.9110  -12.0117  -38.5761 H         1 UNK         0.0600 
    177 H177        1.5866  -10.3892  -38.7204 H         1 UNK         0.0600 
    178 H178       -0.1348  -10.6455  -38.9480 H         1 UNK         0.0600 
    179 H179        2.8178  -12.3549  -40.0681 H         1 UNK         0.3000 
    180 H180        5.0686  -12.1944  -41.1525 H         1 UNK         0.0600 
    181 H181        5.1793  -14.5610  -42.0707 H         1 UNK         0.0600 
    182 H182        3.6090  -14.3292  -42.8343 H         1 UNK         0.0600 
    183 H183        3.7571  -14.3201  -41.0762 H         1 UNK         0.0600 
    184 H184        4.5739  -11.6892  -43.9387 H         1 UNK         0.3000 
    185 H185        7.2060  -10.6156  -44.6295 H         1 UNK         0.0600 
    186 H186        8.6456  -11.9074  -46.2250 H         1 UNK         0.0600 
    187 H187        9.1048  -12.1579  -44.5500 H         1 UNK         0.0600 
    188 H188        8.2046  -13.4030  -45.4009 H         1 UNK         0.0600 
    189 H189        5.6811  -10.7723  -46.1958 H         1 UNK         0.3000 
    190 H190       -2.6268  -21.0902  -46.8809 H         1 UNK         0.3000 
    191 H191       -4.6469  -22.3721  -48.3661 H         1 UNK         0.0600 
    192 H192       -4.9597  -20.2241  -47.1135 H         1 UNK         0.0600 
    193 H193       -4.9015  -21.1069  -45.5912 H         1 UNK         0.0600 
    194 H194       -6.2047  -21.4017  -46.7311 H         1 UNK         0.0600 
    195 H195       -3.2943  -23.2433  -45.1738 H         1 UNK         0.3000 
    196 H196       -4.9339  -25.5182  -44.6913 H         1 UNK         0.0600 
    197 H197       -3.5712  -24.4012  -42.9377 H         1 UNK         0.0600 
    198 H198       -2.0854  -24.9127  -43.7343 H         1 UNK         0.0600 
    199 H199       -3.1695  -26.1095  -43.0376 H         1 UNK         0.0600 
    200 H200       -1.9879  -25.1263  -46.6197 H         1 UNK         0.3000 
    201 H201       -1.6748  -27.9800  -47.1876 H         1 UNK         0.0600 
    202 H202        0.2820  -26.4334  -46.9455 H         1 UNK         0.0600 
    203 H203       -0.2662  -25.5179  -48.3478 H         1 UNK         0.0600 
    204 H204        0.2451  -27.1896  -48.5302 H         1 UNK         0.0600 
    205 H205       -3.8271  -25.6852  -48.3255 H         1 UNK         0.3000 
    206 H206       -5.2064  -25.4345  -50.0099 H         1 UNK         0.0600 
    207 H207       -4.4088  -28.2090  -51.0316 H         1 UNK         0.0600 
    208 H208       -5.6494  -27.8876  -49.8199 H         1 UNK         0.0600 
    209 H209       -5.8515  -27.3118  -51.4652 H         1 UNK         0.0600 
    210 H210       -2.3982  -24.5838  -50.2108 H         1 UNK         0.3000 
    211 H211       -1.9903  -24.2617  -53.1431 H         1 UNK         0.0600 
    212 H212       -0.2405  -23.5439  -50.7280 H         1 UNK         0.0600 
    213 H213        0.1861  -23.2560  -52.4108 H         1 UNK         0.0600 
    214 H214        0.0012  -24.9003  -51.8216 H         1 UNK         0.0600 
    215 H215       -3.8089  -22.8943  -50.7416 H         1 UNK         0.3000 
    216 H216       -4.2311  -20.5126  -52.3301 H         1 UNK         0.0600 
    217 H217       -4.2741  -18.9790  -50.4118 H         1 UNK         0.0600 
    218 H218       -3.9452  -20.2729  -49.2772 H         1 UNK         0.0600 
    219 H219       -2.6983  -19.7575  -50.3934 H         1 UNK         0.0600 
    220 H220       -6.3471  -19.6217  -51.7944 H         1 UNK         0.3000 
    221 H221       -8.5128  -19.6285  -51.5458 H         1 UNK         0.0600 
    222 H222       -8.1210  -21.6346  -49.2629 H         1 UNK         0.0600 
    223 H223       -8.0789  -19.8793  -49.1246 H         1 UNK         0.0600 
    224 H224       -9.5702  -20.6918  -49.5738 H         1 UNK         0.0600 
    225 H225       -7.5583  -23.0573  -51.2361 H         1 UNK         0.3000 
    226 H226       -9.9436  -24.0646  -52.5797 H         1 UNK         0.0600 
    227 H227       -8.8513  -25.3367  -50.7511 H         1 UNK         0.0600 
    228 H228       -8.7998  -26.2703  -52.2395 H         1 UNK         0.0600 
    229 H229       -7.3550  -25.4357  -51.6779 H         1 UNK         0.0600 
    230 H230       -6.6229  -23.2561  -53.5359 H         1 UNK         0.3000 
    231 H231       -7.1377  -23.4302  -56.3349 H         1 UNK         0.0600 
    232 H232       -5.4638  -25.2495  -56.8221 H         1 UNK         0.0600 
    233 H233       -6.7893  -25.8988  -55.8824 H         1 UNK         0.0600 
    234 H234       -5.2544  -25.5366  -55.1000 H         1 UNK         0.0600 
    235 H235       -4.8715  -23.1752  -57.4454 H         1 UNK         0.3000 
    236 H236       -3.1541  -21.8787  -57.9338 H         1 UNK         0.0600 
    237 H237       -2.3367  -22.7721  -55.1371 H         1 UNK         0.0600 
    238 H238       -1.8911  -23.4737  -56.6782 H         1 UNK         0.0600 
    239 H239       -1.2472  -21.9071  -56.2201 H         1 UNK         0.0600 
    240 H240       -2.6778  -20.6467  -54.6657 H         1 UNK         0.3000 
    241 H241       -3.0566  -17.9151  -55.5481 H         1 UNK         0.0600 
    242 H242       -6.6349  -19.0945  -54.1139 H         1 UNK         0.3800 
    243 H243       -5.3788  -20.2769  -54.4260 H         1 UNK         0.3800 
    244 H244       -1.3272  -18.7345  -53.8376 H         1 UNK         0.0800 
    245 H245       -2.6252  -18.8777  -52.6938 H         1 UNK         0.0800 
    246 H246       -2.0227  -15.6469  -50.9772 H         1 UNK         0.0800 
    247 H247       -2.5104  -17.3149  -50.9210 H         1 UNK         0.0800 
@<TRIPOS>BOND
     1    1    2 1    
     2    1  127 1    
     3    1  128 1    
     4    1  129 1    
     5    2    3 2    
     6    2    4 am   BACKBONE|DICT|INTERRES
     7    4    5 1    
     8    4  130 1    
     9    5    6 1    
    10    5   65 1    
    11    5  131 1    
    12    6    7 1    
    13    6  132 1    
    14    6  133 1    
    15    7    8 1    
    16    8    9 1    
    17    8  134 1    
    18    8  135 1    
    19    9   10 ar   
    20    9   14 ar   
    21   10   11 ar   
    22   10  136 1    
    23   11   12 ar   
    24   11  126 1    
    25   12   13 ar   
    26   12  137 1    
    27   13   14 ar   
    28   13   15 1    
    29   14  138 1    
    30   15   16 1    
    31   15  139 1    
    32   15  140 1    
    33   16   17 1    
    34   17   18 1    
    35   17  141 1    
    36   17  142 1    
    37   18   19 1    
    38   18   67 1    
    39   18  143 1    
    40   19   20 am   BACKBONE|DICT|INTERRES
    41   19  144 1    
    42   20   21 2    
    43   20   22 1    
    44   22   23 1    
    45   22   24 1    
    46   22  145 1    
    47   23  146 1    
    48   23  147 1    
    49   23  148 1    
    50   24   25 am   BACKBONE|DICT|INTERRES
    51   24  149 1    
    52   25   26 2    
    53   25   27 1    
    54   27   28 1    
    55   27   29 1    
    56   27  150 1    
    57   28  151 1    
    58   28  152 1    
    59   28  153 1    
    60   29   30 am   BACKBONE|DICT|INTERRES
    61   29  154 1    
    62   30   31 2    
    63   30   32 1    
    64   32   33 1    
    65   32   34 1    
    66   32  155 1    
    67   33  156 1    
    68   33  157 1    
    69   33  158 1    
    70   34   35 am   BACKBONE|DICT|INTERRES
    71   34  159 1    
    72   35   36 2    
    73   35   37 1    
    74   37   38 1    
    75   37   39 1    
    76   37  160 1    
    77   38  161 1    
    78   38  162 1    
    79   38  163 1    
    80   39   40 am   BACKBONE|DICT|INTERRES
    81   39  164 1    
    82   40   41 2    
    83   40   42 1    
    84   42   43 1    
    85   42   44 1    
    86   42  165 1    
    87   43  166 1    
    88   43  167 1    
    89   43  168 1    
    90   44   45 am   BACKBONE|DICT|INTERRES
    91   44  169 1    
    92   45   46 2    
    93   45   47 1    
    94   47   48 1    
    95   47   49 1    
    96   47  170 1    
    97   48  171 1    
    98   48  172 1    
    99   48  173 1    
   100   49   50 am   BACKBONE|DICT|INTERRES
   101   49  174 1    
   102   50   51 2    
   103   50   52 1    
   104   52   53 1    
   105   52   54 1    
   106   52  175 1    
   107   53  176 1    
   108   53  177 1    
   109   53  178 1    
   110   54   55 am   BACKBONE|DICT|INTERRES
   111   54  179 1    
   112   55   56 2    
   113   55   57 1    
   114   57   58 1    
   115   57   59 1    
   116   57  180 1    
   117   58  181 1    
   118   58  182 1    
   119   58  183 1    
   120   59   60 am   BACKBONE|DICT|INTERRES
   121   59  184 1    
   122   60   61 2    
   123   60   62 1    
   124   62   63 1    
   125   62   64 1    
   126   62  185 1    
   127   63  186 1    
   128   63  187 1    
   129   63  188 1    
   130   64   65 am   BACKBONE|DICT|INTERRES
   131   64  189 1    
   132   65   66 2    
   133   67   68 2    
   134   67   69 am   BACKBONE|DICT|INTERRES
   135   69   70 1    
   136   69  190 1    
   137   70   71 1    
   138   70   72 1    
   139   70  191 1    
   140   71  192 1    
   141   71  193 1    
   142   71  194 1    
   143   72   73 2    
   144   72   74 am   BACKBONE|DICT|INTERRES
   145   74   75 1    
   146   74  195 1    
   147   75   76 1    
   148   75   77 1    
   149   75  196 1    
   150   76  197 1    
   151   76  198 1    
   152   76  199 1    
   153   77   78 2    
   154   77   79 am   BACKBONE|DICT|INTERRES
   155   79   80 1    
   156   79  200 1    
   157   80   81 1    
   158   80   82 1    
   159   80  201 1    
   160   81  202 1    
   161   81  203 1    
   162   81  204 1    
   163   82   83 2    
   164   82   84 am   BACKBONE|DICT|INTERRES
   165   84   85 1    
   166   84  205 1    
   167   85   86 1    
   168   85   87 1    
   169   85  206 1    
   170   86  207 1    
   171   86  208 1    
   172   86  209 1    
   173   87   88 2    
   174   87   89 am   BACKBONE|DICT|INTERRES
   175   89   90 1    
   176   89  210 1    
   177   90   91 1    
   178   90   92 1    
   179   90  211 1    
   180   91  212 1    
   181   91  213 1    
   182   91  214 1    
   183   92   93 2    
   184   92   94 am   BACKBONE|DICT|INTERRES
   185   94   95 1    
   186   94  215 1    
   187   95   96 1    
   188   95   97 1    
   189   95  216 1    
   190   96  217 1    
   191   96  218 1    
   192   96  219 1    
   193   97   98 2    
   194   97   99 am   BACKBONE|DICT|INTERRES
   195   99  100 1    
   196   99  220 1    
   197  100  101 1    
   198  100  102 1    
   199  100  221 1    
   200  101  222 1    
   201  101  223 1    
   202  101  224 1    
   203  102  103 2    
   204  102  104 am   BACKBONE|DICT|INTERRES
   205  104  105 1    
   206  104  225 1    
   207  105  106 1    
   208  105  107 1    
   209  105  226 1    
   210  106  227 1    
   211  106  228 1    
   212  106  229 1    
   213  107  108 2    
   214  107  109 am   BACKBONE|DICT|INTERRES
   215  109  110 1    
   216  109  230 1    
   217  110  111 1    
   218  110  112 1    
   219  110  231 1    
   220  111  232 1    
   221  111  233 1    
   222  111  234 1    
   223  112  113 2    
   224  112  114 am   BACKBONE|DICT|INTERRES
   225  114  115 1    
   226  114  235 1    
   227  115  116 1    
   228  115  117 1    
   229  115  236 1    
   230  116  237 1    
   231  116  238 1    
   232  116  239 1    
   233  117  118 2    
   234  117  119 am   BACKBONE|DICT|INTERRES
   235  119  120 1    
   236  119  240 1    
   237  120  121 1    
   238  120  124 1    
   239  120  241 1    
   240  121  122 am   BACKBONE|DICT|INTERRES
   241  121  123 2    
   242  122  242 1    
   243  122  243 1    
   244  124  125 1    
   245  124  244 1    
   246  124  245 1    
   247  125  126 1    
   248  126  246 1    
   249  126  247 1    
@<TRIPOS>SUBSTRUCTURE
     1 UNK         1 GROUP             0       ****    0 ROOT    
