@<TRIPOS>MOLECULE
3R540
247   249    1
SMALL
USER_CHARGES


@<TRIPOS>ATOM
      1 CA         -0.6472   -9.9468  -50.2932 C.3       0 UNK        -0.1800 
      2 C           0.4349  -10.5326  -51.1896 C.2       0 UNK         0.5000 
      3 O           1.2952   -9.7973  -51.6756 O.2       0 UNK        -0.5000 
      4 N           0.3882  -11.8505  -51.4128 N.am      1 UNK        -0.5000 
      5 CA          1.3932  -12.6189  -52.1528 C.3       1 UNK         0.1400 
      6 C6          0.7697  -13.9105  -52.7494 C.3       23 UNK        -0.0398 
      7 S7          0.3655  -15.1827  -51.5047 S.3       23 UNK        -0.2404 
      8 C8         -1.4495  -15.1400  -51.4455 C.3       23 UNK        -0.0205 
      9 C9         -1.9555  -15.9051  -50.2326 C.ar      23 UNK        -0.0193 
     10 C10        -2.6313  -15.2432  -49.2032 C.ar      23 UNK        -0.1150 
     11 C11        -3.0709  -15.9425  -48.0741 C.ar      23 UNK        -0.0193 
     12 C12        -2.8201  -17.3135  -47.9758 C.ar      23 UNK        -0.1150 
     13 C13        -2.1422  -17.9840  -48.9973 C.ar      23 UNK        -0.0193 
     14 C14        -1.7241  -17.2784  -50.1268 C.ar      23 UNK        -0.1150 
     15 C15        -1.8433  -19.4666  -48.8835 C.3       23 UNK        -0.0205 
     16 S16        -0.2964  -19.7534  -47.9712 S.3       23 UNK        -0.2404 
     17 C17        -0.9283  -20.1892  -46.3162 C.3       23 UNK        -0.0398 
     18 CA         -0.9600  -21.7234  -46.1242 C.3       11 UNK         0.1400 
     19 N          -0.8580  -22.1171  -44.7205 N.am      11 UNK        -0.5000 
     20 C          -0.6114  -23.3682  -44.3086 C.2       10 UNK         0.5000 
     21 O          -0.4167  -24.3154  -45.0697 O.2       10 UNK        -0.5000 
     22 CA         -0.6505  -23.6110  -42.7928 C.3       10 UNK         0.1400 
     23 CB          0.6303  -23.0958  -42.1192 C.3       10 UNK        -0.1800 
     24 N          -1.8254  -22.9904  -42.1812 N.am      10 UNK        -0.5000 
     25 C          -3.0863  -23.3880  -42.4041 C.2       9 UNK         0.5000 
     26 O          -3.3860  -24.3382  -43.1269 O.2       9 UNK        -0.5000 
     27 CA         -4.2015  -22.5734  -41.7271 C.3       9 UNK         0.1400 
     28 CB         -4.4842  -23.1149  -40.3180 C.3       9 UNK        -0.1800 
     29 N          -3.8963  -21.1457  -41.6424 N.am      9 UNK        -0.5000 
     30 C          -3.8349  -20.3157  -42.6927 C.2       8 UNK         0.5000 
     31 O          -3.9886  -20.6647  -43.8654 O.2       8 UNK        -0.5000 
     32 CA         -3.4976  -18.8506  -42.3648 C.3       8 UNK         0.1400 
     33 CB         -4.6367  -18.1940  -41.5654 C.3       8 UNK        -0.1800 
     34 N          -2.2476  -18.6764  -41.6194 N.am      8 UNK        -0.5000 
     35 C          -1.0494  -19.1760  -41.9470 C.2       7 UNK         0.5000 
     36 O          -0.8525  -19.9581  -42.8796 O.2       7 UNK        -0.5000 
     37 CA          0.1303  -18.7383  -41.0582 C.3       7 UNK         0.1400 
     38 CB          0.3439  -19.7368  -39.9104 C.3       7 UNK        -0.1800 
     39 N           1.3709  -18.6105  -41.8247 N.am      7 UNK        -0.5000 
     40 C           1.5632  -17.7158  -42.8030 C.2       6 UNK         0.5000 
     41 O           0.7360  -16.8527  -43.1082 O.2       6 UNK        -0.5000 
     42 CA          2.8929  -17.8289  -43.5736 C.3       6 UNK         0.1400 
     43 CB          2.8606  -19.0341  -44.5286 C.3       6 UNK        -0.1800 
     44 N           3.1752  -16.6163  -44.3438 N.am      6 UNK        -0.5000 
     45 C           3.6017  -15.4609  -43.8104 C.2       5 UNK         0.5000 
     46 O           3.9112  -15.3373  -42.6241 O.2       5 UNK        -0.5000 
     47 CA          3.7131  -14.2339  -44.7419 C.3       5 UNK         0.1400 
     48 CB          5.1722  -14.0138  -45.1701 C.3       5 UNK        -0.1800 
     49 N           2.8864  -14.3401  -45.9424 N.am      5 UNK        -0.5000 
     50 C           1.5477  -14.2754  -45.9718 C.2       4 UNK         0.5000 
     51 O           0.8623  -13.9589  -44.9994 O.2       4 UNK        -0.5000 
     52 CA          0.8541  -14.6283  -47.3060 C.3       4 UNK         0.1400 
     53 CB          0.2049  -13.3790  -47.9230 C.3       4 UNK        -0.1800 
     54 N           1.7364  -15.2544  -48.2989 N.am      4 UNK        -0.5000 
     55 C           2.3206  -16.4556  -48.1675 C.2       3 UNK         0.5000 
     56 O           2.2336  -17.1377  -47.1479 O.2       3 UNK        -0.5000 
     57 CA          3.1833  -16.9696  -49.3354 C.3       3 UNK         0.1400 
     58 CB          2.4463  -18.0771  -50.0993 C.3       3 UNK        -0.1800 
     59 N           3.5877  -15.9166  -50.2702 N.am      3 UNK        -0.5000 
     60 C           4.5837  -15.0479  -50.0431 C.2       2 UNK         0.5000 
     61 O           5.2621  -15.0448  -49.0153 O.2       2 UNK        -0.5000 
     62 CA          4.8584  -13.9948  -51.1383 C.3       2 UNK         0.1400 
     63 CB          5.8755  -14.5331  -52.1560 C.3       2 UNK        -0.1800 
     64 N           3.6530  -13.5559  -51.8498 N.am      2 UNK        -0.5000 
     65 C           2.6366  -12.9016  -51.2710 C.2       1 UNK         0.5000 
     66 O           2.6454  -12.5774  -50.0808 O.2       1 UNK        -0.5000 
     67 C          -2.1803  -22.3673  -46.8132 C.2       11 UNK         0.5000 
     68 O          -2.0574  -22.8050  -47.9569 O.2       11 UNK        -0.5000 
     69 N          -3.3148  -22.4615  -46.1023 N.am      12 UNK        -0.5000 
     70 CA         -4.5242  -23.1320  -46.5826 C.3       12 UNK         0.1400 
     71 CB         -5.6864  -22.8992  -45.6070 C.3       12 UNK        -0.1800 
     72 C          -4.3167  -24.6357  -46.8404 C.2       12 UNK         0.5000 
     73 O          -4.8133  -25.1515  -47.8415 O.2       12 UNK        -0.5000 
     74 N          -3.5679  -25.3022  -45.9512 N.am      13 UNK        -0.5000 
     75 CA         -3.1780  -26.7039  -46.0905 C.3       13 UNK         0.1400 
     76 CB         -2.6335  -27.2191  -44.7493 C.3       13 UNK        -0.1800 
     77 C          -2.1530  -26.9238  -47.2189 C.2       13 UNK         0.5000 
     78 O          -2.2851  -27.8864  -47.9760 O.2       13 UNK        -0.5000 
     79 N          -1.1503  -26.0388  -47.3072 N.am      14 UNK        -0.5000 
     80 CA         -0.0747  -26.1050  -48.2973 C.3       14 UNK         0.1400 
     81 CB          1.0691  -25.1718  -47.8692 C.3       14 UNK        -0.1800 
     82 C          -0.5303  -25.7598  -49.7263 C.2       14 UNK         0.5000 
     83 O          -0.0564  -26.3877  -50.6740 O.2       14 UNK        -0.5000 
     84 N          -1.4104  -24.7545  -49.8497 N.am      15 UNK        -0.5000 
     85 CA         -1.8573  -24.1134  -51.0910 C.3       15 UNK         0.1400 
     86 CB         -2.7427  -25.0624  -51.9235 C.3       15 UNK        -0.1800 
     87 C          -0.6793  -23.5049  -51.8814 C.2       15 UNK         0.5000 
     88 O          -0.5535  -23.7149  -53.0898 O.2       15 UNK        -0.5000 
     89 N           0.1876  -22.7854  -51.1577 N.am      16 UNK        -0.5000 
     90 CA          1.3358  -22.0715  -51.7050 C.3       16 UNK         0.1400 
     91 CB          2.3466  -21.8225  -50.5757 C.3       16 UNK        -0.1800 
     92 C           0.8874  -20.7471  -52.3443 C.2       16 UNK         0.5000 
     93 O           0.1005  -20.0203  -51.7375 O.2       16 UNK        -0.5000 
     94 N           1.3985  -20.4597  -53.5497 N.am      17 UNK        -0.5000 
     95 CA          1.1750  -19.2726  -54.3930 C.3       17 UNK         0.1400 
     96 CB          1.6627  -17.9899  -53.6945 C.3       17 UNK        -0.1800 
     97 C          -0.2639  -19.0897  -54.9238 C.2       17 UNK         0.5000 
     98 O          -0.4283  -18.7164  -56.0862 O.2       17 UNK        -0.5000 
     99 N          -1.2689  -19.3570  -54.0876 N.am      18 UNK        -0.5000 
    100 CA        -2.6921  -19.3045  -54.3951 C.3       18 UNK         0.1400 
    101 CB        -3.3062  -18.0898  -53.6825 C.3       18 UNK        -0.1800 
    102 C         -3.3611  -20.6055  -53.9289 C.2       18 UNK         0.5000 
    103 O         -2.8272  -21.3040  -53.0631 O.2       18 UNK        -0.5000 
    104 N         -4.5339  -20.9023  -54.5022 N.am      19 UNK        -0.5000 
    105 CA        -5.3528  -22.0815  -54.2146 C.3       19 UNK         0.1400 
    106 CB        -6.3837  -22.2532  -55.3443 C.3       19 UNK        -0.1800 
    107 C         -6.0141  -21.9961  -52.8237 C.2       19 UNK         0.5000 
    108 O         -7.2075  -21.7060  -52.7184 O.2       19 UNK        -0.5000 
    109 N         -5.1986  -22.2029  -51.7827 N.am      20 UNK        -0.5000 
    110 CA        -5.4828  -22.1501  -50.3436 C.3       20 UNK         0.1400 
    111 CB        -6.6093  -23.1213  -49.9413 C.3       20 UNK        -0.1800 
    112 C         -5.7439  -20.7283  -49.8139 C.2       20 UNK         0.5000 
    113 O         -5.1589  -20.3529  -48.7979 O.2       20 UNK        -0.5000 
    114 N         -6.5903  -19.9636  -50.5174 N.am      21 UNK        -0.5000 
    115 CA        -6.9452  -18.5639  -50.2722 C.3       21 UNK         0.1400 
    116 CB        -5.8011  -17.6492  -50.7658 C.3       21 UNK        -0.1800 
    117 C         -7.3702  -18.3143  -48.8080 C.2       21 UNK         0.5000 
    118 O         -8.3424  -18.9176  -48.3497 O.2       21 UNK        -0.5000 
    119 N         -6.6314  -17.4484  -48.1101 N.am      22 UNK        -0.5000 
    120 CA        -6.7743  -17.1295  -46.6845 C.3       22 UNK         0.1400 
    121 C         -5.9525  -18.0484  -45.7313 C.2       22 UNK         0.5000 
    122 N         -5.3036  -19.1137  -46.1862 N.am      22 UNK        -0.7600 
    123 O         -5.9236  -17.8015  -44.5311 O.2       22 UNK        -0.5000 
    124 C124       -6.5781  -15.6077  -46.3933 C.3       23 UNK        -0.0398 
    125 S125       -5.4562  -14.6861  -47.5081 S.3       23 UNK        -0.2404 
    126 C126       -3.8016  -15.2076  -46.9605 C.3       23 UNK        -0.0205 
    127 H127       -1.2251   -9.2010  -50.8391 H         1 UNK         0.0600 
    128 H128       -0.1947   -9.4635  -49.4273 H         1 UNK         0.0600 
    129 H129       -1.3340  -10.7132  -49.9327 H         1 UNK         0.0600 
    130 H130       -0.3182  -12.4027  -50.9511 H         1 UNK         0.3000 
    131 H131        1.7352  -12.0075  -52.9905 H         1 UNK         0.0600 
    132 H132       -0.1245  -13.6635  -53.3235 H         1 UNK         0.0800 
    133 H133        1.4543  -14.3596  -53.4701 H         1 UNK         0.0800 
    134 H134       -1.8539  -15.5851  -52.3549 H         1 UNK         0.0800 
    135 H135       -1.7936  -14.1054  -51.4191 H         1 UNK         0.0800 
    136 H136       -2.8154  -14.1806  -49.2747 H         1 UNK         0.1150 
    137 H137       -3.1381  -17.8581  -47.0999 H         1 UNK         0.1150 
    138 H138       -1.1901  -17.7934  -50.9135 H         1 UNK         0.1150 
    139 H139       -2.6724  -19.9788  -48.3988 H         1 UNK         0.0800 
    140 H140       -1.7592  -19.9105  -49.8761 H         1 UNK         0.0800 
    141 H141       -1.9015  -19.7325  -46.1281 H         1 UNK         0.0800 
    142 H142       -0.2474  -19.7373  -45.5942 H         1 UNK         0.0800 
    143 H143       -0.0712  -22.1347  -46.6079 H         1 UNK         0.0600 
    144 H144       -0.9876  -21.3823  -44.0270 H         1 UNK         0.3000 
    145 H145       -0.7117  -24.6886  -42.6260 H         1 UNK         0.0600 
    146 H146        0.6089  -23.2682  -41.0431 H         1 UNK         0.0600 
    147 H147        1.5073  -23.6108  -42.5133 H         1 UNK         0.0600 
    148 H148        0.7781  -22.0294  -42.2887 H         1 UNK         0.0600 
    149 H149       -1.6694  -22.1682  -41.6181 H         1 UNK         0.3000 
    150 H150       -5.1085  -22.6899  -42.3233 H         1 UNK         0.0600 
    151 H151       -4.7368  -24.1757  -40.3515 H         1 UNK         0.0600 
    152 H152       -5.3256  -22.5965  -39.8577 H         1 UNK         0.0600 
    153 H153       -3.6203  -23.0036  -39.6615 H         1 UNK         0.0600 
    154 H154       -3.7377  -20.7680  -40.7201 H         1 UNK         0.3000 
    155 H155       -3.3934  -18.3219  -43.3144 H         1 UNK         0.0600 
    156 H156       -4.6776  -18.5603  -40.5391 H         1 UNK         0.0600 
    157 H157       -4.5165  -17.1111  -41.5300 H         1 UNK         0.0600 
    158 H158       -5.6083  -18.3960  -42.0171 H         1 UNK         0.0600 
    159 H159       -2.3011  -18.0563  -40.8246 H         1 UNK         0.3000 
    160 H160       -0.0996  -17.7609  -40.6285 H         1 UNK         0.0600 
    161 H161        0.6116  -20.7271  -40.2779 H         1 UNK         0.0600 
    162 H162       -0.5606  -19.8437  -39.3102 H         1 UNK         0.0600 
    163 H163        1.1372  -19.4032  -39.2413 H         1 UNK         0.0600 
    164 H164        2.0795  -19.3075  -41.6504 H         1 UNK         0.3000 
    165 H165        3.6990  -17.9796  -42.8524 H         1 UNK         0.0600 
    166 H166        3.7851  -19.1114  -45.1009 H         1 UNK         0.0600 
    167 H167        2.7379  -19.9693  -43.9811 H         1 UNK         0.0600 
    168 H168        2.0345  -18.9631  -45.2365 H         1 UNK         0.0600 
    169 H169        2.8880  -16.6349  -45.3173 H         1 UNK         0.3000 
    170 H170        3.3853  -13.3595  -44.1759 H         1 UNK         0.0600 
    171 H171        5.8232  -13.9047  -44.3016 H         1 UNK         0.0600 
    172 H172        5.5482  -14.8506  -45.7605 H         1 UNK         0.0600 
    173 H173        5.2757  -13.1085  -45.7687 H         1 UNK         0.0600 
    174 H174        3.3627  -14.5893  -46.7974 H         1 UNK         0.3000 
    175 H175        0.0616  -15.3454  -47.0803 H         1 UNK         0.0600 
    176 H176       -0.2577  -13.6030  -48.8830 H         1 UNK         0.0600 
    177 H177        0.9328  -12.5826  -48.0784 H         1 UNK         0.0600 
    178 H178       -0.5754  -12.9848  -47.2712 H         1 UNK         0.0600 
    179 H179        1.8859  -14.7372  -49.1539 H         1 UNK         0.3000 
    180 H180        4.0842  -17.4105  -48.9033 H         1 UNK         0.0600 
    181 H181        1.4880  -17.7343  -50.4884 H         1 UNK         0.0600 
    182 H182        2.2385  -18.9201  -49.4411 H         1 UNK         0.0600 
    183 H183        3.0395  -18.4555  -50.9312 H         1 UNK         0.0600 
    184 H184        3.0576  -15.8408  -51.1261 H         1 UNK         0.3000 
    185 H185        5.2960  -13.1214  -50.6500 H         1 UNK         0.0600 
    186 H186        6.7950  -14.8473  -51.6602 H         1 UNK         0.0600 
    187 H187        5.4849  -15.3947  -52.6992 H         1 UNK         0.0600 
    188 H188        6.1464  -13.7696  -52.8854 H         1 UNK         0.0600 
    189 H189        3.5994  -13.7928  -52.8298 H         1 UNK         0.3000 
    190 H190       -3.3624  -22.0376  -45.1814 H         1 UNK         0.3000 
    191 H191       -4.7912  -22.6707  -47.5314 H         1 UNK         0.0600 
    192 H192       -5.4734  -23.3117  -44.6216 H         1 UNK         0.0600 
    193 H193       -6.5993  -23.3725  -45.9702 H         1 UNK         0.0600 
    194 H194       -5.8994  -21.8372  -45.4898 H         1 UNK         0.0600 
    195 H195       -3.2444  -24.8187  -45.1199 H         1 UNK         0.3000 
    196 H196       -4.0715  -27.2823  -46.3349 H         1 UNK         0.0600 
    197 H197       -2.3459  -28.2687  -44.8210 H         1 UNK         0.0600 
    198 H198       -3.3852  -27.1403  -43.9637 H         1 UNK         0.0600 
    199 H199       -1.7557  -26.6582  -44.4271 H         1 UNK         0.0600 
    200 H200       -1.0778  -25.3080  -46.6048 H         1 UNK         0.3000 
    201 H201        0.3114  -27.1264  -48.3096 H         1 UNK         0.0600 
    202 H202        1.4645  -25.4544  -46.8935 H         1 UNK         0.0600 
    203 H203        0.7399  -24.1340  -47.8090 H         1 UNK         0.0600 
    204 H204        1.8957  -25.2130  -48.5798 H         1 UNK         0.0600 
    205 H205       -1.7016  -24.2712  -49.0021 H         1 UNK         0.3000 
    206 H206       -2.4774  -23.2693  -50.7884 H         1 UNK         0.0600 
    207 H207       -3.1497  -24.5488  -52.7952 H         1 UNK         0.0600 
    208 H208       -2.1855  -25.9272  -52.2841 H         1 UNK         0.0600 
    209 H209       -3.5866  -25.4257  -51.3368 H         1 UNK         0.0600 
    210 H210       -0.0172  -22.6242  -50.1825 H         1 UNK         0.3000 
    211 H211        1.8146  -22.6950  -52.4631 H         1 UNK         0.0600 
    212 H212        1.9008  -21.2581  -49.7561 H         1 UNK         0.0600 
    213 H213        3.2072  -21.2576  -50.9362 H         1 UNK         0.0600 
    214 H214        2.7199  -22.7621  -50.1679 H         1 UNK         0.0600 
    215 H215        2.0090  -21.1491  -53.9657 H         1 UNK         0.3000 
    216 H216        1.8072  -19.4206  -55.2699 H         1 UNK         0.0600 
    217 H217        1.5954  -17.1311  -54.3633 H         1 UNK         0.0600 
    218 H218        2.7026  -18.0784  -53.3811 H         1 UNK         0.0600 
    219 H219        1.0611  -17.7612  -52.8160 H         1 UNK         0.0600 
    220 H220       -1.0333  -19.6963  -53.1565 H         1 UNK         0.3000 
    221 H221       -2.8466  -19.2082  -55.4717 H         1 UNK         0.0600 
    222 H222       -3.2018  -18.1645  -52.5992 H         1 UNK         0.0600 
    223 H223       -2.8272  -17.1646  -54.0023 H         1 UNK         0.0600 
    224 H224       -4.3689  -17.9983  -53.9085 H         1 UNK         0.0600 
    225 H225       -4.9166  -20.2585  -55.1793 H         1 UNK         0.3000 
    226 H226       -4.7070  -22.9623  -54.2205 H         1 UNK         0.0600 
    227 H227       -5.8930  -22.3976  -56.3070 H         1 UNK         0.0600 
    228 H228       -7.0135  -23.1262  -55.1683 H         1 UNK         0.0600 
    229 H229       -7.0401  -21.3862  -55.4294 H         1 UNK         0.0600 
    230 H230       -4.2130  -22.2663  -52.0177 H         1 UNK         0.3000 
    231 H231       -4.5691  -22.4964  -49.8590 H         1 UNK         0.0600 
    232 H232       -6.7536  -23.1253  -48.8607 H         1 UNK         0.0600 
    233 H233       -6.3710  -24.1425  -50.2391 H         1 UNK         0.0600 
    234 H234       -7.5660  -22.8536  -50.3893 H         1 UNK         0.0600 
    235 H235       -7.0333  -20.4015  -51.3200 H         1 UNK         0.3000 
    236 H236       -7.8241  -18.3538  -50.8830 H         1 UNK         0.0600 
    237 H237       -5.6212  -17.8024  -51.8288 H         1 UNK         0.0600 
    238 H238       -6.0457  -16.5941  -50.6360 H         1 UNK         0.0600 
    239 H239       -4.8639  -17.8443  -50.2433 H         1 UNK         0.0600 
    240 H240       -5.8402  -17.0135  -48.5634 H         1 UNK         0.3000 
    241 H241       -7.8058  -17.3513  -46.4052 H         1 UNK         0.0600 
    242 H242       -5.3316  -19.3888  -47.1647 H         1 UNK         0.3800 
    243 H243       -4.8199  -19.6950  -45.5140 H         1 UNK         0.3800 
    244 H244       -7.5493  -15.1217  -46.4939 H         1 UNK         0.0800 
    245 H245       -6.2851  -15.4145  -45.3601 H         1 UNK         0.0800 
    246 H246       -3.2269  -14.3246  -46.6772 H         1 UNK         0.0800 
    247 H247       -3.8716  -15.8264  -46.0647 H         1 UNK         0.0800 
@<TRIPOS>BOND
     1    1    2 1    
     2    1  127 1    
     3    1  128 1    
     4    1  129 1    
     5    2    3 2    
     6    2    4 am   BACKBONE|DICT|INTERRES
     7    4    5 1    
     8    4  130 1    
     9    5    6 1    
    10    5   65 1    
    11    5  131 1    
    12    6    7 1    
    13    6  132 1    
    14    6  133 1    
    15    7    8 1    
    16    8    9 1    
    17    8  134 1    
    18    8  135 1    
    19    9   10 ar   
    20    9   14 ar   
    21   10   11 ar   
    22   10  136 1    
    23   11   12 ar   
    24   11  126 1    
    25   12   13 ar   
    26   12  137 1    
    27   13   14 ar   
    28   13   15 1    
    29   14  138 1    
    30   15   16 1    
    31   15  139 1    
    32   15  140 1    
    33   16   17 1    
    34   17   18 1    
    35   17  141 1    
    36   17  142 1    
    37   18   19 1    
    38   18   67 1    
    39   18  143 1    
    40   19   20 am   BACKBONE|DICT|INTERRES
    41   19  144 1    
    42   20   21 2    
    43   20   22 1    
    44   22   23 1    
    45   22   24 1    
    46   22  145 1    
    47   23  146 1    
    48   23  147 1    
    49   23  148 1    
    50   24   25 am   BACKBONE|DICT|INTERRES
    51   24  149 1    
    52   25   26 2    
    53   25   27 1    
    54   27   28 1    
    55   27   29 1    
    56   27  150 1    
    57   28  151 1    
    58   28  152 1    
    59   28  153 1    
    60   29   30 am   BACKBONE|DICT|INTERRES
    61   29  154 1    
    62   30   31 2    
    63   30   32 1    
    64   32   33 1    
    65   32   34 1    
    66   32  155 1    
    67   33  156 1    
    68   33  157 1    
    69   33  158 1    
    70   34   35 am   BACKBONE|DICT|INTERRES
    71   34  159 1    
    72   35   36 2    
    73   35   37 1    
    74   37   38 1    
    75   37   39 1    
    76   37  160 1    
    77   38  161 1    
    78   38  162 1    
    79   38  163 1    
    80   39   40 am   BACKBONE|DICT|INTERRES
    81   39  164 1    
    82   40   41 2    
    83   40   42 1    
    84   42   43 1    
    85   42   44 1    
    86   42  165 1    
    87   43  166 1    
    88   43  167 1    
    89   43  168 1    
    90   44   45 am   BACKBONE|DICT|INTERRES
    91   44  169 1    
    92   45   46 2    
    93   45   47 1    
    94   47   48 1    
    95   47   49 1    
    96   47  170 1    
    97   48  171 1    
    98   48  172 1    
    99   48  173 1    
   100   49   50 am   BACKBONE|DICT|INTERRES
   101   49  174 1    
   102   50   51 2    
   103   50   52 1    
   104   52   53 1    
   105   52   54 1    
   106   52  175 1    
   107   53  176 1    
   108   53  177 1    
   109   53  178 1    
   110   54   55 am   BACKBONE|DICT|INTERRES
   111   54  179 1    
   112   55   56 2    
   113   55   57 1    
   114   57   58 1    
   115   57   59 1    
   116   57  180 1    
   117   58  181 1    
   118   58  182 1    
   119   58  183 1    
   120   59   60 am   BACKBONE|DICT|INTERRES
   121   59  184 1    
   122   60   61 2    
   123   60   62 1    
   124   62   63 1    
   125   62   64 1    
   126   62  185 1    
   127   63  186 1    
   128   63  187 1    
   129   63  188 1    
   130   64   65 am   BACKBONE|DICT|INTERRES
   131   64  189 1    
   132   65   66 2    
   133   67   68 2    
   134   67   69 am   BACKBONE|DICT|INTERRES
   135   69   70 1    
   136   69  190 1    
   137   70   71 1    
   138   70   72 1    
   139   70  191 1    
   140   71  192 1    
   141   71  193 1    
   142   71  194 1    
   143   72   73 2    
   144   72   74 am   BACKBONE|DICT|INTERRES
   145   74   75 1    
   146   74  195 1    
   147   75   76 1    
   148   75   77 1    
   149   75  196 1    
   150   76  197 1    
   151   76  198 1    
   152   76  199 1    
   153   77   78 2    
   154   77   79 am   BACKBONE|DICT|INTERRES
   155   79   80 1    
   156   79  200 1    
   157   80   81 1    
   158   80   82 1    
   159   80  201 1    
   160   81  202 1    
   161   81  203 1    
   162   81  204 1    
   163   82   83 2    
   164   82   84 am   BACKBONE|DICT|INTERRES
   165   84   85 1    
   166   84  205 1    
   167   85   86 1    
   168   85   87 1    
   169   85  206 1    
   170   86  207 1    
   171   86  208 1    
   172   86  209 1    
   173   87   88 2    
   174   87   89 am   BACKBONE|DICT|INTERRES
   175   89   90 1    
   176   89  210 1    
   177   90   91 1    
   178   90   92 1    
   179   90  211 1    
   180   91  212 1    
   181   91  213 1    
   182   91  214 1    
   183   92   93 2    
   184   92   94 am   BACKBONE|DICT|INTERRES
   185   94   95 1    
   186   94  215 1    
   187   95   96 1    
   188   95   97 1    
   189   95  216 1    
   190   96  217 1    
   191   96  218 1    
   192   96  219 1    
   193   97   98 2    
   194   97   99 am   BACKBONE|DICT|INTERRES
   195   99  100 1    
   196   99  220 1    
   197  100  101 1    
   198  100  102 1    
   199  100  221 1    
   200  101  222 1    
   201  101  223 1    
   202  101  224 1    
   203  102  103 2    
   204  102  104 am   BACKBONE|DICT|INTERRES
   205  104  105 1    
   206  104  225 1    
   207  105  106 1    
   208  105  107 1    
   209  105  226 1    
   210  106  227 1    
   211  106  228 1    
   212  106  229 1    
   213  107  108 2    
   214  107  109 am   BACKBONE|DICT|INTERRES
   215  109  110 1    
   216  109  230 1    
   217  110  111 1    
   218  110  112 1    
   219  110  231 1    
   220  111  232 1    
   221  111  233 1    
   222  111  234 1    
   223  112  113 2    
   224  112  114 am   BACKBONE|DICT|INTERRES
   225  114  115 1    
   226  114  235 1    
   227  115  116 1    
   228  115  117 1    
   229  115  236 1    
   230  116  237 1    
   231  116  238 1    
   232  116  239 1    
   233  117  118 2    
   234  117  119 am   BACKBONE|DICT|INTERRES
   235  119  120 1    
   236  119  240 1    
   237  120  121 1    
   238  120  124 1    
   239  120  241 1    
   240  121  122 am   BACKBONE|DICT|INTERRES
   241  121  123 2    
   242  122  242 1    
   243  122  243 1    
   244  124  125 1    
   245  124  244 1    
   246  124  245 1    
   247  125  126 1    
   248  126  246 1    
   249  126  247 1    
@<TRIPOS>SUBSTRUCTURE
     1 UNK         1 GROUP             0       ****    0 ROOT    
