@<TRIPOS>MOLECULE
3R540
247   249    1
SMALL
USER_CHARGES


@<TRIPOS>ATOM
      1 CA          0.7499  -10.1891  -46.9865 C.3       0 UNK        -0.1800 
      2 C          -0.5907  -10.2280  -47.7186 C.2       0 UNK         0.5000 
      3 O          -1.3846   -9.3005  -47.5734 O.2       0 UNK        -0.5000 
      4 N          -0.8855  -11.2547  -48.5297 N.am      1 UNK        -0.5000 
      5 CA         -0.0716  -12.4543  -48.7656 C.3       1 UNK         0.1400 
      6 C6         -0.4694  -13.1351  -50.0979 C.3       23 UNK        -0.0398 
      7 S7          0.8070  -14.2764  -50.7278 S.3       23 UNK        -0.2404 
      8 C8         -0.0300  -15.8670  -50.4651 C.3       23 UNK        -0.0205 
      9 C9          0.8918  -17.0380  -50.7569 C.ar      23 UNK        -0.0193 
     10 C10         1.0835  -17.4729  -52.0715 C.ar      23 UNK        -0.1150 
     11 C11         1.8860  -18.5860  -52.3385 C.ar      23 UNK        -0.0193 
     12 C12         2.5049  -19.2576  -51.2816 C.ar      23 UNK        -0.1150 
     13 C13         2.3178  -18.8333  -49.9646 C.ar      23 UNK        -0.0193 
     14 C14         1.5222  -17.7128  -49.7080 C.ar      23 UNK        -0.1150 
     15 C15         2.9287  -19.6246  -48.8194 C.3       23 UNK        -0.0205 
     16 S16         1.9609  -21.1295  -48.4789 S.3       23 UNK        -0.2404 
     17 C17         0.3480  -20.3974  -48.0459 C.3       23 UNK        -0.0398 
     18 CA         -0.5220  -21.3368  -47.1867 C.3       11 UNK         0.1400 
     19 N           0.0597  -21.5892  -45.8635 N.am      11 UNK        -0.5000 
     20 C          -0.4021  -22.5034  -44.9995 C.2       10 UNK         0.5000 
     21 O          -1.3536  -23.2462  -45.2374 O.2       10 UNK        -0.5000 
     22 CA          0.2727  -22.5666  -43.6190 C.3       10 UNK         0.1400 
     23 CB          1.6076  -23.3221  -43.6947 C.3       10 UNK        -0.1800 
     24 N           0.4731  -21.2415  -43.0301 N.am      10 UNK        -0.5000 
     25 C          -0.5225  -20.4094  -42.6892 C.2       9 UNK         0.5000 
     26 O          -1.7142  -20.6915  -42.8041 O.2       9 UNK        -0.5000 
     27 CA         -0.1311  -19.0128  -42.1771 C.3       9 UNK         0.1400 
     28 CB          0.2817  -19.0665  -40.6986 C.3       9 UNK        -0.1800 
     29 N           0.9414  -18.4100  -42.9624 N.am      9 UNK        -0.5000 
     30 C           0.8656  -18.0945  -44.2617 C.2       8 UNK         0.5000 
     31 O          -0.1444  -18.2387  -44.9499 O.2       8 UNK        -0.5000 
     32 CA          2.1604  -17.5821  -44.9139 C.3       8 UNK         0.1400 
     33 CB          2.3841  -16.0962  -44.6012 C.3       8 UNK        -0.1800 
     34 N           3.3327  -18.3498  -44.4932 N.am      8 UNK        -0.5000 
     35 C           3.5227  -19.6497  -44.7566 C.2       7 UNK         0.5000 
     36 O           2.7241  -20.3439  -45.3831 O.2       7 UNK        -0.5000 
     37 CA          4.8007  -20.2858  -44.1841 C.3       7 UNK         0.1400 
     38 CB          6.0332  -19.8697  -45.0014 C.3       7 UNK        -0.1800 
     39 N           5.0059  -19.9463  -42.7752 N.am      7 UNK        -0.5000 
     40 C           4.2104  -20.3658  -41.7818 C.2       6 UNK         0.5000 
     41 O           3.2330  -21.0943  -41.9482 O.2       6 UNK        -0.5000 
     42 CA          4.5376  -19.8580  -40.3659 C.3       6 UNK         0.1400 
     43 CB          5.6503  -20.7068  -39.7322 C.3       6 UNK        -0.1800 
     44 N           4.9029  -18.4393  -40.2864 N.am      6 UNK        -0.5000 
     45 C           4.1562  -17.4238  -40.7398 C.2       5 UNK         0.5000 
     46 O           3.1534  -17.5648  -41.4401 O.2       5 UNK        -0.5000 
     47 CA          4.6045  -16.0033  -40.3533 C.3       5 UNK         0.1400 
     48 CB          5.3646  -15.3478  -41.5165 C.3       5 UNK        -0.1800 
     49 N           3.4563  -15.1655  -40.0027 N.am      5 UNK        -0.5000 
     50 C           2.6147  -15.3929  -38.9825 C.2       4 UNK         0.5000 
     51 O           2.7933  -16.2696  -38.1353 O.2       4 UNK        -0.5000 
     52 CA          1.3679  -14.4895  -38.8744 C.3       4 UNK         0.1400 
     53 CB          1.5080  -13.5175  -37.6919 C.3       4 UNK        -0.1800 
     54 N           1.0878  -13.7151  -40.0872 N.am      4 UNK        -0.5000 
     55 C           0.5920  -14.2201  -41.2237 C.2       3 UNK         0.5000 
     56 O           0.2900  -15.4055  -41.3794 O.2       3 UNK        -0.5000 
     57 CA          0.4251  -13.2274  -42.3823 C.3       3 UNK         0.1400 
     58 CB          1.7885  -12.6790  -42.8539 C.3       3 UNK        -0.1800 
     59 N          -0.2524  -13.8940  -43.4894 N.am      3 UNK        -0.5000 
     60 C          -0.8789  -13.2722  -44.4901 C.2       2 UNK         0.5000 
     61 O          -1.0147  -12.0477  -44.5540 O.2       2 UNK        -0.5000 
     62 CA         -1.4593  -14.1595  -45.6061 C.3       2 UNK         0.1400 
     63 CB         -2.9515  -14.4332  -45.3650 C.3       2 UNK        -0.1800 
     64 N          -1.2952  -13.4939  -46.8983 N.am      2 UNK        -0.5000 
     65 C          -0.1358  -13.4306  -47.5683 C.2       1 UNK         0.5000 
     66 O           0.8689  -14.0647  -47.2464 O.2       1 UNK        -0.5000 
     67 C          -1.9627  -20.7921  -47.1006 C.2       11 UNK         0.5000 
     68 O          -2.7979  -21.1692  -47.9247 O.2       11 UNK        -0.5000 
     69 N          -2.2357  -19.9378  -46.1037 N.am      12 UNK        -0.5000 
     70 CA         -3.5666  -19.4086  -45.8086 C.3       12 UNK         0.1400 
     71 CB         -3.4518  -18.2339  -44.8258 C.3       12 UNK        -0.1800 
     72 C          -4.5211  -20.4901  -45.2704 C.2       12 UNK         0.5000 
     73 O          -5.6740  -20.5384  -45.6976 O.2       12 UNK        -0.5000 
     74 N          -4.0211  -21.3567  -44.3773 N.am      13 UNK        -0.5000 
     75 CA         -4.7515  -22.4966  -43.8167 C.3       13 UNK         0.1400 
     76 CB         -3.9563  -23.0966  -42.6473 C.3       13 UNK        -0.1800 
     77 C          -5.0713  -23.5742  -44.8688 C.2       13 UNK         0.5000 
     78 O          -6.1813  -24.1077  -44.8745 O.2       13 UNK        -0.5000 
     79 N          -4.1086  -23.8478  -45.7607 N.am      14 UNK        -0.5000 
     80 CA         -4.2728  -24.7196  -46.9271 C.3       14 UNK         0.1400 
     81 CB         -2.8874  -25.0436  -47.5072 C.3       14 UNK        -0.1800 
     82 C          -5.1723  -24.1045  -48.0181 C.2       14 UNK         0.5000 
     83 O          -5.7189  -24.8451  -48.8358 O.2       14 UNK        -0.5000 
     84 N          -5.2953  -22.7691  -48.0034 N.am      15 UNK        -0.5000 
     85 CA         -6.0248  -21.9124  -48.9366 C.3       15 UNK         0.1400 
     86 CB         -7.5429  -22.1623  -48.8378 C.3       15 UNK        -0.1800 
     87 C          -5.4704  -22.0391  -50.3670 C.2       15 UNK         0.5000 
     88 O          -6.2226  -22.3128  -51.3022 O.2       15 UNK        -0.5000 
     89 N          -4.1498  -21.8466  -50.5034 N.am      16 UNK        -0.5000 
     90 CA         -3.3727  -22.0471  -51.7337 C.3       16 UNK         0.1400 
     91 CB         -1.9033  -21.6900  -51.4614 C.3       16 UNK        -0.1800 
     92 C          -3.8899  -21.2791  -52.9679 C.2       16 UNK         0.5000 
     93 O          -3.7887  -21.7849  -54.0879 O.2       16 UNK        -0.5000 
     94 N          -4.4473  -20.0818  -52.7455 N.am      17 UNK        -0.5000 
     95 CA         -5.0684  -19.2591  -53.7829 C.3       17 UNK         0.1400 
     96 CB         -5.2428  -17.8255  -53.2613 C.3       17 UNK        -0.1800 
     97 C          -6.4102  -19.8357  -54.2724 C.2       17 UNK         0.5000 
     98 O          -6.6564  -19.8580  -55.4781 O.2       17 UNK        -0.5000 
     99 N          -7.2394  -20.3197  -53.3365 N.am      18 UNK        -0.5000 
    100 CA        -8.5396  -20.9386  -53.6149 C.3       18 UNK         0.1400 
    101 CB        -9.3706  -20.9893  -52.3246 C.3       18 UNK        -0.1800 
    102 C         -8.3962  -22.3458  -54.2214 C.2       18 UNK         0.5000 
    103 O         -9.1999  -22.7315  -55.0704 O.2       18 UNK        -0.5000 
    104 N         -7.3455  -23.0655  -53.8054 N.am      19 UNK        -0.5000 
    105 CA        -6.9220  -24.3584  -54.3463 C.3       19 UNK         0.1400 
    106 CB        -5.8991  -24.9779  -53.3807 C.3       19 UNK        -0.1800 
    107 C         -6.3291  -24.2682  -55.7692 C.2       19 UNK         0.5000 
    108 O         -6.1086  -25.3070  -56.3924 O.2       19 UNK        -0.5000 
    109 N         -6.0712  -23.0401  -56.2453 N.am      20 UNK        -0.5000 
    110 CA        -5.5048  -22.6756  -57.5468 C.3       20 UNK         0.1400 
    111 CB        -6.4015  -23.1575  -58.7064 C.3       20 UNK        -0.1800 
    112 C         -4.0275  -23.0866  -57.7152 C.2       20 UNK         0.5000 
    113 O         -3.5420  -23.1732  -58.8442 O.2       20 UNK        -0.5000 
    114 N         -3.3234  -23.2892  -56.5937 N.am      21 UNK        -0.5000 
    115 CA        -1.8775  -23.5039  -56.5528 C.3       21 UNK         0.1400 
    116 CB        -1.5077  -24.2227  -55.2454 C.3       21 UNK        -0.1800 
    117 C         -1.1231  -22.1682  -56.6734 C.2       21 UNK         0.5000 
    118 O         -0.0926  -22.1065  -57.3449 O.2       21 UNK        -0.5000 
    119 N         -1.6752  -21.1289  -56.0363 N.am      22 UNK        -0.5000 
    120 CA        -1.1528  -19.7538  -55.9990 C.3       22 UNK         0.1400 
    121 C         -2.1780  -18.7103  -56.5328 C.2       22 UNK         0.5000 
    122 N         -3.2369  -19.1170  -57.2225 N.am      22 UNK        -0.7600 
    123 O         -2.0096  -17.5104  -56.3361 O.2       22 UNK        -0.5000 
    124 C124       -0.6272  -19.3961  -54.5840 C.3       23 UNK        -0.0398 
    125 S125        0.8403  -20.3881  -54.1373 S.3       23 UNK        -0.2404 
    126 C126        2.0631  -19.0948  -53.7589 C.3       23 UNK        -0.0205 
    127 H127        0.8627  -11.0426  -46.3192 H         1 UNK         0.0600 
    128 H128        1.5785  -10.1829  -47.6943 H         1 UNK         0.0600 
    129 H129        0.8262   -9.2866  -46.3798 H         1 UNK         0.0600 
    130 H130       -1.7699  -11.2319  -49.0172 H         1 UNK         0.3000 
    131 H131        0.9670  -12.1332  -48.8649 H         1 UNK         0.0600 
    132 H132       -1.4326  -13.6414  -50.0122 H         1 UNK         0.0800 
    133 H133       -0.6056  -12.3754  -50.8691 H         1 UNK         0.0800 
    134 H134       -0.9115  -15.9240  -51.1058 H         1 UNK         0.0800 
    135 H135       -0.3913  -15.9236  -49.4368 H         1 UNK         0.0800 
    136 H136        0.5947  -16.9513  -52.8819 H         1 UNK         0.1150 
    137 H137        3.1060  -20.1340  -51.4807 H         1 UNK         0.1150 
    138 H138        1.3677  -17.3837  -48.6898 H         1 UNK         0.1150 
    139 H139        2.9904  -19.0169  -47.9157 H         1 UNK         0.0800 
    140 H140        3.9521  -19.9068  -49.0702 H         1 UNK         0.0800 
    141 H141       -0.1565  -20.1513  -48.9827 H         1 UNK         0.0800 
    142 H142        0.5083  -19.4545  -47.5202 H         1 UNK         0.0800 
    143 H143       -0.5833  -22.2979  -47.7018 H         1 UNK         0.0600 
    144 H144        0.8827  -21.0464  -45.6161 H         1 UNK         0.3000 
    145 H145       -0.3899  -23.1257  -42.9552 H         1 UNK         0.0600 
    146 H146        2.0336  -23.4672  -42.7020 H         1 UNK         0.0600 
    147 H147        1.4730  -24.3098  -44.1372 H         1 UNK         0.0600 
    148 H148        2.3416  -22.7887  -44.2989 H         1 UNK         0.0600 
    149 H149        1.4340  -20.9564  -42.8708 H         1 UNK         0.3000 
    150 H150       -1.0065  -18.3658  -42.2624 H         1 UNK         0.0600 
    151 H151        1.1722  -19.6781  -40.5514 H         1 UNK         0.0600 
    152 H152       -0.5149  -19.4884  -40.0849 H         1 UNK         0.0600 
    153 H153        0.4966  -18.0686  -40.3147 H         1 UNK         0.0600 
    154 H154        1.8048  -18.2030  -42.4625 H         1 UNK         0.3000 
    155 H155        2.0562  -17.6912  -45.9952 H         1 UNK         0.0600 
    156 H156        2.4611  -15.9170  -43.5284 H         1 UNK         0.0600 
    157 H157        1.5583  -15.4940  -44.9785 H         1 UNK         0.0600 
    158 H158        3.2939  -15.7238  -45.0720 H         1 UNK         0.0600 
    159 H159        3.9998  -17.8729  -43.9055 H         1 UNK         0.3000 
    160 H160        4.6942  -21.3701  -44.2606 H         1 UNK         0.0600 
    161 H161        6.2197  -18.7970  -44.9376 H         1 UNK         0.0600 
    162 H162        5.9029  -20.1184  -46.0556 H         1 UNK         0.0600 
    163 H163        6.9280  -20.3870  -44.6547 H         1 UNK         0.0600 
    164 H164        5.7809  -19.3394  -42.5521 H         1 UNK         0.3000 
    165 H165        3.6351  -19.9866  -39.7648 H         1 UNK         0.0600 
    166 H166        5.8026  -20.4411  -38.6859 H         1 UNK         0.0600 
    167 H167        6.6001  -20.5802  -40.2531 H         1 UNK         0.0600 
    168 H168        5.3981  -21.7678  -39.7622 H         1 UNK         0.0600 
    169 H169        5.7238  -18.2262  -39.7385 H         1 UNK         0.3000 
    170 H170        5.2638  -16.0582  -39.4848 H         1 UNK         0.0600 
    171 H171        6.2396  -15.9371  -41.7934 H         1 UNK         0.0600 
    172 H172        4.7384  -15.2526  -42.4047 H         1 UNK         0.0600 
    173 H173        5.7168  -14.3521  -41.2465 H         1 UNK         0.0600 
    174 H174        3.2159  -14.4368  -40.6559 H         1 UNK         0.3000 
    175 H175        0.5138  -15.1418  -38.6799 H         1 UNK         0.0600 
    176 H176        2.3442  -12.8313  -37.8320 H         1 UNK         0.0600 
    177 H177        0.6034  -12.9237  -37.5593 H         1 UNK         0.0600 
    178 H178        1.6791  -14.0568  -36.7592 H         1 UNK         0.0600 
    179 H179        1.3034  -12.7294  -40.0434 H         1 UNK         0.3000 
    180 H180       -0.1975  -12.4038  -42.0264 H         1 UNK         0.0600 
    181 H181        2.4489  -13.4774  -43.1925 H         1 UNK         0.0600 
    182 H182        2.3022  -12.1450  -42.0542 H         1 UNK         0.0600 
    183 H183        1.6713  -11.9754  -43.6783 H         1 UNK         0.0600 
    184 H184       -0.2420  -14.9046  -43.4271 H         1 UNK         0.3000 
    185 H185       -0.9291  -15.1147  -45.6229 H         1 UNK         0.0600 
    186 H186       -3.3684  -15.0644  -46.1501 H         1 UNK         0.0600 
    187 H187       -3.1045  -14.9500  -44.4167 H         1 UNK         0.0600 
    188 H188       -3.5313  -13.5099  -45.3330 H         1 UNK         0.0600 
    189 H189       -2.0481  -12.8859  -47.1851 H         1 UNK         0.3000 
    190 H190       -1.4787  -19.6179  -45.5073 H         1 UNK         0.3000 
    191 H191       -3.9893  -19.0260  -46.7400 H         1 UNK         0.0600 
    192 H192       -4.4297  -17.7951  -44.6245 H         1 UNK         0.0600 
    193 H193       -2.8178  -17.4457  -45.2312 H         1 UNK         0.0600 
    194 H194       -3.0271  -18.5442  -43.8712 H         1 UNK         0.0600 
    195 H195       -3.0783  -21.2087  -44.0261 H         1 UNK         0.3000 
    196 H196       -5.7003  -22.1248  -43.4245 H         1 UNK         0.0600 
    197 H197       -2.9772  -23.4540  -42.9672 H         1 UNK         0.0600 
    198 H198       -3.8015  -22.3605  -41.8582 H         1 UNK         0.0600 
    199 H199       -4.4869  -23.9407  -42.2053 H         1 UNK         0.0600 
    200 H200       -3.1904  -23.4280  -45.6346 H         1 UNK         0.3000 
    201 H201       -4.7365  -25.6519  -46.5986 H         1 UNK         0.0600 
    202 H202       -2.3761  -24.1428  -47.8492 H         1 UNK         0.0600 
    203 H203       -2.9673  -25.7198  -48.3592 H         1 UNK         0.0600 
    204 H204       -2.2521  -25.5281  -46.7655 H         1 UNK         0.0600 
    205 H205       -4.7582  -22.2718  -47.3059 H         1 UNK         0.3000 
    206 H206       -5.8381  -20.8855  -48.6191 H         1 UNK         0.0600 
    207 H207       -7.8831  -22.1045  -47.8037 H         1 UNK         0.0600 
    208 H208       -8.0951  -21.4104  -49.4009 H         1 UNK         0.0600 
    209 H209       -7.8229  -23.1409  -49.2292 H         1 UNK         0.0600 
    210 H210       -3.6189  -21.6271  -49.6647 H         1 UNK         0.3000 
    211 H211       -3.4227  -23.1106  -51.9730 H         1 UNK         0.0600 
    212 H212       -1.2861  -21.8730  -52.3421 H         1 UNK         0.0600 
    213 H213       -1.4937  -22.2912  -50.6493 H         1 UNK         0.0600 
    214 H214       -1.7865  -20.6397  -51.1909 H         1 UNK         0.0600 
    215 H215       -4.4859  -19.7377  -51.7976 H         1 UNK         0.3000 
    216 H216       -4.3937  -19.2235  -54.6389 H         1 UNK         0.0600 
    217 H217       -5.8873  -17.7896  -52.3821 H         1 UNK         0.0600 
    218 H218       -5.6897  -17.1857  -54.0234 H         1 UNK         0.0600 
    219 H219       -4.2821  -17.3857  -52.9928 H         1 UNK         0.0600 
    220 H220       -6.9272  -20.3444  -52.3764 H         1 UNK         0.3000 
    221 H221       -9.0697  -20.3136  -54.3368 H         1 UNK         0.0600 
    222 H222       -9.4727  -20.0004  -51.8777 H         1 UNK         0.0600 
    223 H223       -8.9209  -21.6512  -51.5848 H         1 UNK         0.0600 
    224 H224      -10.3758  -21.3617  -52.5255 H         1 UNK         0.0600 
    225 H225       -6.7938  -22.6981  -53.0331 H         1 UNK         0.3000 
    226 H226       -7.7950  -25.0123  -54.3934 H         1 UNK         0.0600 
    227 H227       -4.9921  -24.3763  -53.3211 H         1 UNK         0.0600 
    228 H228       -6.3077  -25.0676  -52.3736 H         1 UNK         0.0600 
    229 H229       -5.6087  -25.9781  -53.7043 H         1 UNK         0.0600 
    230 H230       -6.2820  -22.2591  -55.6387 H         1 UNK         0.3000 
    231 H231       -5.5102  -21.5851  -57.5694 H         1 UNK         0.0600 
    232 H232       -6.3794  -24.2420  -58.8151 H         1 UNK         0.0600 
    233 H233       -6.0765  -22.7299  -59.6555 H         1 UNK         0.0600 
    234 H234       -7.4379  -22.8554  -58.5547 H         1 UNK         0.0600 
    235 H235       -3.7820  -23.1365  -55.7031 H         1 UNK         0.3000 
    236 H236       -1.5832  -24.1419  -57.3889 H         1 UNK         0.0600 
    237 H237       -2.0207  -25.1812  -55.1647 H         1 UNK         0.0600 
    238 H238       -0.4362  -24.4212  -55.2011 H         1 UNK         0.0600 
    239 H239       -1.7665  -23.6296  -54.3678 H         1 UNK         0.0600 
    240 H240       -2.5113  -21.2961  -55.4854 H         1 UNK         0.3000 
    241 H241       -0.3123  -19.6701  -56.6901 H         1 UNK         0.0600 
    242 H242       -3.8898  -18.4348  -57.5751 H         1 UNK         0.3800 
    243 H243       -3.3555  -20.0903  -57.4454 H         1 UNK         0.3800 
    244 H244       -1.4021  -19.5546  -53.8330 H         1 UNK         0.0800 
    245 H245       -0.3668  -18.3393  -54.5283 H         1 UNK         0.0800 
    246 H246        3.0636  -19.5143  -53.8751 H         1 UNK         0.0800 
    247 H247        1.9931  -18.2781  -54.4789 H         1 UNK         0.0800 
@<TRIPOS>BOND
     1    1    2 1    
     2    1  127 1    
     3    1  128 1    
     4    1  129 1    
     5    2    3 2    
     6    2    4 am   BACKBONE|DICT|INTERRES
     7    4    5 1    
     8    4  130 1    
     9    5    6 1    
    10    5   65 1    
    11    5  131 1    
    12    6    7 1    
    13    6  132 1    
    14    6  133 1    
    15    7    8 1    
    16    8    9 1    
    17    8  134 1    
    18    8  135 1    
    19    9   10 ar   
    20    9   14 ar   
    21   10   11 ar   
    22   10  136 1    
    23   11   12 ar   
    24   11  126 1    
    25   12   13 ar   
    26   12  137 1    
    27   13   14 ar   
    28   13   15 1    
    29   14  138 1    
    30   15   16 1    
    31   15  139 1    
    32   15  140 1    
    33   16   17 1    
    34   17   18 1    
    35   17  141 1    
    36   17  142 1    
    37   18   19 1    
    38   18   67 1    
    39   18  143 1    
    40   19   20 am   BACKBONE|DICT|INTERRES
    41   19  144 1    
    42   20   21 2    
    43   20   22 1    
    44   22   23 1    
    45   22   24 1    
    46   22  145 1    
    47   23  146 1    
    48   23  147 1    
    49   23  148 1    
    50   24   25 am   BACKBONE|DICT|INTERRES
    51   24  149 1    
    52   25   26 2    
    53   25   27 1    
    54   27   28 1    
    55   27   29 1    
    56   27  150 1    
    57   28  151 1    
    58   28  152 1    
    59   28  153 1    
    60   29   30 am   BACKBONE|DICT|INTERRES
    61   29  154 1    
    62   30   31 2    
    63   30   32 1    
    64   32   33 1    
    65   32   34 1    
    66   32  155 1    
    67   33  156 1    
    68   33  157 1    
    69   33  158 1    
    70   34   35 am   BACKBONE|DICT|INTERRES
    71   34  159 1    
    72   35   36 2    
    73   35   37 1    
    74   37   38 1    
    75   37   39 1    
    76   37  160 1    
    77   38  161 1    
    78   38  162 1    
    79   38  163 1    
    80   39   40 am   BACKBONE|DICT|INTERRES
    81   39  164 1    
    82   40   41 2    
    83   40   42 1    
    84   42   43 1    
    85   42   44 1    
    86   42  165 1    
    87   43  166 1    
    88   43  167 1    
    89   43  168 1    
    90   44   45 am   BACKBONE|DICT|INTERRES
    91   44  169 1    
    92   45   46 2    
    93   45   47 1    
    94   47   48 1    
    95   47   49 1    
    96   47  170 1    
    97   48  171 1    
    98   48  172 1    
    99   48  173 1    
   100   49   50 am   BACKBONE|DICT|INTERRES
   101   49  174 1    
   102   50   51 2    
   103   50   52 1    
   104   52   53 1    
   105   52   54 1    
   106   52  175 1    
   107   53  176 1    
   108   53  177 1    
   109   53  178 1    
   110   54   55 am   BACKBONE|DICT|INTERRES
   111   54  179 1    
   112   55   56 2    
   113   55   57 1    
   114   57   58 1    
   115   57   59 1    
   116   57  180 1    
   117   58  181 1    
   118   58  182 1    
   119   58  183 1    
   120   59   60 am   BACKBONE|DICT|INTERRES
   121   59  184 1    
   122   60   61 2    
   123   60   62 1    
   124   62   63 1    
   125   62   64 1    
   126   62  185 1    
   127   63  186 1    
   128   63  187 1    
   129   63  188 1    
   130   64   65 am   BACKBONE|DICT|INTERRES
   131   64  189 1    
   132   65   66 2    
   133   67   68 2    
   134   67   69 am   BACKBONE|DICT|INTERRES
   135   69   70 1    
   136   69  190 1    
   137   70   71 1    
   138   70   72 1    
   139   70  191 1    
   140   71  192 1    
   141   71  193 1    
   142   71  194 1    
   143   72   73 2    
   144   72   74 am   BACKBONE|DICT|INTERRES
   145   74   75 1    
   146   74  195 1    
   147   75   76 1    
   148   75   77 1    
   149   75  196 1    
   150   76  197 1    
   151   76  198 1    
   152   76  199 1    
   153   77   78 2    
   154   77   79 am   BACKBONE|DICT|INTERRES
   155   79   80 1    
   156   79  200 1    
   157   80   81 1    
   158   80   82 1    
   159   80  201 1    
   160   81  202 1    
   161   81  203 1    
   162   81  204 1    
   163   82   83 2    
   164   82   84 am   BACKBONE|DICT|INTERRES
   165   84   85 1    
   166   84  205 1    
   167   85   86 1    
   168   85   87 1    
   169   85  206 1    
   170   86  207 1    
   171   86  208 1    
   172   86  209 1    
   173   87   88 2    
   174   87   89 am   BACKBONE|DICT|INTERRES
   175   89   90 1    
   176   89  210 1    
   177   90   91 1    
   178   90   92 1    
   179   90  211 1    
   180   91  212 1    
   181   91  213 1    
   182   91  214 1    
   183   92   93 2    
   184   92   94 am   BACKBONE|DICT|INTERRES
   185   94   95 1    
   186   94  215 1    
   187   95   96 1    
   188   95   97 1    
   189   95  216 1    
   190   96  217 1    
   191   96  218 1    
   192   96  219 1    
   193   97   98 2    
   194   97   99 am   BACKBONE|DICT|INTERRES
   195   99  100 1    
   196   99  220 1    
   197  100  101 1    
   198  100  102 1    
   199  100  221 1    
   200  101  222 1    
   201  101  223 1    
   202  101  224 1    
   203  102  103 2    
   204  102  104 am   BACKBONE|DICT|INTERRES
   205  104  105 1    
   206  104  225 1    
   207  105  106 1    
   208  105  107 1    
   209  105  226 1    
   210  106  227 1    
   211  106  228 1    
   212  106  229 1    
   213  107  108 2    
   214  107  109 am   BACKBONE|DICT|INTERRES
   215  109  110 1    
   216  109  230 1    
   217  110  111 1    
   218  110  112 1    
   219  110  231 1    
   220  111  232 1    
   221  111  233 1    
   222  111  234 1    
   223  112  113 2    
   224  112  114 am   BACKBONE|DICT|INTERRES
   225  114  115 1    
   226  114  235 1    
   227  115  116 1    
   228  115  117 1    
   229  115  236 1    
   230  116  237 1    
   231  116  238 1    
   232  116  239 1    
   233  117  118 2    
   234  117  119 am   BACKBONE|DICT|INTERRES
   235  119  120 1    
   236  119  240 1    
   237  120  121 1    
   238  120  124 1    
   239  120  241 1    
   240  121  122 am   BACKBONE|DICT|INTERRES
   241  121  123 2    
   242  122  242 1    
   243  122  243 1    
   244  124  125 1    
   245  124  244 1    
   246  124  245 1    
   247  125  126 1    
   248  126  246 1    
   249  126  247 1    
@<TRIPOS>SUBSTRUCTURE
     1 UNK         1 GROUP             0       ****    0 ROOT    
