@<TRIPOS>MOLECULE
3R540
247   249    1
SMALL
USER_CHARGES


@<TRIPOS>ATOM
      1 CA          3.8176  -10.9683  -43.2800 C.3       0 UNK        -0.1800 
      2 C           2.6830  -11.3250  -44.2296 C.2       0 UNK         0.5000 
      3 O           1.5818  -10.7923  -44.0939 O.2       0 UNK        -0.5000 
      4 N           2.9484  -12.2269  -45.1833 N.am      1 UNK        -0.5000 
      5 CA          1.9847  -12.7063  -46.1822 C.3       1 UNK         0.1400 
      6 C6          2.5168  -13.9391  -46.9552 C.3       23 UNK        -0.0398 
      7 S7          2.9940  -15.3308  -45.8727 S.3       23 UNK        -0.2404 
      8 C8          4.4544  -15.9860  -46.7455 C.3       23 UNK        -0.0205 
      9 C9          4.0822  -17.0092  -47.8115 C.ar      23 UNK        -0.0193 
     10 C10         3.3310  -16.6400  -48.9318 C.ar      23 UNK        -0.1150 
     11 C11         2.9672  -17.5852  -49.8955 C.ar      23 UNK        -0.0193 
     12 C12         3.4107  -18.9050  -49.7602 C.ar      23 UNK        -0.1150 
     13 C13         4.1900  -19.2811  -48.6614 C.ar      23 UNK        -0.0193 
     14 C14         4.5091  -18.3334  -47.6856 C.ar      23 UNK        -0.1150 
     15 C15         4.7096  -20.7043  -48.5282 C.3       23 UNK        -0.0205 
     16 S16         3.7757  -21.6472  -47.2858 S.3       23 UNK        -0.2404 
     17 C17         2.1878  -21.8966  -48.1475 C.3       23 UNK        -0.0398 
     18 CA          1.5361  -23.2522  -47.7879 C.3       11 UNK         0.1400 
     19 N           1.3285  -23.3902  -46.3440 N.am      11 UNK        -0.5000 
     20 C           0.9224  -24.5019  -45.7188 C.2       10 UNK         0.5000 
     21 O           0.6515  -25.5541  -46.2943 O.2       10 UNK        -0.5000 
     22 CA          0.7513  -24.4059  -44.1931 C.3       10 UNK         0.1400 
     23 CB          2.0754  -24.7301  -43.4863 C.3       10 UNK        -0.1800 
     24 N           0.2699  -23.1038  -43.7289 N.am      10 UNK        -0.5000 
     25 C          -0.8474  -22.4761  -44.1155 C.2       9 UNK         0.5000 
     26 O          -1.6000  -22.9017  -44.9940 O.2       9 UNK        -0.5000 
     27 CA         -1.1669  -21.1350  -43.4267 C.3       9 UNK         0.1400 
     28 CB         -1.8313  -21.3617  -42.0568 C.3       9 UNK        -0.1800 
     29 N          -0.0350  -20.2010  -43.3233 N.am      9 UNK        -0.5000 
     30 C           1.1133  -20.3093  -42.6326 C.2       8 UNK         0.5000 
     31 O           1.4099  -21.2885  -41.9472 O.2       8 UNK        -0.5000 
     32 CA          2.1219  -19.1446  -42.7403 C.3       8 UNK         0.1400 
     33 CB          3.2426  -19.5078  -43.7288 C.3       8 UNK        -0.1800 
     34 N           1.5180  -17.8850  -43.1724 N.am      8 UNK        -0.5000 
     35 C           0.6600  -17.1417  -42.4583 C.2       7 UNK         0.5000 
     36 O           0.3742  -17.3651  -41.2819 O.2       7 UNK        -0.5000 
     37 CA         -0.0291  -15.9806  -43.2069 C.3       7 UNK         0.1400 
     38 CB          0.6671  -14.6445  -42.9041 C.3       7 UNK        -0.1800 
     39 N          -0.0742  -16.1834  -44.6592 N.am      7 UNK        -0.5000 
     40 C          -0.7256  -17.1760  -45.2778 C.2       6 UNK         0.5000 
     41 O          -1.4392  -17.9919  -44.6938 O.2       6 UNK        -0.5000 
     42 CA         -0.5190  -17.2917  -46.7958 C.3       6 UNK         0.1400 
     43 CB         -0.5445  -18.7610  -47.2554 C.3       6 UNK        -0.1800 
     44 N          -1.5324  -16.5187  -47.5089 N.am      6 UNK        -0.5000 
     45 C          -1.5447  -15.1841  -47.5728 C.2       5 UNK         0.5000 
     46 O          -0.6677  -14.4700  -47.0847 O.2       5 UNK        -0.5000 
     47 CA         -2.7440  -14.5295  -48.2638 C.3       5 UNK         0.1400 
     48 CB         -3.8898  -14.3109  -47.2569 C.3       5 UNK        -0.1800 
     49 N          -2.2979  -13.2549  -48.8086 N.am      5 UNK        -0.5000 
     50 C          -2.9378  -12.5231  -49.7256 C.2       4 UNK         0.5000 
     51 O          -4.0293  -12.8251  -50.2084 O.2       4 UNK        -0.5000 
     52 CA         -2.2273  -11.2438  -50.1923 C.3       4 UNK         0.1400 
     53 CB         -2.4733  -10.0942  -49.2023 C.3       4 UNK        -0.1800 
     54 N          -0.7876  -11.4557  -50.3276 N.am      4 UNK        -0.5000 
     55 C          -0.1761  -11.8808  -51.4426 C.2       3 UNK         0.5000 
     56 O          -0.7821  -12.1556  -52.4794 O.2       3 UNK        -0.5000 
     57 CA          1.3647  -12.0320  -51.4001 C.3       3 UNK         0.1400 
     58 CB          2.0356  -11.6126  -52.7243 C.3       3 UNK        -0.1800 
     59 N           1.9987  -11.3624  -50.2564 N.am      3 UNK        -0.5000 
     60 C           1.9878  -10.0545  -49.9509 C.2       2 UNK         0.5000 
     61 O           1.5650   -9.1798  -50.7079 O.2       2 UNK        -0.5000 
     62 CA          2.4952   -9.6658  -48.5406 C.3       2 UNK         0.1400 
     63 CB          1.6648   -8.5180  -47.9298 C.3       2 UNK        -0.1800 
     64 N           2.5778  -10.7844  -47.5860 N.am      2 UNK        -0.5000 
     65 C           1.5885  -11.6036  -47.1876 C.2       1 UNK         0.5000 
     66 O           0.4337  -11.5424  -47.6141 O.2       1 UNK        -0.5000 
     67 C           0.2324  -23.4484  -48.5882 C.2       11 UNK         0.5000 
     68 O           0.2579  -24.0829  -49.6430 O.2       11 UNK        -0.5000 
     69 N          -0.8804  -22.9200  -48.0609 N.am      12 UNK        -0.5000 
     70 CA         -2.2101  -23.0780  -48.6447 C.3       12 UNK         0.1400 
     71 CB         -3.1045  -21.9154  -48.2025 C.3       12 UNK        -0.1800 
     72 C          -2.8343  -24.4279  -48.2609 C.2       12 UNK         0.5000 
     73 O          -3.4729  -25.0584  -49.1031 O.2       12 UNK        -0.5000 
     74 N          -2.6069  -24.8725  -47.0155 N.am      13 UNK        -0.5000 
     75 CA         -3.0831  -26.1564  -46.4962 C.3       13 UNK         0.1400 
     76 CB         -2.7748  -26.2568  -44.9961 C.3       13 UNK        -0.1800 
     77 C          -2.5010  -27.3632  -47.2561 C.2       13 UNK         0.5000 
     78 O          -3.2388  -28.3028  -47.5512 O.2       13 UNK        -0.5000 
     79 N          -1.2112  -27.2921  -47.6165 N.am      14 UNK        -0.5000 
     80 CA         -0.5134  -28.2809  -48.4439 C.3       14 UNK         0.1400 
     81 CB          0.9882  -27.9574  -48.4597 C.3       14 UNK        -0.1800 
     82 C          -1.0569  -28.3682  -49.8841 C.2       14 UNK         0.5000 
     83 O          -1.0042  -29.4397  -50.4884 O.2       14 UNK        -0.5000 
     84 N          -1.5916  -27.2516  -50.3955 N.am      15 UNK        -0.5000 
     85 CA         -2.2726  -27.1614  -51.6882 C.3       15 UNK         0.1400 
     86 CB         -2.1036  -25.7326  -52.2329 C.3       15 UNK        -0.1800 
     87 C          -3.7667  -27.5424  -51.6034 C.2       15 UNK         0.5000 
     88 O          -4.4281  -27.5924  -52.6412 O.2       15 UNK        -0.5000 
     89 N          -4.2719  -27.7871  -50.3830 N.am      16 UNK        -0.5000 
     90 CA         -5.6683  -28.0514  -50.0210 C.3       16 UNK         0.1400 
     91 CB         -6.1405  -29.4016  -50.5996 C.3       16 UNK        -0.1800 
     92 C          -6.6068  -26.8752  -50.3675 C.2       16 UNK         0.5000 
     93 O          -7.7465  -27.0944  -50.7838 O.2       16 UNK        -0.5000 
     94 N          -6.1027  -25.6476  -50.1981 N.am      17 UNK        -0.5000 
     95 CA         -6.7868  -24.3974  -50.5094 C.3       17 UNK         0.1400 
     96 CB         -5.9402  -23.6413  -51.5469 C.3       17 UNK        -0.1800 
     97 C          -6.9635  -23.5468  -49.2413 C.2       17 UNK         0.5000 
     98 O          -6.3365  -23.8133  -48.2127 O.2       17 UNK        -0.5000 
     99 N          -7.8029  -22.5099  -49.3505 N.am      18 UNK        -0.5000 
    100 CA        -7.9224  -21.4398  -48.3601 C.3       18 UNK         0.1400 
    101 CB        -9.2070  -20.6447  -48.6396 C.3       18 UNK        -0.1800 
    102 C         -6.6967  -20.5110  -48.4222 C.2       18 UNK         0.5000 
    103 O         -6.0969  -20.3693  -49.4906 O.2       18 UNK        -0.5000 
    104 N         -6.3682  -19.8651  -47.2938 N.am      19 UNK        -0.5000 
    105 CA        -5.1869  -19.0084  -47.1203 C.3       19 UNK         0.1400 
    106 CB        -5.1725  -18.4271  -45.6993 C.3       19 UNK        -0.1800 
    107 C         -5.0481  -17.8833  -48.1613 C.2       19 UNK         0.5000 
    108 O         -3.9272  -17.5719  -48.5619 O.2       19 UNK        -0.5000 
    109 N         -6.1841  -17.3355  -48.6138 N.am      20 UNK        -0.5000 
    110 CA        -6.2862  -16.2973  -49.6426 C.3       20 UNK         0.1400 
    111 CB        -7.7489  -15.8369  -49.7323 C.3       20 UNK        -0.1800 
    112 C         -5.7657  -16.7136  -51.0346 C.2       20 UNK         0.5000 
    113 O         -5.4272  -15.8377  -51.8305 O.2       20 UNK        -0.5000 
    114 N         -5.6913  -18.0243  -51.3113 N.am      21 UNK        -0.5000 
    115 CA        -5.0900  -18.5674  -52.5334 C.3       21 UNK         0.1400 
    116 CB        -5.5996  -20.0003  -52.7479 C.3       21 UNK        -0.1800 
    117 C         -3.5476  -18.5522  -52.4934 C.2       21 UNK         0.5000 
    118 O         -2.9149  -18.6658  -53.5442 O.2       21 UNK        -0.5000 
    119 N         -2.9797  -18.4111  -51.2887 N.am      22 UNK        -0.5000 
    120 CA        -1.5519  -18.4976  -50.9648 C.3       22 UNK         0.1400 
    121 C         -0.9583  -19.9327  -51.1065 C.2       22 UNK         0.5000 
    122 N          0.3131  -20.1184  -50.7827 N.am      22 UNK        -0.7600 
    123 O         -1.6319  -20.8899  -51.4790 O.2       22 UNK        -0.5000 
    124 C124       -0.7008  -17.3955  -51.6669 C.3       23 UNK        -0.0398 
    125 S125        0.4655  -16.5856  -50.5187 S.3       23 UNK        -0.2404 
    126 C126        2.1007  -17.1703  -51.0782 C.3       23 UNK        -0.0205 
    127 H127        4.0375   -9.9025  -43.3417 H         1 UNK         0.0600 
    128 H128        4.7299  -11.5180  -43.5130 H         1 UNK         0.0600 
    129 H129        3.5340  -11.2005  -42.2534 H         1 UNK         0.0600 
    130 H130        3.8637  -12.6525  -45.2195 H         1 UNK         0.3000 
    131 H131        1.0779  -13.0014  -45.6508 H         1 UNK         0.0600 
    132 H132        1.7666  -14.3041  -47.6567 H         1 UNK         0.0800 
    133 H133        3.3765  -13.6514  -47.5621 H         1 UNK         0.0800 
    134 H134        5.0340  -15.1789  -47.1946 H         1 UNK         0.0800 
    135 H135        5.1090  -16.4417  -46.0011 H         1 UNK         0.0800 
    136 H136        3.0078  -15.6182  -49.0540 H         1 UNK         0.1150 
    137 H137        3.1634  -19.6387  -50.5141 H         1 UNK         0.1150 
    138 H138        5.1009  -18.6308  -46.8311 H         1 UNK         0.1150 
    139 H139        4.6834  -21.2235  -49.4874 H         1 UNK         0.0800 
    140 H140        5.7585  -20.6757  -48.2296 H         1 UNK         0.0800 
    141 H141        2.3594  -21.8424  -49.2237 H         1 UNK         0.0800 
    142 H142        1.5284  -21.0636  -47.8978 H         1 UNK         0.0800 
    143 H143        2.2203  -24.0475  -48.0920 H         1 UNK         0.0600 
    144 H144        1.5447  -22.5805  -45.7822 H         1 UNK         0.3000 
    145 H145        0.0154  -25.1511  -43.8909 H         1 UNK         0.0600 
    146 H146        1.9484  -24.7561  -42.4039 H         1 UNK         0.0600 
    147 H147        2.4540  -25.7064  -43.7923 H         1 UNK         0.0600 
    148 H148        2.8446  -23.9913  -43.7154 H         1 UNK         0.0600 
    149 H149        0.8183  -22.6466  -43.0035 H         1 UNK         0.3000 
    150 H150       -1.9000  -20.6343  -44.0611 H         1 UNK         0.0600 
    151 H151       -2.7263  -21.9772  -42.1561 H         1 UNK         0.0600 
    152 H152       -2.1353  -20.4161  -41.6076 H         1 UNK         0.0600 
    153 H153       -1.1651  -21.8666  -41.3568 H         1 UNK         0.0600 
    154 H154       -0.1897  -19.3363  -43.8290 H         1 UNK         0.3000 
    155 H155        2.5626  -18.9943  -41.7528 H         1 UNK         0.0600 
    156 H156        2.8586  -19.6548  -44.7395 H         1 UNK         0.0600 
    157 H157        4.0015  -18.7262  -43.7707 H         1 UNK         0.0600 
    158 H158        3.7442  -20.4301  -43.4322 H         1 UNK         0.0600 
    159 H159        1.7181  -17.5920  -44.1173 H         1 UNK         0.3000 
    160 H160       -1.0580  -15.9217  -42.8462 H         1 UNK         0.0600 
    161 H161        1.7059  -14.6444  -43.2351 H         1 UNK         0.0600 
    162 H162        0.6662  -14.4390  -41.8330 H         1 UNK         0.0600 
    163 H163        0.1589  -13.8132  -43.3934 H         1 UNK         0.0600 
    164 H164        0.4455  -15.5259  -45.2263 H         1 UNK         0.3000 
    165 H165        0.4690  -16.8928  -47.0381 H         1 UNK         0.0600 
    166 H166       -0.1239  -18.8631  -48.2532 H         1 UNK         0.0600 
    167 H167        0.0597  -19.3895  -46.5998 H         1 UNK         0.0600 
    168 H168       -1.5558  -19.1687  -47.2610 H         1 UNK         0.0600 
    169 H169       -2.3243  -17.0289  -47.8933 H         1 UNK         0.3000 
    170 H170       -3.0752  -15.1659  -49.0863 H         1 UNK         0.0600 
    171 H171       -4.2156  -15.2560  -46.8218 H         1 UNK         0.0600 
    172 H172       -3.5800  -13.6630  -46.4360 H         1 UNK         0.0600 
    173 H173       -4.7597  -13.8554  -47.7291 H         1 UNK         0.0600 
    174 H174       -1.4005  -12.9457  -48.4500 H         1 UNK         0.3000 
    175 H175       -2.6483  -10.9536  -51.1574 H         1 UNK         0.0600 
    176 H176       -2.0742  -10.3202  -48.2125 H         1 UNK         0.0600 
    177 H177       -2.0058   -9.1718  -49.5476 H         1 UNK         0.0600 
    178 H178       -3.5402   -9.8974  -49.0902 H         1 UNK         0.0600 
    179 H179       -0.2309  -11.2994  -49.4935 H         1 UNK         0.3000 
    180 H180        1.5515  -13.0982  -51.2625 H         1 UNK         0.0600 
    181 H181        1.8232  -10.5733  -52.9759 H         1 UNK         0.0600 
    182 H182        1.6825  -12.2264  -53.5537 H         1 UNK         0.0600 
    183 H183        3.1178  -11.7318  -52.6734 H         1 UNK         0.0600 
    184 H184        2.3821  -11.9819  -49.5587 H         1 UNK         0.3000 
    185 H185        3.5148   -9.3029  -48.6769 H         1 UNK         0.0600 
    186 H186        1.7140   -7.6217  -48.5492 H         1 UNK         0.0600 
    187 H187        0.6132   -8.7896  -47.8306 H         1 UNK         0.0600 
    188 H188        2.0348   -8.2467  -46.9410 H         1 UNK         0.0600 
    189 H189        3.4893  -10.9279  -47.1738 H         1 UNK         0.3000 
    190 H190       -0.8333  -22.4795  -47.1526 H         1 UNK         0.3000 
    191 H191       -2.1328  -23.0434  -49.7338 H         1 UNK         0.0600 
    192 H192       -3.1998  -21.8655  -47.1172 H         1 UNK         0.0600 
    193 H193       -4.1060  -22.0258  -48.6179 H         1 UNK         0.0600 
    194 H194       -2.7110  -20.9629  -48.5570 H         1 UNK         0.0600 
    195 H195       -2.1058  -24.2740  -46.3671 H         1 UNK         0.3000 
    196 H196       -4.1678  -26.1750  -46.6218 H         1 UNK         0.0600 
    197 H197       -3.2322  -27.1483  -44.5656 H         1 UNK         0.0600 
    198 H198       -3.1611  -25.3952  -44.4510 H         1 UNK         0.0600 
    199 H199       -1.7034  -26.3210  -44.8127 H         1 UNK         0.0600 
    200 H200       -0.6507  -26.5131  -47.2789 H         1 UNK         0.3000 
    201 H201       -0.6481  -29.2607  -47.9813 H         1 UNK         0.0600 
    202 H202        1.4092  -27.9945  -47.4549 H         1 UNK         0.0600 
    203 H203        1.1795  -26.9631  -48.8662 H         1 UNK         0.0600 
    204 H204        1.5389  -28.6753  -49.0689 H         1 UNK         0.0600 
    205 H205       -1.6091  -26.4177  -49.8242 H         1 UNK         0.3000 
    206 H206       -1.7996  -27.8486  -52.3927 H         1 UNK         0.0600 
    207 H207       -1.0510  -25.4567  -52.2996 H         1 UNK         0.0600 
    208 H208       -2.5267  -25.6431  -53.2341 H         1 UNK         0.0600 
    209 H209       -2.6019  -24.9957  -51.6027 H         1 UNK         0.0600 
    210 H210       -3.6394  -27.7201  -49.5956 H         1 UNK         0.3000 
    211 H211       -5.6869  -28.1377  -48.9339 H         1 UNK         0.0600 
    212 H212       -6.2109  -29.3757  -51.6873 H         1 UNK         0.0600 
    213 H213       -7.1256  -29.6681  -50.2151 H         1 UNK         0.0600 
    214 H214       -5.4583  -30.2066  -50.3262 H         1 UNK         0.0600 
    215 H215       -5.1756  -25.5417  -49.7909 H         1 UNK         0.3000 
    216 H216       -7.7751  -24.5896  -50.9317 H         1 UNK         0.0600 
    217 H217       -6.4493  -22.7378  -51.8823 H         1 UNK         0.0600 
    218 H218       -5.7560  -24.2547  -52.4292 H         1 UNK         0.0600 
    219 H219       -4.9726  -23.3446  -51.1385 H         1 UNK         0.0600 
    220 H220       -8.2500  -22.3400  -50.2392 H         1 UNK         0.3000 
    221 H221       -7.9865  -21.8818  -47.3635 H         1 UNK         0.0600 
    222 H222       -9.1835  -20.1728  -49.6230 H         1 UNK         0.0600 
    223 H223      -10.0860  -21.2883  -48.5973 H         1 UNK         0.0600 
    224 H224       -9.3486  -19.8553  -47.9004 H         1 UNK         0.0600 
    225 H225       -6.9281  -20.0197  -46.4676 H         1 UNK         0.3000 
    226 H226       -4.3078  -19.6435  -47.2242 H         1 UNK         0.0600 
    227 H227       -5.1486  -19.2179  -44.9494 H         1 UNK         0.0600 
    228 H228       -4.2886  -17.8072  -45.5396 H         1 UNK         0.0600 
    229 H229       -6.0489  -17.8066  -45.5083 H         1 UNK         0.0600 
    230 H230       -7.0550  -17.6778  -48.2359 H         1 UNK         0.3000 
    231 H231       -5.6818  -15.4486  -49.3191 H         1 UNK         0.0600 
    232 H232       -7.8637  -15.0388  -50.4671 H         1 UNK         0.0600 
    233 H233       -8.0999  -15.4478  -48.7763 H         1 UNK         0.0600 
    234 H234       -8.4093  -16.6532  -50.0275 H         1 UNK         0.0600 
    235 H235       -5.9657  -18.7027  -50.6069 H         1 UNK         0.3000 
    236 H236       -5.4101  -17.9618  -53.3839 H         1 UNK         0.0600 
    237 H237       -6.6887  -20.0440  -52.7348 H         1 UNK         0.0600 
    238 H238       -5.2672  -20.3920  -53.7098 H         1 UNK         0.0600 
    239 H239       -5.2237  -20.6730  -51.9766 H         1 UNK         0.0600 
    240 H240       -3.5895  -18.3073  -50.4870 H         1 UNK         0.3000 
    241 H241       -1.5546  -18.2999  -49.8952 H         1 UNK         0.0600 
    242 H242        0.8837  -19.3586  -50.4499 H         1 UNK         0.3800 
    243 H243        0.6993  -21.0412  -50.8959 H         1 UNK         0.3800 
    244 H244       -0.1873  -17.7786  -52.5501 H         1 UNK         0.0800 
    245 H245       -1.3482  -16.5998  -52.0381 H         1 UNK         0.0800 
    246 H246        1.9967  -17.9933  -51.7862 H         1 UNK         0.0800 
    247 H247        2.5964  -16.3646  -51.6214 H         1 UNK         0.0800 
@<TRIPOS>BOND
     1    1    2 1    
     2    1  127 1    
     3    1  128 1    
     4    1  129 1    
     5    2    3 2    
     6    2    4 am   BACKBONE|DICT|INTERRES
     7    4    5 1    
     8    4  130 1    
     9    5    6 1    
    10    5   65 1    
    11    5  131 1    
    12    6    7 1    
    13    6  132 1    
    14    6  133 1    
    15    7    8 1    
    16    8    9 1    
    17    8  134 1    
    18    8  135 1    
    19    9   10 ar   
    20    9   14 ar   
    21   10   11 ar   
    22   10  136 1    
    23   11   12 ar   
    24   11  126 1    
    25   12   13 ar   
    26   12  137 1    
    27   13   14 ar   
    28   13   15 1    
    29   14  138 1    
    30   15   16 1    
    31   15  139 1    
    32   15  140 1    
    33   16   17 1    
    34   17   18 1    
    35   17  141 1    
    36   17  142 1    
    37   18   19 1    
    38   18   67 1    
    39   18  143 1    
    40   19   20 am   BACKBONE|DICT|INTERRES
    41   19  144 1    
    42   20   21 2    
    43   20   22 1    
    44   22   23 1    
    45   22   24 1    
    46   22  145 1    
    47   23  146 1    
    48   23  147 1    
    49   23  148 1    
    50   24   25 am   BACKBONE|DICT|INTERRES
    51   24  149 1    
    52   25   26 2    
    53   25   27 1    
    54   27   28 1    
    55   27   29 1    
    56   27  150 1    
    57   28  151 1    
    58   28  152 1    
    59   28  153 1    
    60   29   30 am   BACKBONE|DICT|INTERRES
    61   29  154 1    
    62   30   31 2    
    63   30   32 1    
    64   32   33 1    
    65   32   34 1    
    66   32  155 1    
    67   33  156 1    
    68   33  157 1    
    69   33  158 1    
    70   34   35 am   BACKBONE|DICT|INTERRES
    71   34  159 1    
    72   35   36 2    
    73   35   37 1    
    74   37   38 1    
    75   37   39 1    
    76   37  160 1    
    77   38  161 1    
    78   38  162 1    
    79   38  163 1    
    80   39   40 am   BACKBONE|DICT|INTERRES
    81   39  164 1    
    82   40   41 2    
    83   40   42 1    
    84   42   43 1    
    85   42   44 1    
    86   42  165 1    
    87   43  166 1    
    88   43  167 1    
    89   43  168 1    
    90   44   45 am   BACKBONE|DICT|INTERRES
    91   44  169 1    
    92   45   46 2    
    93   45   47 1    
    94   47   48 1    
    95   47   49 1    
    96   47  170 1    
    97   48  171 1    
    98   48  172 1    
    99   48  173 1    
   100   49   50 am   BACKBONE|DICT|INTERRES
   101   49  174 1    
   102   50   51 2    
   103   50   52 1    
   104   52   53 1    
   105   52   54 1    
   106   52  175 1    
   107   53  176 1    
   108   53  177 1    
   109   53  178 1    
   110   54   55 am   BACKBONE|DICT|INTERRES
   111   54  179 1    
   112   55   56 2    
   113   55   57 1    
   114   57   58 1    
   115   57   59 1    
   116   57  180 1    
   117   58  181 1    
   118   58  182 1    
   119   58  183 1    
   120   59   60 am   BACKBONE|DICT|INTERRES
   121   59  184 1    
   122   60   61 2    
   123   60   62 1    
   124   62   63 1    
   125   62   64 1    
   126   62  185 1    
   127   63  186 1    
   128   63  187 1    
   129   63  188 1    
   130   64   65 am   BACKBONE|DICT|INTERRES
   131   64  189 1    
   132   65   66 2    
   133   67   68 2    
   134   67   69 am   BACKBONE|DICT|INTERRES
   135   69   70 1    
   136   69  190 1    
   137   70   71 1    
   138   70   72 1    
   139   70  191 1    
   140   71  192 1    
   141   71  193 1    
   142   71  194 1    
   143   72   73 2    
   144   72   74 am   BACKBONE|DICT|INTERRES
   145   74   75 1    
   146   74  195 1    
   147   75   76 1    
   148   75   77 1    
   149   75  196 1    
   150   76  197 1    
   151   76  198 1    
   152   76  199 1    
   153   77   78 2    
   154   77   79 am   BACKBONE|DICT|INTERRES
   155   79   80 1    
   156   79  200 1    
   157   80   81 1    
   158   80   82 1    
   159   80  201 1    
   160   81  202 1    
   161   81  203 1    
   162   81  204 1    
   163   82   83 2    
   164   82   84 am   BACKBONE|DICT|INTERRES
   165   84   85 1    
   166   84  205 1    
   167   85   86 1    
   168   85   87 1    
   169   85  206 1    
   170   86  207 1    
   171   86  208 1    
   172   86  209 1    
   173   87   88 2    
   174   87   89 am   BACKBONE|DICT|INTERRES
   175   89   90 1    
   176   89  210 1    
   177   90   91 1    
   178   90   92 1    
   179   90  211 1    
   180   91  212 1    
   181   91  213 1    
   182   91  214 1    
   183   92   93 2    
   184   92   94 am   BACKBONE|DICT|INTERRES
   185   94   95 1    
   186   94  215 1    
   187   95   96 1    
   188   95   97 1    
   189   95  216 1    
   190   96  217 1    
   191   96  218 1    
   192   96  219 1    
   193   97   98 2    
   194   97   99 am   BACKBONE|DICT|INTERRES
   195   99  100 1    
   196   99  220 1    
   197  100  101 1    
   198  100  102 1    
   199  100  221 1    
   200  101  222 1    
   201  101  223 1    
   202  101  224 1    
   203  102  103 2    
   204  102  104 am   BACKBONE|DICT|INTERRES
   205  104  105 1    
   206  104  225 1    
   207  105  106 1    
   208  105  107 1    
   209  105  226 1    
   210  106  227 1    
   211  106  228 1    
   212  106  229 1    
   213  107  108 2    
   214  107  109 am   BACKBONE|DICT|INTERRES
   215  109  110 1    
   216  109  230 1    
   217  110  111 1    
   218  110  112 1    
   219  110  231 1    
   220  111  232 1    
   221  111  233 1    
   222  111  234 1    
   223  112  113 2    
   224  112  114 am   BACKBONE|DICT|INTERRES
   225  114  115 1    
   226  114  235 1    
   227  115  116 1    
   228  115  117 1    
   229  115  236 1    
   230  116  237 1    
   231  116  238 1    
   232  116  239 1    
   233  117  118 2    
   234  117  119 am   BACKBONE|DICT|INTERRES
   235  119  120 1    
   236  119  240 1    
   237  120  121 1    
   238  120  124 1    
   239  120  241 1    
   240  121  122 am   BACKBONE|DICT|INTERRES
   241  121  123 2    
   242  122  242 1    
   243  122  243 1    
   244  124  125 1    
   245  124  244 1    
   246  124  245 1    
   247  125  126 1    
   248  126  246 1    
   249  126  247 1    
@<TRIPOS>SUBSTRUCTURE
     1 UNK         1 GROUP             0       ****    0 ROOT    
