@<TRIPOS>MOLECULE
3R540
247   249    1
SMALL
USER_CHARGES


@<TRIPOS>ATOM
      1 CA         -3.1750  -11.6762  -51.5436 C.3       0 UNK        -0.1800 
      2 C          -2.2913  -12.8765  -51.2378 C.2       0 UNK         0.5000 
      3 O          -2.0363  -13.6970  -52.1206 O.2       0 UNK        -0.5000 
      4 N          -1.8239  -12.9746  -49.9888 N.am      1 UNK        -0.5000 
      5 CA         -0.9019  -14.0130  -49.5115 C.3       1 UNK         0.1400 
      6 C6         -1.0145  -14.2193  -47.9840 C.3       23 UNK        -0.0398 
      7 S7         -2.7014  -14.5937  -47.4102 S.3       23 UNK        -0.2404 
      8 C8         -2.4525  -16.1937  -46.5871 C.3       23 UNK        -0.0205 
      9 C9         -2.5606  -17.3573  -47.5576 C.ar      23 UNK        -0.0193 
     10 C10        -3.8249  -17.7967  -47.9553 C.ar      23 UNK        -0.1150 
     11 C11        -3.9575  -18.8680  -48.8379 C.ar      23 UNK        -0.0193 
     12 C12        -2.8153  -19.5443  -49.2674 C.ar      23 UNK        -0.1150 
     13 C13        -1.5407  -19.1354  -48.8661 C.ar      23 UNK        -0.0193 
     14 C14        -1.4190  -18.0110  -48.0361 C.ar      23 UNK        -0.1150 
     15 C15        -0.3382  -19.9335  -49.3751 C.3       23 UNK        -0.0205 
     16 S16         1.1310  -20.0022  -48.2850 S.3       23 UNK        -0.2404 
     17 C17         0.4628  -20.3621  -46.6230 C.3       23 UNK        -0.0398 
     18 CA          0.3951  -21.8620  -46.2611 C.3       11 UNK         0.1400 
     19 N           0.1949  -22.0559  -44.8231 N.am      11 UNK        -0.5000 
     20 C           0.2954  -23.2304  -44.1845 C.2       10 UNK         0.5000 
     21 O           0.6361  -24.2794  -44.7291 O.2       10 UNK        -0.5000 
     22 CA         -0.0998  -23.2447  -42.6969 C.3       10 UNK         0.1400 
     23 CB          1.1038  -22.8930  -41.8105 C.3       10 UNK        -0.1800 
     24 N          -1.2122  -22.3370  -42.4076 N.am      10 UNK        -0.5000 
     25 C          -2.4686  -22.5412  -42.8329 C.2       9 UNK         0.5000 
     26 O          -2.8135  -23.5279  -43.4809 O.2       9 UNK        -0.5000 
     27 CA         -3.5092  -21.4462  -42.5330 C.3       9 UNK         0.1400 
     28 CB         -4.2077  -21.7202  -41.1933 C.3       9 UNK        -0.1800 
     29 N          -2.9522  -20.0938  -42.5181 N.am      9 UNK        -0.5000 
     30 C          -2.3302  -19.5025  -43.5467 C.2       8 UNK         0.5000 
     31 O          -2.1671  -20.0426  -44.6414 O.2       8 UNK        -0.5000 
     32 CA         -1.7615  -18.0896  -43.3044 C.3       8 UNK         0.1400 
     33 CB         -2.4043  -17.3581  -42.1061 C.3       8 UNK        -0.1800 
     34 N          -0.3016  -18.0757  -43.1727 N.am      8 UNK        -0.5000 
     35 C           0.4452  -18.8074  -42.3310 C.2       7 UNK         0.5000 
     36 O          -0.0004  -19.6891  -41.5952 O.2       7 UNK        -0.5000 
     37 CA          1.9445  -18.4728  -42.2821 C.3       7 UNK         0.1400 
     38 CB          2.6985  -19.1151  -43.4573 C.3       7 UNK        -0.1800 
     39 N           2.1671  -17.0261  -42.2854 N.am      7 UNK        -0.5000 
     40 C           2.1185  -16.2492  -41.1933 C.2       6 UNK         0.5000 
     41 O           1.9256  -16.6829  -40.0569 O.2       6 UNK        -0.5000 
     42 CA          2.3337  -14.7345  -41.3912 C.3       6 UNK         0.1400 
     43 CB          3.8088  -14.3700  -41.1636 C.3       6 UNK        -0.1800 
     44 N           1.9316  -14.2643  -42.7168 N.am      6 UNK        -0.5000 
     45 C           0.6624  -14.0900  -43.1122 C.2       5 UNK         0.5000 
     46 O          -0.3101  -14.2366  -42.3728 O.2       5 UNK        -0.5000 
     47 CA          0.4411  -13.7110  -44.5920 C.3       5 UNK         0.1400 
     48 CB          0.3445  -12.1849  -44.7399 C.3       5 UNK        -0.1800 
     49 N           1.4856  -14.2111  -45.4927 N.am      5 UNK        -0.5000 
     50 C           1.8199  -15.5002  -45.6507 C.2       4 UNK         0.5000 
     51 O           1.2216  -16.4196  -45.0887 O.2       4 UNK        -0.5000 
     52 CA          3.0316  -15.8276  -46.5468 C.3       4 UNK         0.1400 
     53 CB          2.6854  -16.9174  -47.5658 C.3       4 UNK        -0.1800 
     54 N           3.5908  -14.6709  -47.2495 N.am      4 UNK        -0.5000 
     55 C           4.4276  -13.7756  -46.7054 C.2       3 UNK         0.5000 
     56 O           4.7746  -13.8089  -45.5243 O.2       3 UNK        -0.5000 
     57 CA          4.9580  -12.6482  -47.6167 C.3       3 UNK         0.1400 
     58 CB          6.4054  -12.9406  -48.0411 C.3       3 UNK        -0.1800 
     59 N           4.1512  -12.4194  -48.8191 N.am      3 UNK        -0.5000 
     60 C           2.9034  -11.9336  -48.8223 C.2       2 UNK         0.5000 
     61 O           2.2987  -11.6218  -47.7937 O.2       2 UNK        -0.5000 
     62 CA          2.1883  -11.7938  -50.1855 C.3       2 UNK         0.1400 
     63 CB          2.9893  -12.3300  -51.3942 C.3       2 UNK        -0.1800 
     64 N           0.8545  -12.3985  -50.1258 N.am      2 UNK        -0.5000 
     65 C           0.5682  -13.6799  -49.8439 C.2       1 UNK         0.5000 
     66 O           1.4173  -14.5684  -49.7691 O.2       1 UNK        -0.5000 
     67 C          -0.7135  -22.5761  -47.0523 C.2       11 UNK         0.5000 
     68 O          -0.4110  -23.3543  -47.9562 O.2       11 UNK        -0.5000 
     69 N          -1.9731  -22.3303  -46.6626 N.am      12 UNK        -0.5000 
     70 CA         -3.1566  -22.9418  -47.2640 C.3       12 UNK         0.1400 
     71 CB         -4.4208  -22.3249  -46.6501 C.3       12 UNK        -0.1800 
     72 C          -3.1658  -24.4766  -47.1366 C.2       12 UNK         0.5000 
     73 O          -3.4957  -25.1574  -48.1075 O.2       12 UNK        -0.5000 
     74 N          -2.7614  -24.9939  -45.9677 N.am      13 UNK        -0.5000 
     75 CA         -2.6037  -26.4236  -45.7015 C.3       13 UNK         0.1400 
     76 CB         -2.3512  -26.6493  -44.2034 C.3       13 UNK        -0.1800 
     77 C          -1.4886  -27.0703  -46.5424 C.2       13 UNK         0.5000 
     78 O          -1.7051  -28.1481  -47.0964 O.2       13 UNK        -0.5000 
     79 N          -0.3313  -26.3992  -46.6440 N.am      14 UNK        -0.5000 
     80 CA          0.8146  -26.8449  -47.4414 C.3       14 UNK         0.1400 
     81 CB          2.0406  -25.9775  -47.1184 C.3       14 UNK        -0.1800 
     82 C           0.5287  -26.8387  -48.9539 C.2       14 UNK         0.5000 
     83 O           0.9321  -27.7685  -49.6537 O.2       14 UNK        -0.5000 
     84 N          -0.1790  -25.8037  -49.4242 N.am      15 UNK        -0.5000 
     85 CA         -0.6261  -25.6590  -50.8092 C.3       15 UNK         0.1400 
     86 CB         -1.0990  -24.2134  -51.0254 C.3       15 UNK        -0.1800 
     87 C          -1.7498  -26.6398  -51.1951 C.2       15 UNK         0.5000 
     88 O          -1.8819  -26.9619  -52.3761 O.2       15 UNK        -0.5000 
     89 N          -2.5367  -27.0721  -50.1969 N.am      16 UNK        -0.5000 
     90 CA         -3.8183  -27.7759  -50.3112 C.3       16 UNK         0.1400 
     91 CB         -3.6545  -29.1610  -50.9717 C.3       16 UNK        -0.1800 
     92 C          -4.8687  -26.8744  -50.9939 C.2       16 UNK         0.5000 
     93 O          -5.5188  -27.2874  -51.9563 O.2       16 UNK        -0.5000 
     94 N          -4.9715  -25.6443  -50.4669 N.am      17 UNK        -0.5000 
     95 CA         -5.6819  -24.4668  -50.9754 C.3       17 UNK         0.1400 
     96 CB         -7.1756  -24.7587  -51.2238 C.3       17 UNK        -0.1800 
     97 C          -5.0033  -23.8453  -52.2142 C.2       17 UNK         0.5000 
     98 O          -4.2216  -24.5012  -52.9053 O.2       17 UNK        -0.5000 
     99 N          -5.3240  -22.5683  -52.4645 N.am      18 UNK        -0.5000 
    100 CA        -4.7670  -21.7160  -53.5206 C.3       18 UNK         0.1400 
    101 CB        -5.2012  -22.2140  -54.9183 C.3       18 UNK        -0.1800 
    102 C         -3.2431  -21.5021  -53.3647 C.2       18 UNK         0.5000 
    103 O         -2.7692  -21.3802  -52.2350 O.2       18 UNK        -0.5000 
    104 N         -2.5185  -21.3999  -54.4915 N.am      19 UNK        -0.5000 
    105 CA        -1.0963  -21.0300  -54.6088 C.3       19 UNK         0.1400 
    106 CB        -0.1858  -22.0663  -53.9189 C.3       19 UNK        -0.1800 
    107 C         -0.8005  -19.5836  -54.1464 C.2       19 UNK         0.5000 
    108 O          0.3438  -19.2497  -53.8354 O.2       19 UNK        -0.5000 
    109 N         -1.8465  -18.7541  -54.1298 N.am      20 UNK        -0.5000 
    110 CA        -1.9190  -17.3759  -53.6697 C.3       20 UNK         0.1400 
    111 CB        -1.6920  -17.3115  -52.1463 C.3       20 UNK        -0.1800 
    112 C         -3.3276  -16.8742  -54.0245 C.2       20 UNK         0.5000 
    113 O         -4.1974  -17.6853  -54.3621 O.2       20 UNK        -0.5000 
    114 N         -3.5471  -15.5586  -53.9178 N.am      21 UNK        -0.5000 
    115 CA        -4.8814  -14.9587  -54.0265 C.3       21 UNK         0.1400 
    116 CB        -4.7507  -13.5056  -54.5079 C.3       21 UNK        -0.1800 
    117 C         -5.6747  -15.0594  -52.7050 C.2       21 UNK         0.5000 
    118 O         -6.8950  -14.8917  -52.7215 O.2       21 UNK        -0.5000 
    119 N         -4.9704  -15.3641  -51.6055 N.am      22 UNK        -0.5000 
    120 CA        -5.4821  -15.5858  -50.2441 C.3       22 UNK         0.1400 
    121 C         -6.0489  -14.3003  -49.5636 C.2       22 UNK         0.5000 
    122 N         -6.5942  -14.4040  -48.3580 N.am      22 UNK        -0.7600 
    123 O         -5.9748  -13.1930  -50.0907 O.2       22 UNK        -0.5000 
    124 C124       -6.4563  -16.8008  -50.1460 C.3       23 UNK        -0.0398 
    125 S125       -5.7969  -18.3637  -50.8369 S.3       23 UNK        -0.2404 
    126 C126       -5.3276  -19.2920  -49.3394 C.3       23 UNK        -0.0205 
    127 H127       -2.8172  -11.1627  -52.4361 H         1 UNK         0.0600 
    128 H128       -3.1838  -10.9601  -50.7214 H         1 UNK         0.0600 
    129 H129       -4.2005  -11.9987  -51.7197 H         1 UNK         0.0600 
    130 H130       -2.1148  -12.2977  -49.2976 H         1 UNK         0.3000 
    131 H131       -1.1451  -14.9591  -49.9973 H         1 UNK         0.0600 
    132 H132       -0.3449  -15.0214  -47.6711 H         1 UNK         0.0800 
    133 H133       -0.6836  -13.3252  -47.4545 H         1 UNK         0.0800 
    134 H134       -1.4941  -16.2074  -46.0666 H         1 UNK         0.0800 
    135 H135       -3.2184  -16.3003  -45.8178 H         1 UNK         0.0800 
    136 H136       -4.7058  -17.2862  -47.5939 H         1 UNK         0.1150 
    137 H137       -2.9206  -20.3895  -49.9312 H         1 UNK         0.1150 
    138 H138       -0.4411  -17.6686  -47.7297 H         1 UNK         0.1150 
    139 H139       -0.6426  -20.9604  -49.5845 H         1 UNK         0.0800 
    140 H140       -0.0326  -19.5141  -50.3342 H         1 UNK         0.0800 
    141 H141       -0.5042  -19.8863  -46.4886 H         1 UNK         0.0800 
    142 H142        1.1239  -19.8568  -45.9206 H         1 UNK         0.0800 
    143 H143        1.3493  -22.3235  -46.5251 H         1 UNK         0.0600 
    144 H144       -0.1807  -21.2685  -44.3138 H         1 UNK         0.3000 
    145 H145       -0.4167  -24.2594  -42.4466 H         1 UNK         0.0600 
    146 H146        0.8391  -22.9270  -40.7536 H         1 UNK         0.0600 
    147 H147        1.9193  -23.6007  -41.9648 H         1 UNK         0.0600 
    148 H148        1.4908  -21.8976  -42.0271 H         1 UNK         0.0600 
    149 H149       -0.9877  -21.4754  -41.9199 H         1 UNK         0.3000 
    150 H150       -4.2607  -21.4829  -43.3240 H         1 UNK         0.0600 
    151 H151       -5.0092  -21.0039  -41.0118 H         1 UNK         0.0600 
    152 H152       -4.6544  -22.7155  -41.1824 H         1 UNK         0.0600 
    153 H153       -3.5097  -21.6641  -40.3569 H         1 UNK         0.0600 
    154 H154       -3.0065  -19.5933  -41.6431 H         1 UNK         0.3000 
    155 H155       -1.9947  -17.5178  -44.1990 H         1 UNK         0.0600 
    156 H156       -2.0734  -16.3205  -42.0656 H         1 UNK         0.0600 
    157 H157       -2.1459  -17.8190  -41.1521 H         1 UNK         0.0600 
    158 H158       -3.4919  -17.3420  -42.1891 H         1 UNK         0.0600 
    159 H159        0.1834  -17.4225  -43.7817 H         1 UNK         0.3000 
    160 H160        2.3472  -18.8972  -41.3598 H         1 UNK         0.0600 
    161 H161        2.4196  -18.6709  -44.4117 H         1 UNK         0.0600 
    162 H162        2.4972  -20.1851  -43.5196 H         1 UNK         0.0600 
    163 H163        3.7755  -18.9944  -43.3408 H         1 UNK         0.0600 
    164 H164        2.2560  -16.5865  -43.1909 H         1 UNK         0.3000 
    165 H165        1.7349  -14.2141  -40.6406 H         1 UNK         0.0600 
    166 H166        3.9633  -13.2928  -41.2286 H         1 UNK         0.0600 
    167 H167        4.1415  -14.6857  -40.1738 H         1 UNK         0.0600 
    168 H168        4.4597  -14.8476  -41.8971 H         1 UNK         0.0600 
    169 H169        2.6705  -14.1011  -43.3860 H         1 UNK         0.3000 
    170 H170       -0.5080  -14.1506  -44.9043 H         1 UNK         0.0600 
    171 H171       -0.4525  -11.7815  -44.1139 H         1 UNK         0.0600 
    172 H172        1.2735  -11.6945  -44.4464 H         1 UNK         0.0600 
    173 H173        0.1273  -11.8940  -45.7672 H         1 UNK         0.0600 
    174 H174        2.0196  -13.5154  -45.9954 H         1 UNK         0.3000 
    175 H175        3.8033  -16.2329  -45.8891 H         1 UNK         0.0600 
    176 H176        1.8295  -16.6458  -48.1836 H         1 UNK         0.0600 
    177 H177        3.5258  -17.1329  -48.2256 H         1 UNK         0.0600 
    178 H178        2.4392  -17.8422  -47.0466 H         1 UNK         0.0600 
    179 H179        3.3142  -14.5567  -48.2161 H         1 UNK         0.3000 
    180 H180        4.9545  -11.7284  -47.0281 H         1 UNK         0.0600 
    181 H181        6.4713  -13.8427  -48.6507 H         1 UNK         0.0600 
    182 H182        7.0472  -13.0850  -47.1708 H         1 UNK         0.0600 
    183 H183        6.8232  -12.1140  -48.6162 H         1 UNK         0.0600 
    184 H184        4.5744  -12.6693  -49.7013 H         1 UNK         0.3000 
    185 H185        2.0360  -10.7247  -50.3391 H         1 UNK         0.0600 
    186 H186        3.9251  -11.7843  -51.5203 H         1 UNK         0.0600 
    187 H187        3.2307  -13.3889  -51.2975 H         1 UNK         0.0600 
    188 H188        2.4238  -12.2066  -52.3179 H         1 UNK         0.0600 
    189 H189        0.0834  -11.7470  -50.1426 H         1 UNK         0.3000 
    190 H190       -2.1307  -21.6595  -45.9175 H         1 UNK         0.3000 
    191 H191       -3.1441  -22.6988  -48.3287 H         1 UNK         0.0600 
    192 H192       -4.4353  -21.2427  -46.7836 H         1 UNK         0.0600 
    193 H193       -5.3187  -22.7244  -47.1230 H         1 UNK         0.0600 
    194 H194       -4.4911  -22.5315  -45.5820 H         1 UNK         0.0600 
    195 H195       -2.5704  -24.3662  -45.1916 H         1 UNK         0.3000 
    196 H196       -3.5429  -26.9156  -45.9629 H         1 UNK         0.0600 
    197 H197       -2.2326  -27.7106  -43.9815 H         1 UNK         0.0600 
    198 H198       -3.1857  -26.2842  -43.6044 H         1 UNK         0.0600 
    199 H199       -1.4485  -26.1393  -43.8660 H         1 UNK         0.0600 
    200 H200       -0.2141  -25.5307  -46.1326 H         1 UNK         0.3000 
    201 H201        1.0438  -27.8729  -47.1530 H         1 UNK         0.0600 
    202 H202        2.3136  -26.0591  -46.0663 H         1 UNK         0.0600 
    203 H203        1.8576  -24.9245  -47.3358 H         1 UNK         0.0600 
    204 H204        2.9066  -26.2893  -47.7036 H         1 UNK         0.0600 
    205 H205       -0.4068  -25.0387  -48.7926 H         1 UNK         0.3000 
    206 H206        0.2239  -25.8461  -51.4687 H         1 UNK         0.0600 
    207 H207       -0.2954  -23.5008  -50.8399 H         1 UNK         0.0600 
    208 H208       -1.4424  -24.0631  -52.0495 H         1 UNK         0.0600 
    209 H209       -1.9298  -23.9583  -50.3663 H         1 UNK         0.0600 
    210 H210       -2.3306  -26.7186  -49.2713 H         1 UNK         0.3000 
    211 H211       -4.1665  -27.9401  -49.2902 H         1 UNK         0.0600 
    212 H212       -3.3766  -29.0857  -52.0230 H         1 UNK         0.0600 
    213 H213       -4.5872  -29.7238  -50.9233 H         1 UNK         0.0600 
    214 H214       -2.8916  -29.7507  -50.4635 H         1 UNK         0.0600 
    215 H215       -4.3785  -25.4534  -49.6609 H         1 UNK         0.3000 
    216 H216       -5.6161  -23.7294  -50.1736 H         1 UNK         0.0600 
    217 H217       -7.7262  -23.8372  -51.4153 H         1 UNK         0.0600 
    218 H218       -7.6349  -25.2358  -50.3580 H         1 UNK         0.0600 
    219 H219       -7.3272  -25.4074  -52.0866 H         1 UNK         0.0600 
    220 H220       -5.9562  -22.1012  -51.8308 H         1 UNK         0.3000 
    221 H221       -5.2156  -20.7321  -53.3734 H         1 UNK         0.0600 
    222 H222       -4.7110  -23.1495  -55.1901 H         1 UNK         0.0600 
    223 H223       -6.2775  -22.3831  -54.9543 H         1 UNK         0.0600 
    224 H224       -4.9721  -21.4795  -55.6910 H         1 UNK         0.0600 
    225 H225       -3.0025  -21.5262  -55.3694 H         1 UNK         0.3000 
    226 H226       -0.8686  -21.0556  -55.6752 H         1 UNK         0.0600 
    227 H227       -0.4469  -23.0831  -54.2120 H         1 UNK         0.0600 
    228 H228        0.8587  -21.9081  -54.1893 H         1 UNK         0.0600 
    229 H229       -0.2510  -21.9981  -52.8331 H         1 UNK         0.0600 
    230 H230       -2.7487  -19.1037  -54.4303 H         1 UNK         0.3000 
    231 H231       -1.1753  -16.7744  -54.1953 H         1 UNK         0.0600 
    232 H232       -2.4163  -17.9259  -51.6101 H         1 UNK         0.0600 
    233 H233       -1.7913  -16.2936  -51.7757 H         1 UNK         0.0600 
    234 H234       -0.6944  -17.6528  -51.8718 H         1 UNK         0.0600 
    235 H235       -2.8051  -14.9469  -53.5914 H         1 UNK         0.3000 
    236 H236       -5.4585  -15.4974  -54.7813 H         1 UNK         0.0600 
    237 H237       -4.3448  -13.4660  -55.5187 H         1 UNK         0.0600 
    238 H238       -5.7209  -13.0075  -54.5282 H         1 UNK         0.0600 
    239 H239       -4.0931  -12.9231  -53.8669 H         1 UNK         0.0600 
    240 H240       -3.9705  -15.4449  -51.7079 H         1 UNK         0.3000 
    241 H241       -4.5907  -15.8257  -49.6670 H         1 UNK         0.0600 
    242 H242       -6.6510  -15.2793  -47.8641 H         1 UNK         0.3800 
    243 H243       -6.9444  -13.5682  -47.9166 H         1 UNK         0.3800 
    244 H244       -6.7456  -16.9821  -49.1113 H         1 UNK         0.0800 
    245 H245       -7.3855  -16.5751  -50.6706 H         1 UNK         0.0800 
    246 H246       -5.3154  -20.3562  -49.5800 H         1 UNK         0.0800 
    247 H247       -6.0797  -19.1691  -48.5590 H         1 UNK         0.0800 
@<TRIPOS>BOND
     1    1    2 1    
     2    1  127 1    
     3    1  128 1    
     4    1  129 1    
     5    2    3 2    
     6    2    4 am   BACKBONE|DICT|INTERRES
     7    4    5 1    
     8    4  130 1    
     9    5    6 1    
    10    5   65 1    
    11    5  131 1    
    12    6    7 1    
    13    6  132 1    
    14    6  133 1    
    15    7    8 1    
    16    8    9 1    
    17    8  134 1    
    18    8  135 1    
    19    9   10 ar   
    20    9   14 ar   
    21   10   11 ar   
    22   10  136 1    
    23   11   12 ar   
    24   11  126 1    
    25   12   13 ar   
    26   12  137 1    
    27   13   14 ar   
    28   13   15 1    
    29   14  138 1    
    30   15   16 1    
    31   15  139 1    
    32   15  140 1    
    33   16   17 1    
    34   17   18 1    
    35   17  141 1    
    36   17  142 1    
    37   18   19 1    
    38   18   67 1    
    39   18  143 1    
    40   19   20 am   BACKBONE|DICT|INTERRES
    41   19  144 1    
    42   20   21 2    
    43   20   22 1    
    44   22   23 1    
    45   22   24 1    
    46   22  145 1    
    47   23  146 1    
    48   23  147 1    
    49   23  148 1    
    50   24   25 am   BACKBONE|DICT|INTERRES
    51   24  149 1    
    52   25   26 2    
    53   25   27 1    
    54   27   28 1    
    55   27   29 1    
    56   27  150 1    
    57   28  151 1    
    58   28  152 1    
    59   28  153 1    
    60   29   30 am   BACKBONE|DICT|INTERRES
    61   29  154 1    
    62   30   31 2    
    63   30   32 1    
    64   32   33 1    
    65   32   34 1    
    66   32  155 1    
    67   33  156 1    
    68   33  157 1    
    69   33  158 1    
    70   34   35 am   BACKBONE|DICT|INTERRES
    71   34  159 1    
    72   35   36 2    
    73   35   37 1    
    74   37   38 1    
    75   37   39 1    
    76   37  160 1    
    77   38  161 1    
    78   38  162 1    
    79   38  163 1    
    80   39   40 am   BACKBONE|DICT|INTERRES
    81   39  164 1    
    82   40   41 2    
    83   40   42 1    
    84   42   43 1    
    85   42   44 1    
    86   42  165 1    
    87   43  166 1    
    88   43  167 1    
    89   43  168 1    
    90   44   45 am   BACKBONE|DICT|INTERRES
    91   44  169 1    
    92   45   46 2    
    93   45   47 1    
    94   47   48 1    
    95   47   49 1    
    96   47  170 1    
    97   48  171 1    
    98   48  172 1    
    99   48  173 1    
   100   49   50 am   BACKBONE|DICT|INTERRES
   101   49  174 1    
   102   50   51 2    
   103   50   52 1    
   104   52   53 1    
   105   52   54 1    
   106   52  175 1    
   107   53  176 1    
   108   53  177 1    
   109   53  178 1    
   110   54   55 am   BACKBONE|DICT|INTERRES
   111   54  179 1    
   112   55   56 2    
   113   55   57 1    
   114   57   58 1    
   115   57   59 1    
   116   57  180 1    
   117   58  181 1    
   118   58  182 1    
   119   58  183 1    
   120   59   60 am   BACKBONE|DICT|INTERRES
   121   59  184 1    
   122   60   61 2    
   123   60   62 1    
   124   62   63 1    
   125   62   64 1    
   126   62  185 1    
   127   63  186 1    
   128   63  187 1    
   129   63  188 1    
   130   64   65 am   BACKBONE|DICT|INTERRES
   131   64  189 1    
   132   65   66 2    
   133   67   68 2    
   134   67   69 am   BACKBONE|DICT|INTERRES
   135   69   70 1    
   136   69  190 1    
   137   70   71 1    
   138   70   72 1    
   139   70  191 1    
   140   71  192 1    
   141   71  193 1    
   142   71  194 1    
   143   72   73 2    
   144   72   74 am   BACKBONE|DICT|INTERRES
   145   74   75 1    
   146   74  195 1    
   147   75   76 1    
   148   75   77 1    
   149   75  196 1    
   150   76  197 1    
   151   76  198 1    
   152   76  199 1    
   153   77   78 2    
   154   77   79 am   BACKBONE|DICT|INTERRES
   155   79   80 1    
   156   79  200 1    
   157   80   81 1    
   158   80   82 1    
   159   80  201 1    
   160   81  202 1    
   161   81  203 1    
   162   81  204 1    
   163   82   83 2    
   164   82   84 am   BACKBONE|DICT|INTERRES
   165   84   85 1    
   166   84  205 1    
   167   85   86 1    
   168   85   87 1    
   169   85  206 1    
   170   86  207 1    
   171   86  208 1    
   172   86  209 1    
   173   87   88 2    
   174   87   89 am   BACKBONE|DICT|INTERRES
   175   89   90 1    
   176   89  210 1    
   177   90   91 1    
   178   90   92 1    
   179   90  211 1    
   180   91  212 1    
   181   91  213 1    
   182   91  214 1    
   183   92   93 2    
   184   92   94 am   BACKBONE|DICT|INTERRES
   185   94   95 1    
   186   94  215 1    
   187   95   96 1    
   188   95   97 1    
   189   95  216 1    
   190   96  217 1    
   191   96  218 1    
   192   96  219 1    
   193   97   98 2    
   194   97   99 am   BACKBONE|DICT|INTERRES
   195   99  100 1    
   196   99  220 1    
   197  100  101 1    
   198  100  102 1    
   199  100  221 1    
   200  101  222 1    
   201  101  223 1    
   202  101  224 1    
   203  102  103 2    
   204  102  104 am   BACKBONE|DICT|INTERRES
   205  104  105 1    
   206  104  225 1    
   207  105  106 1    
   208  105  107 1    
   209  105  226 1    
   210  106  227 1    
   211  106  228 1    
   212  106  229 1    
   213  107  108 2    
   214  107  109 am   BACKBONE|DICT|INTERRES
   215  109  110 1    
   216  109  230 1    
   217  110  111 1    
   218  110  112 1    
   219  110  231 1    
   220  111  232 1    
   221  111  233 1    
   222  111  234 1    
   223  112  113 2    
   224  112  114 am   BACKBONE|DICT|INTERRES
   225  114  115 1    
   226  114  235 1    
   227  115  116 1    
   228  115  117 1    
   229  115  236 1    
   230  116  237 1    
   231  116  238 1    
   232  116  239 1    
   233  117  118 2    
   234  117  119 am   BACKBONE|DICT|INTERRES
   235  119  120 1    
   236  119  240 1    
   237  120  121 1    
   238  120  124 1    
   239  120  241 1    
   240  121  122 am   BACKBONE|DICT|INTERRES
   241  121  123 2    
   242  122  242 1    
   243  122  243 1    
   244  124  125 1    
   245  124  244 1    
   246  124  245 1    
   247  125  126 1    
   248  126  246 1    
   249  126  247 1    
@<TRIPOS>SUBSTRUCTURE
     1 UNK         1 GROUP             0       ****    0 ROOT    
