@<TRIPOS>MOLECULE
3R540
247   249    1
SMALL
USER_CHARGES


@<TRIPOS>ATOM
      1 CA         -5.8095  -18.5006  -46.1910 C.3       0 UNK        -0.1800 
      2 C          -4.9695  -17.2365  -46.2999 C.2       0 UNK         0.5000 
      3 O          -5.0727  -16.3550  -45.4475 O.2       0 UNK        -0.5000 
      4 N          -4.1152  -17.1553  -47.3295 N.am      1 UNK        -0.5000 
      5 CA         -3.2215  -16.0255  -47.6313 C.3       1 UNK         0.1400 
      6 C6         -2.5393  -16.2014  -49.0154 C.3       23 UNK        -0.0398 
      7 S7         -1.1317  -17.3676  -49.0200 S.3       23 UNK        -0.2404 
      8 C8         -0.9707  -17.7718  -50.7810 C.3       23 UNK        -0.0205 
      9 C9          0.3202  -18.5306  -51.0254 C.ar      23 UNK        -0.0193 
     10 C10         1.4397  -17.8686  -51.5326 C.ar      23 UNK        -0.1150 
     11 C11         2.6418  -18.5559  -51.7280 C.ar      23 UNK        -0.0193 
     12 C12         2.7262  -19.9069  -51.3743 C.ar      23 UNK        -0.1150 
     13 C13         1.6154  -20.5771  -50.8512 C.ar      23 UNK        -0.0193 
     14 C14         0.4073  -19.8884  -50.7087 C.ar      23 UNK        -0.1150 
     15 C15         1.7264  -22.0398  -50.4381 C.3       23 UNK        -0.0205 
     16 S16         2.1340  -22.2234  -48.6662 S.3       23 UNK        -0.2404 
     17 C17         0.5071  -21.9806  -47.8771 C.3       23 UNK        -0.0398 
     18 CA          0.0638  -23.1973  -47.0316 C.3       11 UNK         0.1400 
     19 N           0.8428  -23.3483  -45.7972 N.am      11 UNK        -0.5000 
     20 C           0.8345  -24.4578  -45.0412 C.2       10 UNK         0.5000 
     21 O           0.1788  -25.4610  -45.3170 O.2       10 UNK        -0.5000 
     22 CA          1.6449  -24.4341  -43.7305 C.3       10 UNK         0.1400 
     23 CB          3.1100  -24.8081  -43.9987 C.3       10 UNK        -0.1800 
     24 N           1.5973  -23.1457  -43.0411 N.am      10 UNK        -0.5000 
     25 C           0.4833  -22.5199  -42.6358 C.2       9 UNK         0.5000 
     26 O          -0.6416  -23.0099  -42.7227 O.2       9 UNK        -0.5000 
     27 CA          0.6390  -21.0845  -42.0952 C.3       9 UNK         0.1400 
     28 CB          0.5589  -21.0770  -40.5619 C.3       9 UNK        -0.1800 
     29 N           1.8711  -20.4058  -42.5160 N.am      9 UNK        -0.5000 
     30 C           2.2310  -20.1652  -43.7841 C.2       8 UNK         0.5000 
     31 O           1.5745  -20.5305  -44.7642 O.2       8 UNK        -0.5000 
     32 CA          3.5892  -19.4673  -43.9795 C.3       8 UNK         0.1400 
     33 CB          4.7265  -20.4998  -43.9304 C.3       8 UNK        -0.1800 
     34 N           3.6453  -18.7705  -45.2612 N.am      8 UNK        -0.5000 
     35 C           2.9693  -17.6516  -45.5406 C.2       7 UNK         0.5000 
     36 O           2.3474  -16.9925  -44.7016 O.2       7 UNK        -0.5000 
     37 CA          2.9797  -17.2158  -47.0108 C.3       7 UNK         0.1400 
     38 CB          2.2787  -18.2592  -47.8962 C.3       7 UNK        -0.1800 
     39 N           2.2998  -15.9325  -47.1251 N.am      7 UNK        -0.5000 
     40 C           2.4852  -15.0208  -48.0850 C.2       6 UNK         0.5000 
     41 O           3.2529  -15.1746  -49.0356 O.2       6 UNK        -0.5000 
     42 CA          1.6900  -13.7053  -47.9595 C.3       6 UNK         0.1400 
     43 CB          0.5027  -13.7001  -48.9302 C.3       6 UNK        -0.1800 
     44 N           1.1942  -13.4583  -46.6018 N.am      6 UNK        -0.5000 
     45 C           1.9594  -13.0152  -45.5929 C.2       5 UNK         0.5000 
     46 O           3.1604  -12.7685  -45.7171 O.2       5 UNK        -0.5000 
     47 CA          1.2783  -12.8339  -44.2190 C.3       5 UNK         0.1400 
     48 CB          1.9928  -11.8005  -43.3233 C.3       5 UNK        -0.1800 
     49 N          -0.1570  -12.5463  -44.3055 N.am      5 UNK        -0.5000 
     50 C          -0.7559  -11.4804  -44.8623 C.2       4 UNK         0.5000 
     51 O          -0.1430  -10.5396  -45.3681 O.2       4 UNK        -0.5000 
     52 CA         -2.3000  -11.4655  -44.8748 C.3       4 UNK         0.1400 
     53 CB         -2.8362  -11.2899  -46.3062 C.3       4 UNK        -0.1800 
     54 N          -2.8627  -12.6962  -44.3158 N.am      4 UNK        -0.5000 
     55 C          -3.2689  -12.8602  -43.0489 C.2       3 UNK         0.5000 
     56 O          -3.3081  -11.9507  -42.2200 O.2       3 UNK        -0.5000 
     57 CA         -3.6665  -14.2899  -42.6248 C.3       3 UNK         0.1400 
     58 CB         -5.1894  -14.4699  -42.7047 C.3       3 UNK        -0.1800 
     59 N          -3.0106  -15.3286  -43.4265 N.am      3 UNK        -0.5000 
     60 C          -1.6933  -15.5884  -43.3943 C.2       2 UNK         0.5000 
     61 O          -0.9136  -15.0207  -42.6306 O.2       2 UNK        -0.5000 
     62 CA         -1.1309  -16.5860  -44.4263 C.3       2 UNK         0.1400 
     63 CB         -0.9607  -17.9792  -43.8042 C.3       2 UNK        -0.1800 
     64 N          -1.9474  -16.6994  -45.6327 N.am      2 UNK        -0.5000 
     65 C          -2.2090  -15.7101  -46.4994 C.2       1 UNK         0.5000 
     66 O          -1.7159  -14.5842  -46.4073 O.2       1 UNK        -0.5000 
     67 C          -1.4499  -23.1239  -46.7473 C.2       11 UNK         0.5000 
     68 O          -2.2374  -23.6390  -47.5425 O.2       11 UNK        -0.5000 
     69 N          -1.8352  -22.5011  -45.6255 N.am      12 UNK        -0.5000 
     70 CA         -3.2227  -22.4356  -45.1692 C.3       12 UNK         0.1400 
     71 CB         -3.3804  -21.3097  -44.1360 C.3       12 UNK        -0.1800 
     72 C          -3.6998  -23.7895  -44.6162 C.2       12 UNK         0.5000 
     73 O          -4.7993  -24.2258  -44.9552 O.2       12 UNK        -0.5000 
     74 N          -2.8468  -24.4511  -43.8210 N.am      13 UNK        -0.5000 
     75 CA         -3.0886  -25.7733  -43.2384 C.3       13 UNK         0.1400 
     76 CB         -1.9633  -26.1060  -42.2475 C.3       13 UNK        -0.1800 
     77 C          -3.2299  -26.8863  -44.2941 C.2       13 UNK         0.5000 
     78 O          -4.0969  -27.7494  -44.1544 O.2       13 UNK        -0.5000 
     79 N          -2.4011  -26.8285  -45.3458 N.am      14 UNK        -0.5000 
     80 CA         -2.4488  -27.7340  -46.4967 C.3       14 UNK         0.1400 
     81 CB         -1.1027  -27.6650  -47.2362 C.3       14 UNK        -0.1800 
     82 C          -3.6008  -27.4283  -47.4755 C.2       14 UNK         0.5000 
     83 O          -3.8568  -28.2402  -48.3654 O.2       14 UNK        -0.5000 
     84 N          -4.2440  -26.2600  -47.3211 N.am      15 UNK        -0.5000 
     85 CA         -5.2690  -25.6810  -48.1977 C.3       15 UNK         0.1400 
     86 CB         -6.5479  -26.5436  -48.2103 C.3       15 UNK        -0.1800 
     87 C          -4.7401  -25.3579  -49.6130 C.2       15 UNK         0.5000 
     88 O          -5.5092  -25.3404  -50.5753 O.2       15 UNK        -0.5000 
     89 N          -3.4321  -25.0848  -49.7069 N.am      16 UNK        -0.5000 
     90 CA         -2.7483  -24.6295  -50.9149 C.3       16 UNK         0.1400 
     91 CB         -1.2439  -24.9069  -50.7721 C.3       16 UNK        -0.1800 
     92 C          -3.0016  -23.1341  -51.1702 C.2       16 UNK         0.5000 
     93 O          -3.0536  -22.7111  -52.3252 O.2       16 UNK        -0.5000 
     94 N          -3.1958  -22.3658  -50.0891 N.am      17 UNK        -0.5000 
     95 CA         -3.5262  -20.9410  -50.0883 C.3       17 UNK         0.1400 
     96 CB         -3.1567  -20.3570  -48.7154 C.3       17 UNK        -0.1800 
     97 C          -5.0004  -20.6663  -50.4626 C.2       17 UNK         0.5000 
     98 O          -5.7089  -19.9743  -49.7298 O.2       17 UNK        -0.5000 
     99 N          -5.4410  -21.2195  -51.5986 N.am      18 UNK        -0.5000 
    100 CA        -6.7889  -21.0644  -52.1529 C.3       18 UNK         0.1400 
    101 CB        -7.0321  -22.1937  -53.1661 C.3       18 UNK        -0.1800 
    102 C         -7.0248  -19.6866  -52.8071 C.2       18 UNK         0.5000 
    103 O         -8.1748  -19.3119  -53.0400 O.2       18 UNK        -0.5000 
    104 N         -5.9382  -18.9629  -53.0889 N.am      19 UNK        -0.5000 
    105 CA        -5.8994  -17.6057  -53.6158 C.3       19 UNK         0.1400 
    106 CB        -5.8350  -17.6588  -55.1531 C.3       19 UNK        -0.1800 
    107 C         -4.6672  -16.9043  -53.0229 C.2       19 UNK         0.5000 
    108 O         -3.8694  -17.5458  -52.3354 O.2       19 UNK        -0.5000 
    109 N         -4.5215  -15.6035  -53.3034 N.am      20 UNK        -0.5000 
    110 CA        -3.3654  -14.8006  -52.8905 C.3       20 UNK         0.1400 
    111 CB        -3.7241  -13.3112  -53.0045 C.3       20 UNK        -0.1800 
    112 C         -2.0854  -15.1124  -53.6940 C.2       20 UNK         0.5000 
    113 O         -0.9872  -14.8404  -53.2082 O.2       20 UNK        -0.5000 
    114 N         -2.2453  -15.6645  -54.9043 N.am      21 UNK        -0.5000 
    115 CA        -1.1550  -16.1223  -55.7630 C.3       21 UNK         0.1400 
    116 CB        -1.6900  -16.2968  -57.1930 C.3       21 UNK        -0.1800 
    117 C         -0.5535  -17.4424  -55.2474 C.2       21 UNK         0.5000 
    118 O         -1.2891  -18.2953  -54.7448 O.2       21 UNK        -0.5000 
    119 N          0.7655  -17.5907  -55.4062 N.am      22 UNK        -0.5000 
    120 CA         1.5238  -18.7884  -55.0150 C.3       22 UNK         0.1400 
    121 C          1.2280  -20.0127  -55.9242 C.2       22 UNK         0.5000 
    122 N          1.2478  -21.2194  -55.3745 N.am      22 UNK        -0.7600 
    123 O          1.0275  -19.8839  -57.1303 O.2       22 UNK        -0.5000 
    124 C124        3.0515  -18.5168  -54.9535 C.3       23 UNK        -0.0398 
    125 S125        3.4994  -17.0706  -53.9284 S.3       23 UNK        -0.2404 
    126 C126        3.8506  -17.8357  -52.3096 C.3       23 UNK        -0.0205 
    127 H127       -5.6215  -19.1860  -47.0175 H         1 UNK         0.0600 
    128 H128       -6.8695  -18.2472  -46.1951 H         1 UNK         0.0600 
    129 H129       -5.5852  -19.0207  -45.2597 H         1 UNK         0.0600 
    130 H130       -4.0864  -17.9147  -47.9937 H         1 UNK         0.3000 
    131 H131       -3.8662  -15.1472  -47.7041 H         1 UNK         0.0600 
    132 H132       -3.2736  -16.5335  -49.7510 H         1 UNK         0.0800 
    133 H133       -2.1882  -15.2361  -49.3794 H         1 UNK         0.0800 
    134 H134       -1.8172  -18.3783  -51.0976 H         1 UNK         0.0800 
    135 H135       -0.9967  -16.8574  -51.3740 H         1 UNK         0.0800 
    136 H136        1.3763  -16.8178  -51.7797 H         1 UNK         0.1150 
    137 H137        3.6596  -20.4377  -51.4982 H         1 UNK         0.1150 
    138 H138       -0.4637  -20.3938  -50.3228 H         1 UNK         0.1150 
    139 H139        0.8029  -22.5711  -50.6708 H         1 UNK         0.0800 
    140 H140        2.5068  -22.5277  -51.0238 H         1 UNK         0.0800 
    141 H141       -0.2223  -21.8013  -48.6642 H         1 UNK         0.0800 
    142 H142        0.5363  -21.0707  -47.2749 H         1 UNK         0.0800 
    143 H143        0.2195  -24.0965  -47.6320 H         1 UNK         0.0600 
    144 H144        1.3630  -22.5350  -45.4874 H         1 UNK         0.3000 
    145 H145        1.2171  -25.1827  -43.0614 H         1 UNK         0.0600 
    146 H146        3.6757  -24.8805  -43.0697 H         1 UNK         0.0600 
    147 H147        3.1806  -25.7760  -44.4971 H         1 UNK         0.0600 
    148 H148        3.6032  -24.0733  -44.6367 H         1 UNK         0.0600 
    149 H149        2.4753  -22.6626  -42.9280 H         1 UNK         0.3000 
    150 H150       -0.2031  -20.5086  -42.4827 H         1 UNK         0.0600 
    151 H151        1.3952  -21.6143  -40.1129 H         1 UNK         0.0600 
    152 H152       -0.3604  -21.5516  -40.2157 H         1 UNK         0.0600 
    153 H153        0.5631  -20.0592  -40.1713 H         1 UNK         0.0600 
    154 H154        2.4784  -20.0928  -41.7722 H         1 UNK         0.3000 
    155 H155        3.7332  -18.7402  -43.1773 H         1 UNK         0.0600 
    156 H156        4.6184  -21.2564  -44.7091 H         1 UNK         0.0600 
    157 H157        4.7479  -21.0175  -42.9706 H         1 UNK         0.0600 
    158 H158        5.6980  -20.0224  -44.0599 H         1 UNK         0.0600 
    159 H159        4.0946  -19.2671  -46.0161 H         1 UNK         0.3000 
    160 H160        4.0191  -17.1026  -47.3256 H         1 UNK         0.0600 
    161 H161        1.2641  -18.4633  -47.5524 H         1 UNK         0.0600 
    162 H162        2.8181  -19.2064  -47.9066 H         1 UNK         0.0600 
    163 H163        2.2197  -17.9150  -48.9255 H         1 UNK         0.0600 
    164 H164        1.7031  -15.7093  -46.3400 H         1 UNK         0.3000 
    165 H165        2.3580  -12.8887  -48.2412 H         1 UNK         0.0600 
    166 H166       -0.0525  -12.7635  -48.8778 H         1 UNK         0.0600 
    167 H167        0.8347  -13.8302  -49.9612 H         1 UNK         0.0600 
    168 H168       -0.1824  -14.5126  -48.7023 H         1 UNK         0.0600 
    169 H169        0.2126  -13.6501  -46.4337 H         1 UNK         0.3000 
    170 H170        1.3591  -13.8023  -43.7232 H         1 UNK         0.0600 
    171 H171        3.0226  -12.0998  -43.1247 H         1 UNK         0.0600 
    172 H172        2.0237  -10.8140  -43.7864 H         1 UNK         0.0600 
    173 H173        1.4941  -11.7038  -42.3589 H         1 UNK         0.0600 
    174 H174       -0.7530  -13.2521  -43.8932 H         1 UNK         0.3000 
    175 H175       -2.6217  -10.6052  -44.2847 H         1 UNK         0.0600 
    176 H176       -2.5025  -10.3449  -46.7366 H         1 UNK         0.0600 
    177 H177       -2.4963  -12.0875  -46.9673 H         1 UNK         0.0600 
    178 H178       -3.9262  -11.2838  -46.3207 H         1 UNK         0.0600 
    179 H179       -2.8294  -13.5041  -44.9256 H         1 UNK         0.3000 
    180 H180       -3.3623  -14.4232  -41.5845 H         1 UNK         0.0600 
    181 H181       -5.5601  -14.3130  -43.7183 H         1 UNK         0.0600 
    182 H182       -5.7007  -13.7580  -42.0556 H         1 UNK         0.0600 
    183 H183       -5.4871  -15.4702  -42.3896 H         1 UNK         0.0600 
    184 H184       -3.5968  -15.8136  -44.0986 H         1 UNK         0.3000 
    185 H185       -0.1499  -16.2190  -44.7303 H         1 UNK         0.0600 
    186 H186       -0.2912  -17.9401  -42.9439 H         1 UNK         0.0600 
    187 H187       -1.9123  -18.3891  -43.4644 H         1 UNK         0.0600 
    188 H188       -0.5265  -18.6788  -44.5188 H         1 UNK         0.0600 
    189 H189       -2.3924  -17.5901  -45.7944 H         1 UNK         0.3000 
    190 H190       -1.1292  -22.1390  -45.0009 H         1 UNK         0.3000 
    191 H191       -3.8578  -22.1911  -46.0227 H         1 UNK         0.0600 
    192 H192       -3.1045  -20.3458  -44.5635 H         1 UNK         0.0600 
    193 H193       -4.4156  -21.2316  -43.8017 H         1 UNK         0.0600 
    194 H194       -2.7631  -21.4749  -43.2531 H         1 UNK         0.0600 
    195 H195       -1.9788  -23.9923  -43.5542 H         1 UNK         0.3000 
    196 H196       -4.0271  -25.7225  -42.6827 H         1 UNK         0.0600 
    197 H197       -2.1401  -27.0673  -41.7635 H         1 UNK         0.0600 
    198 H198       -1.8933  -25.3533  -41.4620 H         1 UNK         0.0600 
    199 H199       -0.9949  -26.1616  -42.7448 H         1 UNK         0.0600 
    200 H200       -1.6600  -26.1332  -45.3509 H         1 UNK         0.3000 
    201 H201       -2.5877  -28.7543  -46.1335 H         1 UNK         0.0600 
    202 H202       -1.0806  -28.3548  -48.0808 H         1 UNK         0.0600 
    203 H203       -0.2767  -27.9344  -46.5777 H         1 UNK         0.0600 
    204 H204       -0.9095  -26.6641  -47.6249 H         1 UNK         0.0600 
    205 H205       -3.9678  -25.6750  -46.5433 H         1 UNK         0.3000 
    206 H206       -5.5294  -24.7196  -47.7529 H         1 UNK         0.0600 
    207 H207       -6.8904  -26.7538  -47.1970 H         1 UNK         0.0600 
    208 H208       -7.3599  -26.0297  -48.7258 H         1 UNK         0.0600 
    209 H209       -6.3923  -27.4959  -48.7175 H         1 UNK         0.0600 
    210 H210       -2.8988  -25.0391  -48.8460 H         1 UNK         0.3000 
    211 H211       -3.1255  -25.1911  -51.7721 H         1 UNK         0.0600 
    212 H212       -0.8133  -24.3720  -49.9254 H         1 UNK         0.0600 
    213 H213       -0.7032  -24.5969  -51.6672 H         1 UNK         0.0600 
    214 H214       -1.0521  -25.9703  -50.6277 H         1 UNK         0.0600 
    215 H215       -3.1315  -22.8116  -49.1808 H         1 UNK         0.3000 
    216 H216       -2.9118  -20.4455  -50.8417 H         1 UNK         0.0600 
    217 H217       -3.3379  -19.2859  -48.7028 H         1 UNK         0.0600 
    218 H218       -2.1040  -20.5013  -48.4822 H         1 UNK         0.0600 
    219 H219       -3.7458  -20.8032  -47.9148 H         1 UNK         0.0600 
    220 H220       -4.7837  -21.7781  -52.1342 H         1 UNK         0.3000 
    221 H221       -7.5120  -21.1706  -51.3416 H         1 UNK         0.0600 
    222 H222       -6.3309  -22.1428  -54.0000 H         1 UNK         0.0600 
    223 H223       -6.9259  -23.1726  -52.6975 H         1 UNK         0.0600 
    224 H224       -8.0400  -22.1393  -53.5795 H         1 UNK         0.0600 
    225 H225       -5.0345  -19.3099  -52.7943 H         1 UNK         0.3000 
    226 H226       -6.7889  -17.0579  -53.2981 H         1 UNK         0.0600 
    227 H227       -5.8466  -16.6584  -55.5866 H         1 UNK         0.0600 
    228 H228       -4.9290  -18.1587  -55.4990 H         1 UNK         0.0600 
    229 H229       -6.6897  -18.1963  -55.5642 H         1 UNK         0.0600 
    230 H230       -5.2220  -15.1349  -53.8600 H         1 UNK         0.3000 
    231 H231       -3.1512  -15.0163  -51.8419 H         1 UNK         0.0600 
    232 H232       -3.9604  -13.0312  -54.0319 H         1 UNK         0.0600 
    233 H233       -2.8947  -12.6835  -52.6757 H         1 UNK         0.0600 
    234 H234       -4.5837  -13.0633  -52.3814 H         1 UNK         0.0600 
    235 H235       -3.1806  -15.8894  -55.2059 H         1 UNK         0.3000 
    236 H236       -0.3763  -15.3564  -55.7746 H         1 UNK         0.0600 
    237 H237       -2.0876  -15.3598  -57.5834 H         1 UNK         0.0600 
    238 H238       -0.8975  -16.6203  -57.8692 H         1 UNK         0.0600 
    239 H239       -2.4836  -17.0439  -57.2372 H         1 UNK         0.0600 
    240 H240        1.3003  -16.8546  -55.8425 H         1 UNK         0.3000 
    241 H241        1.1890  -19.0569  -54.0131 H         1 UNK         0.0600 
    242 H242        1.4132  -21.3487  -54.3886 H         1 UNK         0.3800 
    243 H243        1.0738  -22.0242  -55.9562 H         1 UNK         0.3800 
    244 H244        3.5798  -19.3937  -54.5751 H         1 UNK         0.0800 
    245 H245        3.4424  -18.3411  -55.9573 H         1 UNK         0.0800 
    246 H246        4.6987  -18.5142  -52.4132 H         1 UNK         0.0800 
    247 H247        4.1611  -17.0570  -51.6113 H         1 UNK         0.0800 
@<TRIPOS>BOND
     1    1    2 1    
     2    1  127 1    
     3    1  128 1    
     4    1  129 1    
     5    2    3 2    
     6    2    4 am   BACKBONE|DICT|INTERRES
     7    4    5 1    
     8    4  130 1    
     9    5    6 1    
    10    5   65 1    
    11    5  131 1    
    12    6    7 1    
    13    6  132 1    
    14    6  133 1    
    15    7    8 1    
    16    8    9 1    
    17    8  134 1    
    18    8  135 1    
    19    9   10 ar   
    20    9   14 ar   
    21   10   11 ar   
    22   10  136 1    
    23   11   12 ar   
    24   11  126 1    
    25   12   13 ar   
    26   12  137 1    
    27   13   14 ar   
    28   13   15 1    
    29   14  138 1    
    30   15   16 1    
    31   15  139 1    
    32   15  140 1    
    33   16   17 1    
    34   17   18 1    
    35   17  141 1    
    36   17  142 1    
    37   18   19 1    
    38   18   67 1    
    39   18  143 1    
    40   19   20 am   BACKBONE|DICT|INTERRES
    41   19  144 1    
    42   20   21 2    
    43   20   22 1    
    44   22   23 1    
    45   22   24 1    
    46   22  145 1    
    47   23  146 1    
    48   23  147 1    
    49   23  148 1    
    50   24   25 am   BACKBONE|DICT|INTERRES
    51   24  149 1    
    52   25   26 2    
    53   25   27 1    
    54   27   28 1    
    55   27   29 1    
    56   27  150 1    
    57   28  151 1    
    58   28  152 1    
    59   28  153 1    
    60   29   30 am   BACKBONE|DICT|INTERRES
    61   29  154 1    
    62   30   31 2    
    63   30   32 1    
    64   32   33 1    
    65   32   34 1    
    66   32  155 1    
    67   33  156 1    
    68   33  157 1    
    69   33  158 1    
    70   34   35 am   BACKBONE|DICT|INTERRES
    71   34  159 1    
    72   35   36 2    
    73   35   37 1    
    74   37   38 1    
    75   37   39 1    
    76   37  160 1    
    77   38  161 1    
    78   38  162 1    
    79   38  163 1    
    80   39   40 am   BACKBONE|DICT|INTERRES
    81   39  164 1    
    82   40   41 2    
    83   40   42 1    
    84   42   43 1    
    85   42   44 1    
    86   42  165 1    
    87   43  166 1    
    88   43  167 1    
    89   43  168 1    
    90   44   45 am   BACKBONE|DICT|INTERRES
    91   44  169 1    
    92   45   46 2    
    93   45   47 1    
    94   47   48 1    
    95   47   49 1    
    96   47  170 1    
    97   48  171 1    
    98   48  172 1    
    99   48  173 1    
   100   49   50 am   BACKBONE|DICT|INTERRES
   101   49  174 1    
   102   50   51 2    
   103   50   52 1    
   104   52   53 1    
   105   52   54 1    
   106   52  175 1    
   107   53  176 1    
   108   53  177 1    
   109   53  178 1    
   110   54   55 am   BACKBONE|DICT|INTERRES
   111   54  179 1    
   112   55   56 2    
   113   55   57 1    
   114   57   58 1    
   115   57   59 1    
   116   57  180 1    
   117   58  181 1    
   118   58  182 1    
   119   58  183 1    
   120   59   60 am   BACKBONE|DICT|INTERRES
   121   59  184 1    
   122   60   61 2    
   123   60   62 1    
   124   62   63 1    
   125   62   64 1    
   126   62  185 1    
   127   63  186 1    
   128   63  187 1    
   129   63  188 1    
   130   64   65 am   BACKBONE|DICT|INTERRES
   131   64  189 1    
   132   65   66 2    
   133   67   68 2    
   134   67   69 am   BACKBONE|DICT|INTERRES
   135   69   70 1    
   136   69  190 1    
   137   70   71 1    
   138   70   72 1    
   139   70  191 1    
   140   71  192 1    
   141   71  193 1    
   142   71  194 1    
   143   72   73 2    
   144   72   74 am   BACKBONE|DICT|INTERRES
   145   74   75 1    
   146   74  195 1    
   147   75   76 1    
   148   75   77 1    
   149   75  196 1    
   150   76  197 1    
   151   76  198 1    
   152   76  199 1    
   153   77   78 2    
   154   77   79 am   BACKBONE|DICT|INTERRES
   155   79   80 1    
   156   79  200 1    
   157   80   81 1    
   158   80   82 1    
   159   80  201 1    
   160   81  202 1    
   161   81  203 1    
   162   81  204 1    
   163   82   83 2    
   164   82   84 am   BACKBONE|DICT|INTERRES
   165   84   85 1    
   166   84  205 1    
   167   85   86 1    
   168   85   87 1    
   169   85  206 1    
   170   86  207 1    
   171   86  208 1    
   172   86  209 1    
   173   87   88 2    
   174   87   89 am   BACKBONE|DICT|INTERRES
   175   89   90 1    
   176   89  210 1    
   177   90   91 1    
   178   90   92 1    
   179   90  211 1    
   180   91  212 1    
   181   91  213 1    
   182   91  214 1    
   183   92   93 2    
   184   92   94 am   BACKBONE|DICT|INTERRES
   185   94   95 1    
   186   94  215 1    
   187   95   96 1    
   188   95   97 1    
   189   95  216 1    
   190   96  217 1    
   191   96  218 1    
   192   96  219 1    
   193   97   98 2    
   194   97   99 am   BACKBONE|DICT|INTERRES
   195   99  100 1    
   196   99  220 1    
   197  100  101 1    
   198  100  102 1    
   199  100  221 1    
   200  101  222 1    
   201  101  223 1    
   202  101  224 1    
   203  102  103 2    
   204  102  104 am   BACKBONE|DICT|INTERRES
   205  104  105 1    
   206  104  225 1    
   207  105  106 1    
   208  105  107 1    
   209  105  226 1    
   210  106  227 1    
   211  106  228 1    
   212  106  229 1    
   213  107  108 2    
   214  107  109 am   BACKBONE|DICT|INTERRES
   215  109  110 1    
   216  109  230 1    
   217  110  111 1    
   218  110  112 1    
   219  110  231 1    
   220  111  232 1    
   221  111  233 1    
   222  111  234 1    
   223  112  113 2    
   224  112  114 am   BACKBONE|DICT|INTERRES
   225  114  115 1    
   226  114  235 1    
   227  115  116 1    
   228  115  117 1    
   229  115  236 1    
   230  116  237 1    
   231  116  238 1    
   232  116  239 1    
   233  117  118 2    
   234  117  119 am   BACKBONE|DICT|INTERRES
   235  119  120 1    
   236  119  240 1    
   237  120  121 1    
   238  120  124 1    
   239  120  241 1    
   240  121  122 am   BACKBONE|DICT|INTERRES
   241  121  123 2    
   242  122  242 1    
   243  122  243 1    
   244  124  125 1    
   245  124  244 1    
   246  124  245 1    
   247  125  126 1    
   248  126  246 1    
   249  126  247 1    
@<TRIPOS>SUBSTRUCTURE
     1 UNK         1 GROUP             0       ****    0 ROOT    
