@<TRIPOS>MOLECULE
3R540
247   249    1
SMALL
USER_CHARGES


@<TRIPOS>ATOM
      1 CA          6.0633  -13.7720  -46.7044 C.3       0 UNK        -0.1800 
      2 C           4.7802  -13.2476  -46.0789 C.2       0 UNK         0.5000 
      3 O           4.7925  -12.8131  -44.9283 O.2       0 UNK        -0.5000 
      4 N           3.6756  -13.2654  -46.8359 N.am      1 UNK        -0.5000 
      5 CA          2.3353  -12.8469  -46.3975 C.3       1 UNK         0.1400 
      6 C6          1.2379  -13.2460  -47.4114 C.3       23 UNK        -0.0398 
      7 S7          1.5163  -12.6061  -49.1017 S.3       23 UNK        -0.2404 
      8 C8          1.8833  -14.1432  -50.0216 C.3       23 UNK        -0.0205 
      9 C9          0.7353  -15.1500  -50.1343 C.ar      23 UNK        -0.0193 
     10 C10        -0.5977  -14.8146  -49.8643 C.ar      23 UNK        -0.1150 
     11 C11        -1.6117  -15.7648  -49.9907 C.ar      23 UNK        -0.0193 
     12 C12        -1.2939  -17.0590  -50.4124 C.ar      23 UNK        -0.1150 
     13 C13         0.0296  -17.4160  -50.6965 C.ar      23 UNK        -0.0193 
     14 C14         1.0326  -16.4525  -50.5491 C.ar      23 UNK        -0.1150 
     15 C15         0.4141  -18.8078  -51.2070 C.3       23 UNK        -0.0205 
     16 S16        -0.6918  -20.1714  -50.7013 S.3       23 UNK        -0.2404 
     17 C17        -0.5315  -20.1057  -48.8899 C.3       23 UNK        -0.0398 
     18 CA         -0.6549  -21.4800  -48.1886 C.3       11 UNK         0.1400 
     19 N          -0.2293  -21.3831  -46.7894 N.am      11 UNK        -0.5000 
     20 C          -0.1096  -22.4093  -45.9361 C.2       10 UNK         0.5000 
     21 O          -0.2832  -23.5853  -46.2497 O.2       10 UNK        -0.5000 
     22 CA          0.2035  -22.0557  -44.4711 C.3       10 UNK         0.1400 
     23 CB          1.7087  -21.8237  -44.2749 C.3       10 UNK        -0.1800 
     24 N          -0.5470  -20.8874  -44.0056 N.am      10 UNK        -0.5000 
     25 C          -1.8831  -20.8371  -43.9004 C.2       9 UNK         0.5000 
     26 O          -2.6172  -21.7979  -44.1243 O.2       9 UNK        -0.5000 
     27 CA         -2.5117  -19.4777  -43.5420 C.3       9 UNK         0.1400 
     28 CB         -2.4359  -19.2164  -42.0312 C.3       9 UNK        -0.1800 
     29 N          -1.8949  -18.3687  -44.2701 N.am      9 UNK        -0.5000 
     30 C          -1.9390  -18.2173  -45.6019 C.2       8 UNK         0.5000 
     31 O          -2.5614  -18.9664  -46.3565 O.2       8 UNK        -0.5000 
     32 CA         -1.0952  -17.0724  -46.1915 C.3       8 UNK         0.1400 
     33 CB         -1.8619  -15.7421  -46.1538 C.3       8 UNK        -0.1800 
     34 N           0.1871  -16.9274  -45.4984 N.am      8 UNK        -0.5000 
     35 C           1.1894  -17.8143  -45.5817 C.2       7 UNK         0.5000 
     36 O           1.1504  -18.8195  -46.2900 O.2       7 UNK        -0.5000 
     37 CA          2.4196  -17.5637  -44.6893 C.3       7 UNK         0.1400 
     38 CB          3.3701  -16.5556  -45.3460 C.3       7 UNK        -0.1800 
     39 N           2.0565  -17.0920  -43.3519 N.am      7 UNK        -0.5000 
     40 C           1.4345  -17.8512  -42.4370 C.2       6 UNK         0.5000 
     41 O           1.1476  -19.0326  -42.6195 O.2       6 UNK        -0.5000 
     42 CA          1.0184  -17.1763  -41.1149 C.3       6 UNK         0.1400 
     43 CB          2.1344  -17.3147  -40.0692 C.3       6 UNK        -0.1800 
     44 N           0.6749  -15.7624  -41.2604 N.am      6 UNK        -0.5000 
     45 C          -0.2556  -15.2599  -42.0841 C.2       5 UNK         0.5000 
     46 O          -0.9999  -15.9588  -42.7723 O.2       5 UNK        -0.5000 
     47 CA         -0.3405  -13.7232  -42.1947 C.3       5 UNK         0.1400 
     48 CB         -1.6151  -13.2066  -41.5111 C.3       5 UNK        -0.1800 
     49 N           0.8196  -13.0106  -41.6435 N.am      5 UNK        -0.5000 
     50 C           2.0725  -13.0883  -42.1123 C.2       4 UNK         0.5000 
     51 O           2.4084  -13.8136  -43.0499 O.2       4 UNK        -0.5000 
     52 CA          3.1340  -12.2864  -41.3528 C.3       4 UNK         0.1400 
     53 CB          3.9517  -13.2095  -40.4315 C.3       4 UNK        -0.1800 
     54 N           4.0163  -11.6114  -42.2987 N.am      4 UNK        -0.5000 
     55 C           4.7055  -10.4961  -42.0232 C.2       3 UNK         0.5000 
     56 O           4.6804   -9.9308  -40.9288 O.2       3 UNK        -0.5000 
     57 CA          5.5492   -9.8925  -43.1570 C.3       3 UNK         0.1400 
     58 CB          6.8813  -10.6437  -43.3131 C.3       3 UNK        -0.1800 
     59 N           4.8215   -9.9047  -44.4246 N.am      3 UNK        -0.5000 
     60 C           4.0056   -8.9240  -44.8382 C.2       2 UNK         0.5000 
     61 O           3.8105   -7.8869  -44.2030 O.2       2 UNK        -0.5000 
     62 CA          3.2905   -9.1177  -46.1908 C.3       2 UNK         0.1400 
     63 CB          4.0600   -8.4027  -47.3120 C.3       2 UNK        -0.1800 
     64 N           3.1285  -10.5243  -46.5533 N.am      2 UNK        -0.5000 
     65 C           2.2433  -11.3591  -45.9922 C.2       1 UNK         0.5000 
     66 O           1.4028  -11.0060  -45.1641 O.2       1 UNK        -0.5000 
     67 C          -2.0746  -22.0809  -48.3180 C.2       11 UNK         0.5000 
     68 O          -2.2933  -22.9531  -49.1599 O.2       11 UNK        -0.5000 
     69 N          -2.9989  -21.6385  -47.4509 N.am      12 UNK        -0.5000 
     70 CA         -4.3567  -22.1737  -47.3462 C.3       12 UNK         0.1400 
     71 CB         -5.2075  -21.2802  -46.4300 C.3       12 UNK        -0.1800 
     72 C          -4.3686  -23.6328  -46.8560 C.2       12 UNK         0.5000 
     73 O          -5.0163  -24.4757  -47.4789 O.2       12 UNK        -0.5000 
     74 N          -3.6282  -23.9044  -45.7705 N.am      13 UNK        -0.5000 
     75 CA         -3.4902  -25.2216  -45.1438 C.3       13 UNK         0.1400 
     76 CB         -2.6689  -25.0955  -43.8526 C.3       13 UNK        -0.1800 
     77 C          -2.8771  -26.2846  -46.0724 C.2       13 UNK         0.5000 
     78 O          -3.2968  -27.4417  -46.0267 O.2       13 UNK        -0.5000 
     79 N          -1.9458  -25.8718  -46.9424 N.am      14 UNK        -0.5000 
     80 CA         -1.3418  -26.6727  -48.0101 C.3       14 UNK         0.1400 
     81 CB         -0.0166  -26.0124  -48.4316 C.3       14 UNK        -0.1800 
     82 C          -2.2979  -26.8898  -49.2064 C.2       14 UNK         0.5000 
     83 O          -1.9037  -26.6875  -50.3563 O.2       14 UNK        -0.5000 
     84 N          -3.5451  -27.2840  -48.9096 N.am      15 UNK        -0.5000 
     85 CA         -4.6476  -27.5833  -49.8287 C.3       15 UNK         0.1400 
     86 CB         -4.3837  -28.9258  -50.5421 C.3       15 UNK        -0.1800 
     87 C          -4.9506  -26.4394  -50.8182 C.2       15 UNK         0.5000 
     88 O          -5.1890  -26.7024  -51.9969 O.2       15 UNK        -0.5000 
     89 N          -4.8837  -25.1871  -50.3389 N.am      16 UNK        -0.5000 
     90 CA         -5.0162  -23.9455  -51.1146 C.3       16 UNK         0.1400 
     91 CB         -6.4780  -23.7575  -51.5727 C.3       16 UNK        -0.1800 
     92 C          -4.0048  -23.8442  -52.2795 C.2       16 UNK         0.5000 
     93 O          -4.3433  -23.3363  -53.3503 O.2       16 UNK        -0.5000 
     94 N          -2.7965  -24.3851  -52.0730 N.am      17 UNK        -0.5000 
     95 CA         -1.7170  -24.5454  -53.0530 C.3       17 UNK         0.1400 
     96 CB         -1.1884  -23.1752  -53.5237 C.3       17 UNK        -0.1800 
     97 C          -2.0788  -25.4816  -54.2303 C.2       17 UNK         0.5000 
     98 O          -1.4466  -25.3995  -55.2843 O.2       17 UNK        -0.5000 
     99 N          -3.0671  -26.3647  -54.0180 N.am      18 UNK        -0.5000 
    100 CA        -3.6019  -27.3709  -54.9372 C.3       18 UNK         0.1400 
    101 CB        -2.5476  -28.4689  -55.1927 C.3       18 UNK        -0.1800 
    102 C         -4.1657  -26.7641  -56.2461 C.2       18 UNK         0.5000 
    103 O         -3.5622  -26.9476  -57.3035 O.2       18 UNK        -0.5000 
    104 N         -5.2954  -26.0423  -56.2293 N.am      19 UNK        -0.5000 
    105 CA        -6.1702  -25.7024  -55.1095 C.3       19 UNK         0.1400 
    106 CB        -7.1117  -26.8791  -54.7729 C.3       19 UNK        -0.1800 
    107 C         -6.9591  -24.4525  -55.5299 C.2       19 UNK         0.5000 
    108 O         -8.0330  -24.5862  -56.1205 O.2       19 UNK        -0.5000 
    109 N         -6.3913  -23.2643  -55.2921 N.am      20 UNK        -0.5000 
    110 CA        -6.9614  -21.9856  -55.7325 C.3       20 UNK         0.1400 
    111 CB        -6.7182  -21.8014  -57.2449 C.3       20 UNK        -0.1800 
    112 C         -6.4476  -20.7540  -54.9620 C.2       20 UNK         0.5000 
    113 O         -7.0498  -19.6868  -55.0950 O.2       20 UNK        -0.5000 
    114 N         -5.3486  -20.8784  -54.2063 N.am      21 UNK        -0.5000 
    115 CA        -4.7208  -19.7678  -53.4917 C.3       21 UNK         0.1400 
    116 CB        -3.2531  -20.1172  -53.2081 C.3       21 UNK        -0.1800 
    117 C         -5.4536  -19.4146  -52.1855 C.2       21 UNK         0.5000 
    118 O         -6.1697  -20.2415  -51.6180 O.2       21 UNK        -0.5000 
    119 N         -5.2223  -18.1833  -51.7245 N.am      22 UNK        -0.5000 
    120 CA        -5.7659  -17.5939  -50.4912 C.3       22 UNK         0.1400 
    121 C         -5.2083  -18.1713  -49.1557 C.2       22 UNK         0.5000 
    122 N         -4.1763  -19.0046  -49.1575 N.am      22 UNK        -0.7600 
    123 O         -5.7195  -17.8398  -48.0903 O.2       22 UNK        -0.5000 
    124 C124       -5.6749  -16.0394  -50.5259 C.3       23 UNK        -0.0398 
    125 S125       -4.0852  -15.3844  -51.1577 S.3       23 UNK        -0.2404 
    126 C126       -3.0500  -15.3977  -49.6624 C.3       23 UNK        -0.0205 
    127 H127        5.9112  -14.0911  -47.7357 H         1 UNK         0.0600 
    128 H128        6.4336  -14.6242  -46.1348 H         1 UNK         0.0600 
    129 H129        6.8286  -12.9959  -46.6960 H         1 UNK         0.0600 
    130 H130        3.7345  -13.5990  -47.7866 H         1 UNK         0.3000 
    131 H131        2.1202  -13.4044  -45.4879 H         1 UNK         0.0600 
    132 H132        1.1657  -14.3340  -47.4444 H         1 UNK         0.0800 
    133 H133        0.2583  -12.9052  -47.0712 H         1 UNK         0.0800 
    134 H134        2.7447  -14.6271  -49.5593 H         1 UNK         0.0800 
    135 H135        2.1916  -13.8674  -51.0309 H         1 UNK         0.0800 
    136 H136       -0.8605  -13.8140  -49.5556 H         1 UNK         0.1150 
    137 H137       -2.0887  -17.7790  -50.5311 H         1 UNK         0.1150 
    138 H138        2.0569  -16.7148  -50.7752 H         1 UNK         0.1150 
    139 H139        0.4373  -18.7751  -52.2968 H         1 UNK         0.0800 
    140 H140        1.4273  -19.0548  -50.8860 H         1 UNK         0.0800 
    141 H141       -1.2667  -19.3993  -48.5087 H         1 UNK         0.0800 
    142 H142        0.4437  -19.6742  -48.6628 H         1 UNK         0.0800 
    143 H143        0.0346  -22.1713  -48.6778 H         1 UNK         0.0600 
    144 H144       -0.0035  -20.4523  -46.4539 H         1 UNK         0.3000 
    145 H145       -0.0886  -22.9066  -43.8532 H         1 UNK         0.0600 
    146 H146        1.9474  -21.6584  -43.2242 H         1 UNK         0.0600 
    147 H147        2.2837  -22.6892  -44.6064 H         1 UNK         0.0600 
    148 H148        2.0615  -20.9594  -44.8376 H         1 UNK         0.0600 
    149 H149        0.0006  -20.0769  -43.7303 H         1 UNK         0.3000 
    150 H150       -3.5654  -19.5127  -43.8266 H         1 UNK         0.0600 
    151 H151       -2.9809  -19.9823  -41.4782 H         1 UNK         0.0600 
    152 H152       -2.8744  -18.2522  -41.7730 H         1 UNK         0.0600 
    153 H153       -1.4079  -19.2255  -41.6716 H         1 UNK         0.0600 
    154 H154       -1.4038  -17.6711  -43.7202 H         1 UNK         0.3000 
    155 H155       -0.8943  -17.3123  -47.2379 H         1 UNK         0.0600 
    156 H156       -2.8399  -15.8435  -46.6250 H         1 UNK         0.0600 
    157 H157       -1.3222  -14.9620  -46.6901 H         1 UNK         0.0600 
    158 H158       -2.0303  -15.3959  -45.1344 H         1 UNK         0.0600 
    159 H159        0.2626  -16.1696  -44.8360 H         1 UNK         0.3000 
    160 H160        2.9525  -18.5112  -44.5841 H         1 UNK         0.0600 
    161 H161        2.8972  -15.5810  -45.4456 H         1 UNK         0.0600 
    162 H162        3.6662  -16.8833  -46.3433 H         1 UNK         0.0600 
    163 H163        4.2797  -16.4269  -44.7592 H         1 UNK         0.0600 
    164 H164        2.2489  -16.1208  -43.1380 H         1 UNK         0.3000 
    165 H165        0.1328  -17.6926  -40.7415 H         1 UNK         0.0600 
    166 H166        1.8210  -16.9209  -39.1022 H         1 UNK         0.0600 
    167 H167        2.4027  -18.3616  -39.9205 H         1 UNK         0.0600 
    168 H168        3.0379  -16.7836  -40.3721 H         1 UNK         0.0600 
    169 H169        1.2354  -15.1084  -40.7360 H         1 UNK         0.3000 
    170 H170       -0.4018  -13.4835  -43.2584 H         1 UNK         0.0600 
    171 H171       -1.7359  -12.1334  -41.6601 H         1 UNK         0.0600 
    172 H172       -2.5029  -13.6908  -41.9203 H         1 UNK         0.0600 
    173 H173       -1.6018  -13.3988  -40.4375 H         1 UNK         0.0600 
    174 H174        0.6330  -12.4100  -40.8531 H         1 UNK         0.3000 
    175 H175        2.6252  -11.5367  -40.7428 H         1 UNK         0.0600 
    176 H176        4.4988  -13.9611  -41.0024 H         1 UNK         0.0600 
    177 H177        4.6755  -12.6445  -39.8441 H         1 UNK         0.0600 
    178 H178        3.3052  -13.7359  -39.7283 H         1 UNK         0.0600 
    179 H179        4.0932  -12.0448  -43.2162 H         1 UNK         0.3000 
    180 H180        5.7860   -8.8612  -42.8861 H         1 UNK         0.0600 
    181 H181        6.7332  -11.6973  -43.5498 H         1 UNK         0.0600 
    182 H182        7.4623  -10.5965  -42.3913 H         1 UNK         0.0600 
    183 H183        7.4902  -10.2052  -44.1038 H         1 UNK         0.0600 
    184 H184        4.8719  -10.7644  -44.9580 H         1 UNK         0.3000 
    185 H185        2.3011   -8.6621  -46.1117 H         1 UNK         0.0600 
    186 H186        3.5330   -8.4797  -48.2633 H         1 UNK         0.0600 
    187 H187        4.1756   -7.3408  -47.0907 H         1 UNK         0.0600 
    188 H188        5.0586   -8.8208  -47.4455 H         1 UNK         0.0600 
    189 H189        3.7734  -10.8991  -47.2336 H         1 UNK         0.3000 
    190 H190       -2.7435  -20.9070  -46.7954 H         1 UNK         0.3000 
    191 H191       -4.8043  -22.1465  -48.3406 H         1 UNK         0.0600 
    192 H192       -6.2366  -21.6385  -46.3871 H         1 UNK         0.0600 
    193 H193       -4.8276  -21.2589  -45.4094 H         1 UNK         0.0600 
    194 H194       -5.2386  -20.2533  -46.7910 H         1 UNK         0.0600 
    195 H195       -3.1547  -23.1348  -45.3024 H         1 UNK         0.3000 
    196 H196       -4.4929  -25.5604  -44.8761 H         1 UNK         0.0600 
    197 H197       -2.5862  -26.0578  -43.3460 H         1 UNK         0.0600 
    198 H198       -3.1342  -24.3995  -43.1544 H         1 UNK         0.0600 
    199 H199       -1.6576  -24.7429  -44.0545 H         1 UNK         0.0600 
    200 H200       -1.6235  -24.9111  -46.8740 H         1 UNK         0.3000 
    201 H201       -1.1070  -27.6605  -47.6090 H         1 UNK         0.0600 
    202 H202        0.6610  -25.9126  -47.5836 H         1 UNK         0.0600 
    203 H203       -0.1811  -25.0169  -48.8467 H         1 UNK         0.0600 
    204 H204        0.4983  -26.6060  -49.1880 H         1 UNK         0.0600 
    205 H205       -3.7523  -27.4076  -47.9233 H         1 UNK         0.3000 
    206 H206       -5.5411  -27.7001  -49.2140 H         1 UNK         0.0600 
    207 H207       -4.1961  -29.7240  -49.8240 H         1 UNK         0.0600 
    208 H208       -5.2426  -29.2274  -51.1429 H         1 UNK         0.0600 
    209 H209       -3.5224  -28.8650  -51.2086 H         1 UNK         0.0600 
    210 H210       -4.7038  -25.0641  -49.3463 H         1 UNK         0.3000 
    211 H211       -4.7731  -23.1245  -50.4411 H         1 UNK         0.0600 
    212 H212       -6.8013  -24.5511  -52.2457 H         1 UNK         0.0600 
    213 H213       -6.6112  -22.8124  -52.0987 H         1 UNK         0.0600 
    214 H214       -7.1557  -23.7475  -50.7193 H         1 UNK         0.0600 
    215 H215       -2.6201  -24.8201  -51.1741 H         1 UNK         0.3000 
    216 H216       -0.9069  -25.0408  -52.5163 H         1 UNK         0.0600 
    217 H217       -0.2582  -23.2861  -54.0815 H         1 UNK         0.0600 
    218 H218       -1.9000  -22.6718  -54.1777 H         1 UNK         0.0600 
    219 H219       -0.9825  -22.5191  -52.6783 H         1 UNK         0.0600 
    220 H220       -3.5491  -26.3221  -53.1262 H         1 UNK         0.3000 
    221 H221       -4.4221  -27.8571  -54.4151 H         1 UNK         0.0600 
    222 H222       -1.6647  -28.0808  -55.7014 H         1 UNK         0.0600 
    223 H223       -2.2208  -28.9238  -54.2575 H         1 UNK         0.0600 
    224 H224       -2.9588  -29.2652  -55.8141 H         1 UNK         0.0600 
    225 H225       -5.6043  -25.6477  -57.1067 H         1 UNK         0.3000 
    226 H226       -5.5814  -25.4533  -54.2306 H         1 UNK         0.0600 
    227 H227       -6.5826  -27.7364  -54.3634 H         1 UNK         0.0600 
    228 H228       -7.8448  -26.5802  -54.0226 H         1 UNK         0.0600 
    229 H229       -7.6621  -27.2198  -55.6507 H         1 UNK         0.0600 
    230 H230       -5.5239  -23.2349  -54.7625 H         1 UNK         0.3000 
    231 H231       -8.0392  -22.0140  -55.5581 H         1 UNK         0.0600 
    232 H232       -5.6537  -21.8196  -57.4809 H         1 UNK         0.0600 
    233 H233       -7.1165  -20.8488  -57.5968 H         1 UNK         0.0600 
    234 H234       -7.2038  -22.5828  -57.8290 H         1 UNK         0.0600 
    235 H235       -4.9343  -21.7911  -54.0428 H         1 UNK         0.3000 
    236 H236       -4.7360  -18.8892  -54.1407 H         1 UNK         0.0600 
    237 H237       -2.7258  -20.3812  -54.1244 H         1 UNK         0.0600 
    238 H238       -2.7274  -19.2679  -52.7707 H         1 UNK         0.0600 
    239 H239       -3.1627  -20.9522  -52.5130 H         1 UNK         0.0600 
    240 H240       -4.6026  -17.5741  -52.2399 H         1 UNK         0.3000 
    241 H241       -6.8279  -17.8462  -50.4720 H         1 UNK         0.0600 
    242 H242       -3.7665  -19.3182  -50.0204 H         1 UNK         0.3800 
    243 H243       -3.8149  -19.3171  -48.2682 H         1 UNK         0.3800 
    244 H244       -5.8977  -15.5935  -49.5546 H         1 UNK         0.0800 
    245 H245       -6.4514  -15.6635  -51.1932 H         1 UNK         0.0800 
    246 H246       -3.4271  -16.1107  -48.9325 H         1 UNK         0.0800 
    247 H247       -3.1073  -14.4188  -49.1843 H         1 UNK         0.0800 
@<TRIPOS>BOND
     1    1    2 1    
     2    1  127 1    
     3    1  128 1    
     4    1  129 1    
     5    2    3 2    
     6    2    4 am   BACKBONE|DICT|INTERRES
     7    4    5 1    
     8    4  130 1    
     9    5    6 1    
    10    5   65 1    
    11    5  131 1    
    12    6    7 1    
    13    6  132 1    
    14    6  133 1    
    15    7    8 1    
    16    8    9 1    
    17    8  134 1    
    18    8  135 1    
    19    9   10 ar   
    20    9   14 ar   
    21   10   11 ar   
    22   10  136 1    
    23   11   12 ar   
    24   11  126 1    
    25   12   13 ar   
    26   12  137 1    
    27   13   14 ar   
    28   13   15 1    
    29   14  138 1    
    30   15   16 1    
    31   15  139 1    
    32   15  140 1    
    33   16   17 1    
    34   17   18 1    
    35   17  141 1    
    36   17  142 1    
    37   18   19 1    
    38   18   67 1    
    39   18  143 1    
    40   19   20 am   BACKBONE|DICT|INTERRES
    41   19  144 1    
    42   20   21 2    
    43   20   22 1    
    44   22   23 1    
    45   22   24 1    
    46   22  145 1    
    47   23  146 1    
    48   23  147 1    
    49   23  148 1    
    50   24   25 am   BACKBONE|DICT|INTERRES
    51   24  149 1    
    52   25   26 2    
    53   25   27 1    
    54   27   28 1    
    55   27   29 1    
    56   27  150 1    
    57   28  151 1    
    58   28  152 1    
    59   28  153 1    
    60   29   30 am   BACKBONE|DICT|INTERRES
    61   29  154 1    
    62   30   31 2    
    63   30   32 1    
    64   32   33 1    
    65   32   34 1    
    66   32  155 1    
    67   33  156 1    
    68   33  157 1    
    69   33  158 1    
    70   34   35 am   BACKBONE|DICT|INTERRES
    71   34  159 1    
    72   35   36 2    
    73   35   37 1    
    74   37   38 1    
    75   37   39 1    
    76   37  160 1    
    77   38  161 1    
    78   38  162 1    
    79   38  163 1    
    80   39   40 am   BACKBONE|DICT|INTERRES
    81   39  164 1    
    82   40   41 2    
    83   40   42 1    
    84   42   43 1    
    85   42   44 1    
    86   42  165 1    
    87   43  166 1    
    88   43  167 1    
    89   43  168 1    
    90   44   45 am   BACKBONE|DICT|INTERRES
    91   44  169 1    
    92   45   46 2    
    93   45   47 1    
    94   47   48 1    
    95   47   49 1    
    96   47  170 1    
    97   48  171 1    
    98   48  172 1    
    99   48  173 1    
   100   49   50 am   BACKBONE|DICT|INTERRES
   101   49  174 1    
   102   50   51 2    
   103   50   52 1    
   104   52   53 1    
   105   52   54 1    
   106   52  175 1    
   107   53  176 1    
   108   53  177 1    
   109   53  178 1    
   110   54   55 am   BACKBONE|DICT|INTERRES
   111   54  179 1    
   112   55   56 2    
   113   55   57 1    
   114   57   58 1    
   115   57   59 1    
   116   57  180 1    
   117   58  181 1    
   118   58  182 1    
   119   58  183 1    
   120   59   60 am   BACKBONE|DICT|INTERRES
   121   59  184 1    
   122   60   61 2    
   123   60   62 1    
   124   62   63 1    
   125   62   64 1    
   126   62  185 1    
   127   63  186 1    
   128   63  187 1    
   129   63  188 1    
   130   64   65 am   BACKBONE|DICT|INTERRES
   131   64  189 1    
   132   65   66 2    
   133   67   68 2    
   134   67   69 am   BACKBONE|DICT|INTERRES
   135   69   70 1    
   136   69  190 1    
   137   70   71 1    
   138   70   72 1    
   139   70  191 1    
   140   71  192 1    
   141   71  193 1    
   142   71  194 1    
   143   72   73 2    
   144   72   74 am   BACKBONE|DICT|INTERRES
   145   74   75 1    
   146   74  195 1    
   147   75   76 1    
   148   75   77 1    
   149   75  196 1    
   150   76  197 1    
   151   76  198 1    
   152   76  199 1    
   153   77   78 2    
   154   77   79 am   BACKBONE|DICT|INTERRES
   155   79   80 1    
   156   79  200 1    
   157   80   81 1    
   158   80   82 1    
   159   80  201 1    
   160   81  202 1    
   161   81  203 1    
   162   81  204 1    
   163   82   83 2    
   164   82   84 am   BACKBONE|DICT|INTERRES
   165   84   85 1    
   166   84  205 1    
   167   85   86 1    
   168   85   87 1    
   169   85  206 1    
   170   86  207 1    
   171   86  208 1    
   172   86  209 1    
   173   87   88 2    
   174   87   89 am   BACKBONE|DICT|INTERRES
   175   89   90 1    
   176   89  210 1    
   177   90   91 1    
   178   90   92 1    
   179   90  211 1    
   180   91  212 1    
   181   91  213 1    
   182   91  214 1    
   183   92   93 2    
   184   92   94 am   BACKBONE|DICT|INTERRES
   185   94   95 1    
   186   94  215 1    
   187   95   96 1    
   188   95   97 1    
   189   95  216 1    
   190   96  217 1    
   191   96  218 1    
   192   96  219 1    
   193   97   98 2    
   194   97   99 am   BACKBONE|DICT|INTERRES
   195   99  100 1    
   196   99  220 1    
   197  100  101 1    
   198  100  102 1    
   199  100  221 1    
   200  101  222 1    
   201  101  223 1    
   202  101  224 1    
   203  102  103 2    
   204  102  104 am   BACKBONE|DICT|INTERRES
   205  104  105 1    
   206  104  225 1    
   207  105  106 1    
   208  105  107 1    
   209  105  226 1    
   210  106  227 1    
   211  106  228 1    
   212  106  229 1    
   213  107  108 2    
   214  107  109 am   BACKBONE|DICT|INTERRES
   215  109  110 1    
   216  109  230 1    
   217  110  111 1    
   218  110  112 1    
   219  110  231 1    
   220  111  232 1    
   221  111  233 1    
   222  111  234 1    
   223  112  113 2    
   224  112  114 am   BACKBONE|DICT|INTERRES
   225  114  115 1    
   226  114  235 1    
   227  115  116 1    
   228  115  117 1    
   229  115  236 1    
   230  116  237 1    
   231  116  238 1    
   232  116  239 1    
   233  117  118 2    
   234  117  119 am   BACKBONE|DICT|INTERRES
   235  119  120 1    
   236  119  240 1    
   237  120  121 1    
   238  120  124 1    
   239  120  241 1    
   240  121  122 am   BACKBONE|DICT|INTERRES
   241  121  123 2    
   242  122  242 1    
   243  122  243 1    
   244  124  125 1    
   245  124  244 1    
   246  124  245 1    
   247  125  126 1    
   248  126  246 1    
   249  126  247 1    
@<TRIPOS>SUBSTRUCTURE
     1 UNK         1 GROUP             0       ****    0 ROOT    
