@<TRIPOS>MOLECULE
3R540
247   249    1
SMALL
USER_CHARGES


@<TRIPOS>ATOM
      1 CA         -2.1440  -11.2431  -50.8474 C.3       0 UNK        -0.1800 
      2 C          -0.8229  -11.5506  -50.1563 C.2       0 UNK         0.5000 
      3 O          -0.3015  -10.7057  -49.4280 O.2       0 UNK        -0.5000 
      4 N          -0.2773  -12.7510  -50.3876 N.am      1 UNK        -0.5000 
      5 CA          0.9457  -13.2514  -49.7565 C.3       1 UNK         0.1400 
      6 C6          1.5126  -14.4668  -50.5271 C.3       23 UNK        -0.0398 
      7 S7          3.2540  -14.8188  -50.1123 S.3       23 UNK        -0.2404 
      8 C8          3.7217  -15.9194  -51.4868 C.3       23 UNK        -0.0205 
      9 C9          2.8844  -17.1899  -51.5044 C.ar      23 UNK        -0.0193 
     10 C10         1.8590  -17.3500  -52.4407 C.ar      23 UNK        -0.1150 
     11 C11         1.0693  -18.5042  -52.4438 C.ar      23 UNK        -0.0193 
     12 C12         1.3166  -19.5060  -51.4979 C.ar      23 UNK        -0.1150 
     13 C13         2.3459  -19.3593  -50.5603 C.ar      23 UNK        -0.0193 
     14 C14         3.1286  -18.2021  -50.5743 C.ar      23 UNK        -0.1150 
     15 C15         2.6339  -20.4504  -49.5387 C.3       23 UNK        -0.0205 
     16 S16         2.1943  -19.9529  -47.8410 S.3       23 UNK        -0.2404 
     17 C17         0.3720  -19.9604  -47.9059 C.3       23 UNK        -0.0398 
     18 CA         -0.2234  -21.2809  -47.3654 C.3       11 UNK         0.1400 
     19 N          -0.0450  -21.4363  -45.9196 N.am      11 UNK        -0.5000 
     20 C          -0.2877  -22.5692  -45.2467 C.2       10 UNK         0.5000 
     21 O          -0.6645  -23.6114  -45.7809 O.2       10 UNK        -0.5000 
     22 CA         -0.1384  -22.5223  -43.7171 C.3       10 UNK         0.1400 
     23 CB          1.3408  -22.5644  -43.3066 C.3       10 UNK        -0.1800 
     24 N          -0.7925  -21.3547  -43.1262 N.am      10 UNK        -0.5000 
     25 C          -2.1109  -21.1161  -43.1853 C.2       9 UNK         0.5000 
     26 O          -2.9201  -21.8773  -43.7170 O.2       9 UNK        -0.5000 
     27 CA         -2.6060  -19.7863  -42.5877 C.3       9 UNK         0.1400 
     28 CB         -2.7084  -19.8781  -41.0581 C.3       9 UNK        -0.1800 
     29 N          -1.7646  -18.6476  -42.9574 N.am      9 UNK        -0.5000 
     30 C          -1.5779  -18.2153  -44.2135 C.2       8 UNK         0.5000 
     31 O          -2.1205  -18.7123  -45.1993 O.2       8 UNK        -0.5000 
     32 CA         -0.5683  -17.0714  -44.4081 C.3       8 UNK         0.1400 
     33 CB         -1.1815  -15.7263  -43.9906 C.3       8 UNK        -0.1800 
     34 N           0.6741  -17.2971  -43.6702 N.am      8 UNK        -0.5000 
     35 C           1.4874  -18.3488  -43.8441 C.2       7 UNK         0.5000 
     36 O           1.2978  -19.2315  -44.6783 O.2       7 UNK        -0.5000 
     37 CA          2.6778  -18.4676  -42.8792 C.3       7 UNK         0.1400 
     38 CB          3.8251  -17.5342  -43.2960 C.3       7 UNK        -0.1800 
     39 N           2.2832  -18.1935  -41.4972 N.am      7 UNK        -0.5000 
     40 C           1.4681  -18.9769  -40.7753 C.2       6 UNK         0.5000 
     41 O           0.9918  -20.0341  -41.1871 O.2       6 UNK        -0.5000 
     42 CA          1.0914  -18.4733  -39.3708 C.3       6 UNK         0.1400 
     43 CB          2.1786  -18.8451  -38.3516 C.3       6 UNK        -0.1800 
     44 N           0.8685  -17.0276  -39.3381 N.am      6 UNK        -0.5000 
     45 C          -0.1497  -16.4046  -39.9484 C.2       5 UNK         0.5000 
     46 O          -1.0332  -16.9885  -40.5763 O.2       5 UNK        -0.5000 
     47 CA         -0.1400  -14.8649  -39.8913 C.3       5 UNK         0.1400 
     48 CB         -0.7553  -14.3655  -38.5757 C.3       5 UNK        -0.1800 
     49 N           1.2040  -14.2970  -40.0521 N.am      5 UNK        -0.5000 
     50 C           1.9424  -14.4360  -41.1596 C.2       4 UNK         0.5000 
     51 O           1.5612  -15.0575  -42.1565 O.2       4 UNK        -0.5000 
     52 CA          3.3484  -13.8205  -41.1516 C.3       4 UNK         0.1400 
     53 CB          4.3327  -14.6988  -40.3583 C.3       4 UNK        -0.1800 
     54 N           3.7672  -13.7273  -42.5418 N.am      4 UNK        -0.5000 
     55 C           4.7240  -12.9562  -43.0638 C.2       3 UNK         0.5000 
     56 O           5.4790  -12.2471  -42.3977 O.2       3 UNK        -0.5000 
     57 CA          4.8345  -12.9694  -44.6041 C.3       3 UNK         0.1400 
     58 CB          5.8934  -13.9870  -45.0557 C.3       3 UNK        -0.1800 
     59 N           3.5624  -13.2784  -45.2716 N.am      3 UNK        -0.5000 
     60 C           2.4803  -12.4885  -45.2440 C.2       2 UNK         0.5000 
     61 O           2.4685  -11.3641  -44.7406 O.2       2 UNK        -0.5000 
     62 CA          1.2211  -13.0449  -45.9205 C.3       2 UNK         0.1400 
     63 CB         -0.0684  -12.3440  -45.4435 C.3       2 UNK        -0.1800 
     64 N           1.3729  -12.9086  -47.3641 N.am      2 UNK        -0.5000 
     65 C           0.6674  -13.5858  -48.2757 C.2       1 UNK         0.5000 
     66 O          -0.1836  -14.4334  -47.9954 O.2       1 UNK        -0.5000 
     67 C          -1.6981  -21.4324  -47.7866 C.2       11 UNK         0.5000 
     68 O          -1.9680  -22.0630  -48.8090 O.2       11 UNK        -0.5000 
     69 N          -2.6343  -20.8842  -47.0004 N.am      12 UNK        -0.5000 
     70 CA         -4.0725  -21.0261  -47.2273 C.3       12 UNK         0.1400 
     71 CB         -4.8525  -20.1462  -46.2397 C.3       12 UNK        -0.1800 
     72 C          -4.5450  -22.4879  -47.1543 C.2       12 UNK         0.5000 
     73 O          -5.3091  -22.9169  -48.0194 O.2       12 UNK        -0.5000 
     74 N          -4.0642  -23.2157  -46.1389 N.am      13 UNK        -0.5000 
     75 CA         -4.4097  -24.6090  -45.8819 C.3       13 UNK         0.1400 
     76 CB         -4.1009  -24.9431  -44.4130 C.3       13 UNK        -0.1800 
     77 C          -3.7022  -25.5943  -46.8289 C.2       13 UNK         0.5000 
     78 O          -4.3759  -26.3737  -47.5035 O.2       13 UNK        -0.5000 
     79 N          -2.3628  -25.5813  -46.8277 N.am      14 UNK        -0.5000 
     80 CA         -1.5405  -26.6219  -47.4460 C.3       14 UNK         0.1400 
     81 CB         -0.2387  -26.7891  -46.6458 C.3       14 UNK        -0.1800 
     82 C          -1.2291  -26.3416  -48.9220 C.2       14 UNK         0.5000 
     83 O          -1.2868  -27.2663  -49.7336 O.2       14 UNK        -0.5000 
     84 N          -0.8979  -25.0847  -49.2484 N.am      15 UNK        -0.5000 
     85 CA         -0.5351  -24.6730  -50.6094 C.3       15 UNK         0.1400 
     86 CB          0.4953  -23.5342  -50.5529 C.3       15 UNK        -0.1800 
     87 C          -1.7550  -24.2693  -51.4564 C.2       15 UNK         0.5000 
     88 O          -1.5978  -24.0658  -52.6586 O.2       15 UNK        -0.5000 
     89 N          -2.9334  -24.1625  -50.8241 N.am      16 UNK        -0.5000 
     90 CA         -4.2222  -23.7699  -51.3985 C.3       16 UNK         0.1400 
     91 CB         -4.6739  -24.7626  -52.4918 C.3       16 UNK        -0.1800 
     92 C          -4.2465  -22.3036  -51.8743 C.2       16 UNK         0.5000 
     93 O          -4.8940  -21.9935  -52.8770 O.2       16 UNK        -0.5000 
     94 N          -3.5639  -21.4086  -51.1443 N.am      17 UNK        -0.5000 
     95 CA         -3.5027  -19.9736  -51.4477 C.3       17 UNK         0.1400 
     96 CB         -2.4651  -19.2911  -50.5481 C.3       17 UNK        -0.1800 
     97 C          -4.8603  -19.2547  -51.3445 C.2       17 UNK         0.5000 
     98 O          -5.0836  -18.2842  -52.0662 O.2       17 UNK        -0.5000 
     99 N          -5.7435  -19.7489  -50.4689 N.am      18 UNK        -0.5000 
    100 CA        -7.0993  -19.2284  -50.2967 C.3       18 UNK         0.1400 
    101 CB        -7.5151  -19.4025  -48.8281 C.3       18 UNK        -0.1800 
    102 C         -8.1113  -19.9236  -51.2249 C.2       18 UNK         0.5000 
    103 O         -9.0822  -19.2913  -51.6415 O.2       18 UNK        -0.5000 
    104 N         -7.8854  -21.2136  -51.5077 N.am      19 UNK        -0.5000 
    105 CA        -8.8322  -22.0749  -52.2149 C.3       19 UNK         0.1400 
    106 CB        -8.6936  -23.5087  -51.6800 C.3       19 UNK        -0.1800 
    107 C         -8.6600  -22.0532  -53.7428 C.2       19 UNK         0.5000 
    108 O         -9.6608  -22.1412  -54.4557 O.2       19 UNK        -0.5000 
    109 N         -7.4125  -21.9642  -54.2218 N.am      20 UNK        -0.5000 
    110 CA        -7.0611  -22.1119  -55.6372 C.3       20 UNK         0.1400 
    111 CB        -6.6516  -23.5747  -55.8943 C.3       20 UNK        -0.1800 
    112 C         -5.9618  -21.1291  -56.0785 C.2       20 UNK         0.5000 
    113 O         -5.3515  -21.3404  -57.1289 O.2       20 UNK        -0.5000 
    114 N         -5.6949  -20.0938  -55.2648 N.am      21 UNK        -0.5000 
    115 CA        -4.6554  -19.0698  -55.4569 C.3       21 UNK         0.1400 
    116 CB        -5.0336  -18.1382  -56.6275 C.3       21 UNK        -0.1800 
    117 C         -3.2324  -19.6593  -55.5986 C.2       21 UNK         0.5000 
    118 O         -2.4017  -19.0860  -56.3029 O.2       21 UNK        -0.5000 
    119 N         -3.0139  -20.8166  -54.9560 N.am      22 UNK        -0.5000 
    120 CA        -1.8590  -21.7225  -55.0759 C.3       22 UNK         0.1400 
    121 C         -1.5140  -22.2115  -56.5178 C.2       22 UNK         0.5000 
    122 N         -2.4424  -22.1668  -57.4680 N.am      22 UNK        -0.7600 
    123 O         -0.4098  -22.6829  -56.7767 O.2       22 UNK        -0.5000 
    124 C124       -0.6361  -21.3297  -54.1919 C.3       23 UNK        -0.0398 
    125 S125        0.3291  -19.8784  -54.7454 S.3       23 UNK        -0.2404 
    126 C126       -0.0565  -18.6472  -53.4609 C.3       23 UNK        -0.0205 
    127 H127       -2.0386  -10.3655  -51.4853 H         1 UNK         0.0600 
    128 H128       -2.9156  -11.0362  -50.1059 H         1 UNK         0.0600 
    129 H129       -2.4816  -12.0747  -51.4665 H         1 UNK         0.0600 
    130 H130       -0.7720  -13.4117  -50.9693 H         1 UNK         0.3000 
    131 H131        1.6862  -12.4495  -49.8057 H         1 UNK         0.0600 
    132 H132        1.4671  -14.2710  -51.5995 H         1 UNK         0.0800 
    133 H133        0.9103  -15.3615  -50.3567 H         1 UNK         0.0800 
    134 H134        3.6291  -15.3807  -52.4312 H         1 UNK         0.0800 
    135 H135        4.7759  -16.1819  -51.3878 H         1 UNK         0.0800 
    136 H136        1.6696  -16.5686  -53.1633 H         1 UNK         0.1150 
    137 H137        0.7123  -20.4016  -51.4977 H         1 UNK         0.1150 
    138 H138        3.9201  -18.0820  -49.8476 H         1 UNK         0.1150 
    139 H139        2.1134  -21.3721  -49.7940 H         1 UNK         0.0800 
    140 H140        3.6982  -20.6878  -49.5672 H         1 UNK         0.0800 
    141 H141        0.0648  -19.7805  -48.9351 H         1 UNK         0.0800 
    142 H142        0.0008  -19.1110  -47.3296 H         1 UNK         0.0800 
    143 H143        0.3139  -22.1046  -47.8393 H         1 UNK         0.0600 
    144 H144        0.3085  -20.6248  -45.4161 H         1 UNK         0.3000 
    145 H145       -0.6244  -23.4124  -43.3122 H         1 UNK         0.0600 
    146 H146        1.4467  -22.6215  -42.2232 H         1 UNK         0.0600 
    147 H147        1.8381  -23.4385  -43.7286 H         1 UNK         0.0600 
    148 H148        1.8813  -21.6819  -43.6488 H         1 UNK         0.0600 
    149 H149       -0.1931  -20.6983  -42.6355 H         1 UNK         0.3000 
    150 H150       -3.6066  -19.5991  -42.9824 H         1 UNK         0.0600 
    151 H151       -3.3456  -20.7110  -40.7582 H         1 UNK         0.0600 
    152 H152       -3.1404  -18.9698  -40.6375 H         1 UNK         0.0600 
    153 H153       -1.7321  -20.0275  -40.5964 H         1 UNK         0.0600 
    154 H154       -1.3034  -18.1573  -42.1975 H         1 UNK         0.3000 
    155 H155       -0.3169  -17.0187  -45.4695 H         1 UNK         0.0600 
    156 H156       -2.0592  -15.4943  -44.5948 H         1 UNK         0.0600 
    157 H157       -0.4716  -14.9116  -44.1198 H         1 UNK         0.0600 
    158 H158       -1.4920  -15.7285  -42.9458 H         1 UNK         0.0600 
    159 H159        0.9237  -16.5943  -42.9789 H         1 UNK         0.3000 
    160 H160        3.0454  -19.4948  -42.9273 H         1 UNK         0.0600 
    161 H161        3.5246  -16.4877  -43.2835 H         1 UNK         0.0600 
    162 H162        4.1619  -17.7633  -44.3078 H         1 UNK         0.0600 
    163 H163        4.6849  -17.6448  -42.6351 H         1 UNK         0.0600 
    164 H164        2.5942  -17.3221  -41.0976 H         1 UNK         0.3000 
    165 H165        0.1633  -18.9683  -39.0768 H         1 UNK         0.0600 
    166 H166        1.8861  -18.5583  -37.3414 H         1 UNK         0.0600 
    167 H167        2.3540  -19.9218  -38.3447 H         1 UNK         0.0600 
    168 H168        3.1285  -18.3590  -38.5775 H         1 UNK         0.0600 
    169 H169        1.5488  -16.4698  -38.8438 H         1 UNK         0.3000 
    170 H170       -0.7582  -14.5017  -40.7151 H         1 UNK         0.0600 
    171 H171       -1.7623  -14.7627  -38.4408 H         1 UNK         0.0600 
    172 H172       -0.1637  -14.6694  -37.7112 H         1 UNK         0.0600 
    173 H173       -0.8325  -13.2781  -38.5646 H         1 UNK         0.0600 
    174 H174        1.5750  -13.7771  -39.2697 H         1 UNK         0.3000 
    175 H175        3.2968  -12.8199  -40.7182 H         1 UNK         0.0600 
    176 H176        4.4065  -15.7023  -40.7787 H         1 UNK         0.0600 
    177 H177        5.3333  -14.2664  -40.3546 H         1 UNK         0.0600 
    178 H178        4.0218  -14.7984  -39.3179 H         1 UNK         0.0600 
    179 H179        3.1631  -14.2459  -43.1668 H         1 UNK         0.3000 
    180 H180        5.1545  -11.9749  -44.9219 H         1 UNK         0.0600 
    181 H181        5.6186  -15.0052  -44.7767 H         1 UNK         0.0600 
    182 H182        6.8608  -13.7718  -44.5999 H         1 UNK         0.0600 
    183 H183        6.0318  -13.9597  -46.1367 H         1 UNK         0.0600 
    184 H184        3.5068  -14.1681  -45.7464 H         1 UNK         0.3000 
    185 H185        1.1546  -14.1049  -45.6666 H         1 UNK         0.0600 
    186 H186       -0.1498  -12.3734  -44.3562 H         1 UNK         0.0600 
    187 H187       -0.0938  -11.2973  -45.7489 H         1 UNK         0.0600 
    188 H188       -0.9576  -12.8296  -45.8455 H         1 UNK         0.0600 
    189 H189        2.0568  -12.2283  -47.6680 H         1 UNK         0.3000 
    190 H190       -2.3522  -20.3186  -46.2037 H         1 UNK         0.3000 
    191 H191       -4.2861  -20.6651  -48.2331 H         1 UNK         0.0600 
    192 H192       -4.6290  -19.0905  -46.3935 H         1 UNK         0.0600 
    193 H193       -5.9283  -20.2732  -46.3634 H         1 UNK         0.0600 
    194 H194       -4.6138  -20.3909  -45.2052 H         1 UNK         0.0600 
    195 H195       -3.4608  -22.7642  -45.4582 H         1 UNK         0.3000 
    196 H196       -5.4859  -24.7267  -46.0272 H         1 UNK         0.0600 
    197 H197       -4.3415  -25.9828  -44.1877 H         1 UNK         0.0600 
    198 H198       -4.6874  -24.3196  -43.7379 H         1 UNK         0.0600 
    199 H199       -3.0477  -24.7883  -44.1745 H         1 UNK         0.0600 
    200 H200       -1.8642  -24.8678  -46.2986 H         1 UNK         0.3000 
    201 H201       -2.0754  -27.5731  -47.3955 H         1 UNK         0.0600 
    202 H202       -0.4449  -27.0102  -45.5985 H         1 UNK         0.0600 
    203 H203        0.3803  -25.8922  -46.6831 H         1 UNK         0.0600 
    204 H204        0.3574  -27.6126  -47.0410 H         1 UNK         0.0600 
    205 H205       -0.9061  -24.3690  -48.5349 H         1 UNK         0.3000 
    206 H206       -0.0566  -25.5119  -51.1194 H         1 UNK         0.0600 
    207 H207        1.3271  -23.7831  -49.8939 H         1 UNK         0.0600 
    208 H208        0.9120  -23.3431  -51.5426 H         1 UNK         0.0600 
    209 H209        0.0555  -22.6002  -50.2100 H         1 UNK         0.0600 
    210 H210       -2.9276  -24.3117  -49.8250 H         1 UNK         0.3000 
    211 H211       -4.9461  -23.8325  -50.5854 H         1 UNK         0.0600 
    212 H212       -4.0377  -24.7144  -53.3757 H         1 UNK         0.0600 
    213 H213       -5.6911  -24.5527  -52.8211 H         1 UNK         0.0600 
    214 H214       -4.6590  -25.7880  -52.1228 H         1 UNK         0.0600 
    215 H215       -3.0266  -21.7344  -50.3437 H         1 UNK         0.3000 
    216 H216       -3.1620  -19.8691  -52.4766 H         1 UNK         0.0600 
    217 H217       -2.3129  -18.2530  -50.8460 H         1 UNK         0.0600 
    218 H218       -1.5026  -19.7940  -50.6194 H         1 UNK         0.0600 
    219 H219       -2.7721  -19.2847  -49.5030 H         1 UNK         0.0600 
    220 H220       -5.4825  -20.5518  -49.9178 H         1 UNK         0.3000 
    221 H221       -7.1189  -18.1602  -50.5241 H         1 UNK         0.0600 
    222 H222       -7.4827  -20.4479  -48.5180 H         1 UNK         0.0600 
    223 H223       -6.8607  -18.8336  -48.1678 H         1 UNK         0.0600 
    224 H224       -8.5314  -19.0418  -48.6634 H         1 UNK         0.0600 
    225 H225       -7.0542  -21.6525  -51.1459 H         1 UNK         0.3000 
    226 H226       -9.8500  -21.7430  -51.9970 H         1 UNK         0.0600 
    227 H227       -8.9193  -23.5539  -50.6144 H         1 UNK         0.0600 
    228 H228       -9.3843  -24.1846  -52.1861 H         1 UNK         0.0600 
    229 H229       -7.6871  -23.8995  -51.8243 H         1 UNK         0.0600 
    230 H230       -6.6257  -21.9182  -53.5788 H         1 UNK         0.3000 
    231 H231       -7.9256  -21.8829  -56.2632 H         1 UNK         0.0600 
    232 H232       -7.4428  -24.2646  -55.6008 H         1 UNK         0.0600 
    233 H233       -5.7522  -23.8392  -55.3369 H         1 UNK         0.0600 
    234 H234       -6.4482  -23.7502  -56.9513 H         1 UNK         0.0600 
    235 H235       -6.2426  -20.0090  -54.4206 H         1 UNK         0.3000 
    236 H236       -4.6400  -18.4615  -54.5547 H         1 UNK         0.0600 
    237 H237       -4.3475  -17.2931  -56.6939 H         1 UNK         0.0600 
    238 H238       -5.0047  -18.6590  -57.5851 H         1 UNK         0.0600 
    239 H239       -6.0358  -17.7298  -56.4977 H         1 UNK         0.0600 
    240 H240       -3.7850  -21.1925  -54.4152 H         1 UNK         0.3000 
    241 H241       -2.2456  -22.6366  -54.6287 H         1 UNK         0.0600 
    242 H242       -2.2170  -22.4972  -58.3926 H         1 UNK         0.3800 
    243 H243       -3.3707  -21.8030  -57.2804 H         1 UNK         0.3800 
    244 H244        0.0540  -22.1730  -54.1380 H         1 UNK         0.0800 
    245 H245       -0.9695  -21.1828  -53.1646 H         1 UNK         0.0800 
    246 H246       -0.9886  -18.8953  -52.9569 H         1 UNK         0.0800 
    247 H247       -0.2390  -17.6928  -53.9569 H         1 UNK         0.0800 
@<TRIPOS>BOND
     1    1    2 1    
     2    1  127 1    
     3    1  128 1    
     4    1  129 1    
     5    2    3 2    
     6    2    4 am   BACKBONE|DICT|INTERRES
     7    4    5 1    
     8    4  130 1    
     9    5    6 1    
    10    5   65 1    
    11    5  131 1    
    12    6    7 1    
    13    6  132 1    
    14    6  133 1    
    15    7    8 1    
    16    8    9 1    
    17    8  134 1    
    18    8  135 1    
    19    9   10 ar   
    20    9   14 ar   
    21   10   11 ar   
    22   10  136 1    
    23   11   12 ar   
    24   11  126 1    
    25   12   13 ar   
    26   12  137 1    
    27   13   14 ar   
    28   13   15 1    
    29   14  138 1    
    30   15   16 1    
    31   15  139 1    
    32   15  140 1    
    33   16   17 1    
    34   17   18 1    
    35   17  141 1    
    36   17  142 1    
    37   18   19 1    
    38   18   67 1    
    39   18  143 1    
    40   19   20 am   BACKBONE|DICT|INTERRES
    41   19  144 1    
    42   20   21 2    
    43   20   22 1    
    44   22   23 1    
    45   22   24 1    
    46   22  145 1    
    47   23  146 1    
    48   23  147 1    
    49   23  148 1    
    50   24   25 am   BACKBONE|DICT|INTERRES
    51   24  149 1    
    52   25   26 2    
    53   25   27 1    
    54   27   28 1    
    55   27   29 1    
    56   27  150 1    
    57   28  151 1    
    58   28  152 1    
    59   28  153 1    
    60   29   30 am   BACKBONE|DICT|INTERRES
    61   29  154 1    
    62   30   31 2    
    63   30   32 1    
    64   32   33 1    
    65   32   34 1    
    66   32  155 1    
    67   33  156 1    
    68   33  157 1    
    69   33  158 1    
    70   34   35 am   BACKBONE|DICT|INTERRES
    71   34  159 1    
    72   35   36 2    
    73   35   37 1    
    74   37   38 1    
    75   37   39 1    
    76   37  160 1    
    77   38  161 1    
    78   38  162 1    
    79   38  163 1    
    80   39   40 am   BACKBONE|DICT|INTERRES
    81   39  164 1    
    82   40   41 2    
    83   40   42 1    
    84   42   43 1    
    85   42   44 1    
    86   42  165 1    
    87   43  166 1    
    88   43  167 1    
    89   43  168 1    
    90   44   45 am   BACKBONE|DICT|INTERRES
    91   44  169 1    
    92   45   46 2    
    93   45   47 1    
    94   47   48 1    
    95   47   49 1    
    96   47  170 1    
    97   48  171 1    
    98   48  172 1    
    99   48  173 1    
   100   49   50 am   BACKBONE|DICT|INTERRES
   101   49  174 1    
   102   50   51 2    
   103   50   52 1    
   104   52   53 1    
   105   52   54 1    
   106   52  175 1    
   107   53  176 1    
   108   53  177 1    
   109   53  178 1    
   110   54   55 am   BACKBONE|DICT|INTERRES
   111   54  179 1    
   112   55   56 2    
   113   55   57 1    
   114   57   58 1    
   115   57   59 1    
   116   57  180 1    
   117   58  181 1    
   118   58  182 1    
   119   58  183 1    
   120   59   60 am   BACKBONE|DICT|INTERRES
   121   59  184 1    
   122   60   61 2    
   123   60   62 1    
   124   62   63 1    
   125   62   64 1    
   126   62  185 1    
   127   63  186 1    
   128   63  187 1    
   129   63  188 1    
   130   64   65 am   BACKBONE|DICT|INTERRES
   131   64  189 1    
   132   65   66 2    
   133   67   68 2    
   134   67   69 am   BACKBONE|DICT|INTERRES
   135   69   70 1    
   136   69  190 1    
   137   70   71 1    
   138   70   72 1    
   139   70  191 1    
   140   71  192 1    
   141   71  193 1    
   142   71  194 1    
   143   72   73 2    
   144   72   74 am   BACKBONE|DICT|INTERRES
   145   74   75 1    
   146   74  195 1    
   147   75   76 1    
   148   75   77 1    
   149   75  196 1    
   150   76  197 1    
   151   76  198 1    
   152   76  199 1    
   153   77   78 2    
   154   77   79 am   BACKBONE|DICT|INTERRES
   155   79   80 1    
   156   79  200 1    
   157   80   81 1    
   158   80   82 1    
   159   80  201 1    
   160   81  202 1    
   161   81  203 1    
   162   81  204 1    
   163   82   83 2    
   164   82   84 am   BACKBONE|DICT|INTERRES
   165   84   85 1    
   166   84  205 1    
   167   85   86 1    
   168   85   87 1    
   169   85  206 1    
   170   86  207 1    
   171   86  208 1    
   172   86  209 1    
   173   87   88 2    
   174   87   89 am   BACKBONE|DICT|INTERRES
   175   89   90 1    
   176   89  210 1    
   177   90   91 1    
   178   90   92 1    
   179   90  211 1    
   180   91  212 1    
   181   91  213 1    
   182   91  214 1    
   183   92   93 2    
   184   92   94 am   BACKBONE|DICT|INTERRES
   185   94   95 1    
   186   94  215 1    
   187   95   96 1    
   188   95   97 1    
   189   95  216 1    
   190   96  217 1    
   191   96  218 1    
   192   96  219 1    
   193   97   98 2    
   194   97   99 am   BACKBONE|DICT|INTERRES
   195   99  100 1    
   196   99  220 1    
   197  100  101 1    
   198  100  102 1    
   199  100  221 1    
   200  101  222 1    
   201  101  223 1    
   202  101  224 1    
   203  102  103 2    
   204  102  104 am   BACKBONE|DICT|INTERRES
   205  104  105 1    
   206  104  225 1    
   207  105  106 1    
   208  105  107 1    
   209  105  226 1    
   210  106  227 1    
   211  106  228 1    
   212  106  229 1    
   213  107  108 2    
   214  107  109 am   BACKBONE|DICT|INTERRES
   215  109  110 1    
   216  109  230 1    
   217  110  111 1    
   218  110  112 1    
   219  110  231 1    
   220  111  232 1    
   221  111  233 1    
   222  111  234 1    
   223  112  113 2    
   224  112  114 am   BACKBONE|DICT|INTERRES
   225  114  115 1    
   226  114  235 1    
   227  115  116 1    
   228  115  117 1    
   229  115  236 1    
   230  116  237 1    
   231  116  238 1    
   232  116  239 1    
   233  117  118 2    
   234  117  119 am   BACKBONE|DICT|INTERRES
   235  119  120 1    
   236  119  240 1    
   237  120  121 1    
   238  120  124 1    
   239  120  241 1    
   240  121  122 am   BACKBONE|DICT|INTERRES
   241  121  123 2    
   242  122  242 1    
   243  122  243 1    
   244  124  125 1    
   245  124  244 1    
   246  124  245 1    
   247  125  126 1    
   248  126  246 1    
   249  126  247 1    
@<TRIPOS>SUBSTRUCTURE
     1 UNK         1 GROUP             0       ****    0 ROOT    
