@<TRIPOS>MOLECULE
3R540
247   249    1
SMALL
USER_CHARGES


@<TRIPOS>ATOM
      1 CA          3.2926  -13.6255  -48.6363 C.3       0 UNK        -0.1800 
      2 C           2.3356  -12.6209  -48.0104 C.2       0 UNK         0.5000 
      3 O           2.2069  -11.5052  -48.5132 O.2       0 UNK        -0.5000 
      4 N           1.6790  -13.0123  -46.9100 N.am      1 UNK        -0.5000 
      5 CA          0.6674  -12.2433  -46.1645 C.3       1 UNK         0.1400 
      6 C6         -0.6104  -11.9278  -46.9916 C.3       23 UNK        -0.0398 
      7 S7         -1.4147  -13.4418  -47.6109 S.3       23 UNK        -0.2404 
      8 C8         -2.9210  -13.4975  -46.5866 C.3       23 UNK        -0.0205 
      9 C9         -3.6711  -14.8168  -46.7270 C.ar      23 UNK        -0.0193 
     10 C10        -4.0368  -15.2990  -47.9876 C.ar      23 UNK        -0.1150 
     11 C11        -4.7063  -16.5184  -48.1193 C.ar      23 UNK        -0.0193 
     12 C12        -5.0469  -17.2420  -46.9713 C.ar      23 UNK        -0.1150 
     13 C13        -4.7119  -16.7612  -45.7008 C.ar      23 UNK        -0.0193 
     14 C14        -4.0191  -15.5509  -45.5891 C.ar      23 UNK        -0.1150 
     15 C15        -5.1425  -17.5135  -44.4452 C.3       23 UNK        -0.0205 
     16 S16        -3.7350  -17.9893  -43.3869 S.3       23 UNK        -0.2404 
     17 C17        -3.4251  -19.7333  -43.8320 C.3       23 UNK        -0.0398 
     18 CA         -3.1744  -20.0008  -45.3344 C.3       11 UNK         0.1400 
     19 N          -2.0628  -19.2178  -45.8852 N.am      11 UNK        -0.5000 
     20 C          -1.7750  -19.1432  -47.1922 C.2       10 UNK         0.5000 
     21 O          -2.4259  -19.7217  -48.0601 O.2       10 UNK        -0.5000 
     22 CA         -0.5054  -18.3709  -47.5904 C.3       10 UNK         0.1400 
     23 CB         -0.7386  -16.8564  -47.5931 C.3       10 UNK        -0.1800 
     24 N           0.6209  -18.6964  -46.7181 N.am      10 UNK        -0.5000 
     25 C           1.2420  -19.8834  -46.7120 C.2       9 UNK         0.5000 
     26 O           0.9566  -20.8057  -47.4754 O.2       9 UNK        -0.5000 
     27 CA          2.3395  -20.0911  -45.6529 C.3       9 UNK         0.1400 
     28 CB          3.6769  -19.5235  -46.1508 C.3       9 UNK        -0.1800 
     29 N           2.0059  -19.4950  -44.3583 N.am      9 UNK        -0.5000 
     30 C           0.9646  -19.8602  -43.5963 C.2       8 UNK         0.5000 
     31 O           0.2008  -20.7822  -43.8804 O.2       8 UNK        -0.5000 
     32 CA          0.6955  -19.0208  -42.3331 C.3       8 UNK         0.1400 
     33 CB          1.5850  -19.4865  -41.1721 C.3       8 UNK        -0.1800 
     34 N           0.8728  -17.5817  -42.5437 N.am      8 UNK        -0.5000 
     35 C           0.1912  -16.8545  -43.4410 C.2       7 UNK         0.5000 
     36 O          -0.6458  -17.3273  -44.2054 O.2       7 UNK        -0.5000 
     37 CA          0.5526  -15.3667  -43.5535 C.3       7 UNK         0.1400 
     38 CB         -0.0654  -14.5400  -42.4164 C.3       7 UNK        -0.1800 
     39 N           2.0027  -15.1913  -43.5688 N.am      7 UNK        -0.5000 
     40 C           2.7615  -15.3952  -44.6534 C.2       6 UNK         0.5000 
     41 O           2.3003  -15.6071  -45.7747 O.2       6 UNK        -0.5000 
     42 CA          4.2871  -15.3537  -44.4622 C.3       6 UNK         0.1400 
     43 CB          4.8295  -13.9515  -44.7748 C.3       6 UNK        -0.1800 
     44 N           4.6950  -15.7537  -43.1139 N.am      6 UNK        -0.5000 
     45 C           4.6468  -17.0186  -42.6702 C.2       5 UNK         0.5000 
     46 O           4.2565  -17.9629  -43.3549 O.2       5 UNK        -0.5000 
     47 CA          5.0626  -17.2765  -41.2104 C.3       5 UNK         0.1400 
     48 CB          6.5700  -17.5568  -41.1255 C.3       5 UNK        -0.1800 
     49 N           4.7243  -16.1904  -40.2913 N.am      5 UNK        -0.5000 
     50 C           3.4946  -15.7100  -40.0620 C.2       4 UNK         0.5000 
     51 O           2.4841  -16.1206  -40.6349 O.2       4 UNK        -0.5000 
     52 CA          3.3711  -14.5540  -39.0462 C.3       4 UNK         0.1400 
     53 CB          4.6449  -14.3299  -38.2006 C.3       4 UNK        -0.1800 
     54 N           2.9673  -13.2823  -39.6574 N.am      4 UNK        -0.5000 
     55 C           3.4960  -12.6921  -40.7386 C.2       3 UNK         0.5000 
     56 O           4.3333  -13.2126  -41.4826 O.2       3 UNK        -0.5000 
     57 CA          3.0423  -11.2508  -41.0069 C.3       3 UNK         0.1400 
     58 CB          3.8407  -10.2833  -40.1077 C.3       3 UNK        -0.1800 
     59 N           3.2633  -10.9609  -42.4201 N.am      3 UNK        -0.5000 
     60 C           2.9482   -9.8375  -43.0744 C.2       2 UNK         0.5000 
     61 O           2.4149   -8.8570  -42.5540 O.2       2 UNK        -0.5000 
     62 CA          3.2493   -9.8322  -44.5838 C.3       2 UNK         0.1400 
     63 CB          4.7597   -9.9163  -44.8612 C.3       2 UNK        -0.1800 
     64 N           2.5603  -10.9229  -45.2749 N.am      2 UNK        -0.5000 
     65 C           1.2327  -10.9885  -45.4569 C.2       1 UNK         0.5000 
     66 O           0.4584  -10.1115  -45.0707 O.2       1 UNK        -0.5000 
     67 C          -3.0206  -21.5154  -45.5959 C.2       11 UNK         0.5000 
     68 O          -4.0275  -22.1936  -45.7991 O.2       11 UNK        -0.5000 
     69 N          -1.7775  -22.0178  -45.6219 N.am      12 UNK        -0.5000 
     70 CA         -1.4526  -23.3768  -46.0507 C.3       12 UNK         0.1400 
     71 CB         -0.0096  -23.7260  -45.6571 C.3       12 UNK        -0.1800 
     72 C          -1.6844  -23.5640  -47.5605 C.2       12 UNK         0.5000 
     73 O          -2.3826  -24.5004  -47.9501 O.2       12 UNK        -0.5000 
     74 N          -1.1458  -22.6480  -48.3812 N.am      13 UNK        -0.5000 
     75 CA         -1.2891  -22.6285  -49.8425 C.3       13 UNK         0.1400 
     76 CB         -0.4513  -21.4863  -50.4344 C.3       13 UNK        -0.1800 
     77 C          -2.7456  -22.5300  -50.3317 C.2       13 UNK         0.5000 
     78 O          -3.0582  -23.0456  -51.4051 O.2       13 UNK        -0.5000 
     79 N          -3.6211  -21.9075  -49.5322 N.am      14 UNK        -0.5000 
     80 CA         -5.0692  -21.8414  -49.7419 C.3       14 UNK         0.1400 
     81 CB         -5.6976  -20.9591  -48.6552 C.3       14 UNK        -0.1800 
     82 C          -5.7588  -23.2204  -49.7954 C.2       14 UNK         0.5000 
     83 O          -6.8155  -23.3333  -50.4158 O.2       14 UNK        -0.5000 
     84 N          -5.1482  -24.2375  -49.1735 N.am      15 UNK        -0.5000 
     85 CA         -5.5733  -25.6320  -49.2468 C.3       15 UNK         0.1400 
     86 CB         -5.6457  -26.2123  -47.8253 C.3       15 UNK        -0.1800 
     87 C          -4.6078  -26.4508  -50.1190 C.2       15 UNK         0.5000 
     88 O          -5.0568  -27.1775  -51.0060 O.2       15 UNK        -0.5000 
     89 N          -3.2995  -26.3262  -49.8526 N.am      16 UNK        -0.5000 
     90 CA         -2.2410  -27.1720  -50.4092 C.3       16 UNK         0.1400 
     91 CB         -0.9247  -26.8896  -49.6688 C.3       16 UNK        -0.1800 
     92 C          -2.0413  -27.0489  -51.9300 C.2       16 UNK         0.5000 
     93 O          -1.6128  -28.0209  -52.5533 O.2       16 UNK        -0.5000 
     94 N          -2.3616  -25.8826  -52.5085 N.am      17 UNK        -0.5000 
     95 CA         -2.2788  -25.6468  -53.9529 C.3       17 UNK         0.1400 
     96 CB         -2.0251  -24.1561  -54.2096 C.3       17 UNK        -0.1800 
     97 C          -3.5131  -26.1587  -54.7275 C.2       17 UNK         0.5000 
     98 O          -3.5161  -26.0828  -55.9574 O.2       17 UNK        -0.5000 
     99 N          -4.5239  -26.6824  -54.0134 N.am      18 UNK        -0.5000 
    100 CA        -5.7358  -27.3319  -54.5206 C.3       18 UNK         0.1400 
    101 CB        -5.3856  -28.7136  -55.1164 C.3       18 UNK        -0.1800 
    102 C         -6.5331  -26.4230  -55.4774 C.2       18 UNK         0.5000 
    103 O         -7.1501  -25.4623  -55.0190 O.2       18 UNK        -0.5000 
    104 N         -6.4966  -26.7205  -56.7832 N.am      19 UNK        -0.5000 
    105 CA        -7.1423  -25.9426  -57.8433 C.3       19 UNK         0.1400 
    106 CB        -7.0818  -26.7438  -59.1528 C.3       19 UNK        -0.1800 
    107 C         -6.5357  -24.5380  -58.0429 C.2       19 UNK         0.5000 
    108 O         -7.2218  -23.6555  -58.5591 O.2       19 UNK        -0.5000 
    109 N         -5.2790  -24.3486  -57.6202 N.am      20 UNK        -0.5000 
    110 CA        -4.5426  -23.0862  -57.6761 C.3       20 UNK         0.1400 
    111 CB        -3.1593  -23.3546  -58.2964 C.3       20 UNK        -0.1800 
    112 C         -4.4438  -22.4383  -56.2795 C.2       20 UNK         0.5000 
    113 O         -3.4333  -21.7991  -55.9803 O.2       20 UNK        -0.5000 
    114 N         -5.4814  -22.6356  -55.4482 N.am      21 UNK        -0.5000 
    115 CA        -5.6297  -22.1861  -54.0588 C.3       21 UNK         0.1400 
    116 CB        -7.1101  -22.2835  -53.6552 C.3       21 UNK        -0.1800 
    117 C         -5.1095  -20.7613  -53.7922 C.2       21 UNK         0.5000 
    118 O         -5.6561  -19.7977  -54.3331 O.2       21 UNK        -0.5000 
    119 N         -4.0663  -20.6707  -52.9605 N.am      22 UNK        -0.5000 
    120 CA        -3.3863  -19.4310  -52.5524 C.3       22 UNK         0.1400 
    121 C         -2.5023  -18.7719  -53.6576 C.2       22 UNK         0.5000 
    122 N         -2.2791  -19.4016  -54.8055 N.am      22 UNK        -0.7600 
    123 O         -1.9767  -17.6794  -53.4649 O.2       22 UNK        -0.5000 
    124 C124       -4.3481  -18.4234  -51.8503 C.3       23 UNK        -0.0398 
    125 S125       -3.5918  -17.6256  -50.3965 S.3       23 UNK        -0.2404 
    126 C126       -5.0668  -17.0411  -49.5027 C.3       23 UNK        -0.0205 
    127 H127        3.0273  -13.7954  -49.6798 H         1 UNK         0.0600 
    128 H128        3.2684  -14.5861  -48.1215 H         1 UNK         0.0600 
    129 H129        4.3133  -13.2450  -48.5999 H         1 UNK         0.0600 
    130 H130        1.8279  -13.9608  -46.5734 H         1 UNK         0.3000 
    131 H131        0.3593  -12.8916  -45.3453 H         1 UNK         0.0600 
    132 H132       -1.3359  -11.3706  -46.3968 H         1 UNK         0.0800 
    133 H133       -0.3723  -11.2895  -47.8432 H         1 UNK         0.0800 
    134 H134       -2.6434  -13.3299  -45.5447 H         1 UNK         0.0800 
    135 H135       -3.5827  -12.6789  -46.8722 H         1 UNK         0.0800 
    136 H136       -3.7766  -14.7361  -48.8731 H         1 UNK         0.1150 
    137 H137       -5.5830  -18.1749  -47.0669 H         1 UNK         0.1150 
    138 H138       -3.7571  -15.1797  -44.6082 H         1 UNK         0.1150 
    139 H139       -5.7981  -16.8609  -43.8674 H         1 UNK         0.0800 
    140 H140       -5.7383  -18.3932  -44.6921 H         1 UNK         0.0800 
    141 H141       -2.5691  -20.0724  -43.2459 H         1 UNK         0.0800 
    142 H142       -4.2797  -20.3156  -43.4822 H         1 UNK         0.0800 
    143 H143       -4.0691  -19.6999  -45.8798 H         1 UNK         0.0600 
    144 H144       -1.5149  -18.6685  -45.2270 H         1 UNK         0.3000 
    145 H145       -0.2393  -18.6644  -48.6076 H         1 UNK         0.0600 
    146 H146        0.1722  -16.3126  -47.8446 H         1 UNK         0.0600 
    147 H147       -1.0894  -16.4929  -46.6277 H         1 UNK         0.0600 
    148 H148       -1.4917  -16.5873  -48.3334 H         1 UNK         0.0600 
    149 H149        0.8787  -18.0018  -46.0310 H         1 UNK         0.3000 
    150 H150        2.4578  -21.1664  -45.5050 H         1 UNK         0.0600 
    151 H151        3.9441  -19.9431  -47.1215 H         1 UNK         0.0600 
    152 H152        4.4866  -19.7619  -45.4610 H         1 UNK         0.0600 
    153 H153        3.6376  -18.4386  -46.2592 H         1 UNK         0.0600 
    154 H154        2.6309  -18.7683  -44.0206 H         1 UNK         0.3000 
    155 H155       -0.3465  -19.1791  -42.0476 H         1 UNK         0.0600 
    156 H156        1.3969  -20.5343  -40.9351 H         1 UNK         0.0600 
    157 H157        1.3943  -18.9076  -40.2681 H         1 UNK         0.0600 
    158 H158        2.6423  -19.3921  -41.4164 H         1 UNK         0.0600 
    159 H159        1.5295  -17.1070  -41.9297 H         1 UNK         0.3000 
    160 H160        0.1337  -15.0038  -44.4939 H         1 UNK         0.0600 
    161 H161        0.2949  -14.8561  -41.4375 H         1 UNK         0.0600 
    162 H162       -1.1517  -14.6395  -42.4130 H         1 UNK         0.0600 
    163 H163        0.1645  -13.4806  -42.5313 H         1 UNK         0.0600 
    164 H164        2.4575  -15.0746  -42.6729 H         1 UNK         0.3000 
    165 H165        4.7284  -16.0530  -45.1759 H         1 UNK         0.0600 
    166 H166        5.9105  -13.9072  -44.6417 H         1 UNK         0.0600 
    167 H167        4.6192  -13.6736  -45.8079 H         1 UNK         0.0600 
    168 H168        4.3813  -13.1949  -44.1329 H         1 UNK         0.0600 
    169 H169        4.9562  -15.0121  -42.4733 H         1 UNK         0.3000 
    170 H170        4.5347  -18.1678  -40.8689 H         1 UNK         0.0600 
    171 H171        7.1582  -16.6863  -41.4189 H         1 UNK         0.0600 
    172 H172        6.8638  -17.8362  -40.1136 H         1 UNK         0.0600 
    173 H173        6.8519  -18.3805  -41.7830 H         1 UNK         0.0600 
    174 H174        5.4960  -15.7664  -39.7978 H         1 UNK         0.3000 
    175 H175        2.5692  -14.8407  -38.3644 H         1 UNK         0.0600 
    176 H176        5.4832  -13.9801  -38.8046 H         1 UNK         0.0600 
    177 H177        4.4681  -13.5831  -37.4264 H         1 UNK         0.0600 
    178 H178        4.9519  -15.2453  -37.6929 H         1 UNK         0.0600 
    179 H179        2.2580  -12.7762  -39.1461 H         1 UNK         0.3000 
    180 H180        1.9751  -11.1671  -40.7933 H         1 UNK         0.0600 
    181 H181        3.4844   -9.2577  -40.1966 H         1 UNK         0.0600 
    182 H182        4.9026  -10.2917  -40.3567 H         1 UNK         0.0600 
    183 H183        3.7497  -10.5568  -39.0557 H         1 UNK         0.0600 
    184 H184        3.7132  -11.7192  -42.9154 H         1 UNK         0.3000 
    185 H185        2.8874   -8.8865  -44.9933 H         1 UNK         0.0600 
    186 H186        4.9678   -9.8263  -45.9276 H         1 UNK         0.0600 
    187 H187        5.2922   -9.1078  -44.3586 H         1 UNK         0.0600 
    188 H188        5.1911  -10.8560  -44.5159 H         1 UNK         0.0600 
    189 H189        3.1294  -11.6678  -45.6460 H         1 UNK         0.3000 
    190 H190       -1.0018  -21.4203  -45.3547 H         1 UNK         0.3000 
    191 H191       -2.1164  -24.0664  -45.5248 H         1 UNK         0.0600 
    192 H192        0.1330  -23.6473  -44.5792 H         1 UNK         0.0600 
    193 H193        0.2348  -24.7493  -45.9445 H         1 UNK         0.0600 
    194 H194        0.7156  -23.0696  -46.1366 H         1 UNK         0.0600 
    195 H195       -0.5686  -21.9137  -47.9805 H         1 UNK         0.3000 
    196 H196       -0.8874  -23.5687  -50.2223 H         1 UNK         0.0600 
    197 H197        0.5997  -21.5857  -50.1630 H         1 UNK         0.0600 
    198 H198       -0.7970  -20.5128  -50.0874 H         1 UNK         0.0600 
    199 H199       -0.5067  -21.4845  -51.5239 H         1 UNK         0.0600 
    200 H200       -3.2533  -21.4066  -48.7286 H         1 UNK         0.3000 
    201 H201       -5.2441  -21.3566  -50.7007 H         1 UNK         0.0600 
    202 H202       -5.1838  -20.0016  -48.5826 H         1 UNK         0.0600 
    203 H203       -5.6578  -21.4357  -47.6766 H         1 UNK         0.0600 
    204 H204       -6.7455  -20.7547  -48.8770 H         1 UNK         0.0600 
    205 H205       -4.2726  -24.0575  -48.6954 H         1 UNK         0.3000 
    206 H206       -6.5678  -25.7117  -49.6907 H         1 UNK         0.0600 
    207 H207       -4.6858  -26.1506  -47.3108 H         1 UNK         0.0600 
    208 H208       -6.3803  -25.6783  -47.2223 H         1 UNK         0.0600 
    209 H209       -5.9423  -27.2617  -47.8457 H         1 UNK         0.0600 
    210 H210       -3.0082  -25.6877  -49.1146 H         1 UNK         0.3000 
    211 H211       -2.5197  -28.2086  -50.2083 H         1 UNK         0.0600 
    212 H212       -0.5907  -25.8632  -49.8175 H         1 UNK         0.0600 
    213 H213       -0.1287  -27.5473  -50.0203 H         1 UNK         0.0600 
    214 H214       -1.0314  -27.0545  -48.5964 H         1 UNK         0.0600 
    215 H215       -2.7090  -25.1180  -51.9409 H         1 UNK         0.3000 
    216 H216       -1.4165  -26.1884  -54.3474 H         1 UNK         0.0600 
    217 H217       -1.8219  -23.9715  -55.2647 H         1 UNK         0.0600 
    218 H218       -1.1641  -23.7954  -53.6467 H         1 UNK         0.0600 
    219 H219       -2.8843  -23.5504  -53.9311 H         1 UNK         0.0600 
    220 H220       -4.4399  -26.6795  -53.0036 H         1 UNK         0.3000 
    221 H221       -6.3790  -27.5013  -53.6557 H         1 UNK         0.0600 
    222 H222       -4.6842  -28.6422  -55.9484 H         1 UNK         0.0600 
    223 H223       -4.9305  -29.3544  -54.3609 H         1 UNK         0.0600 
    224 H224       -6.2792  -29.2268  -55.4741 H         1 UNK         0.0600 
    225 H225       -5.9413  -27.5107  -57.0775 H         1 UNK         0.3000 
    226 H226       -8.1915  -25.8094  -57.5715 H         1 UNK         0.0600 
    227 H227       -7.5776  -27.7091  -59.0487 H         1 UNK         0.0600 
    228 H228       -7.5814  -26.2094  -59.9620 H         1 UNK         0.0600 
    229 H229       -6.0527  -26.9254  -59.4655 H         1 UNK         0.0600 
    230 H230       -4.7952  -25.1161  -57.1620 H         1 UNK         0.3000 
    231 H231       -5.0602  -22.3704  -58.3174 H         1 UNK         0.0600 
    232 H232       -2.5930  -22.4301  -58.4152 H         1 UNK         0.0600 
    233 H233       -3.2528  -23.8041  -59.2851 H         1 UNK         0.0600 
    234 H234       -2.5659  -24.0287  -57.6778 H         1 UNK         0.0600 
    235 H235       -6.2421  -23.2021  -55.7960 H         1 UNK         0.3000 
    236 H236       -5.0733  -22.8844  -53.4316 H         1 UNK         0.0600 
    237 H237       -7.7542  -21.7503  -54.3553 H         1 UNK         0.0600 
    238 H238       -7.4442  -23.3188  -53.6099 H         1 UNK         0.0600 
    239 H239       -7.2782  -21.8540  -52.6668 H         1 UNK         0.0600 
    240 H240       -3.6677  -21.5258  -52.5863 H         1 UNK         0.3000 
    241 H241       -2.6672  -19.7746  -51.8087 H         1 UNK         0.0600 
    242 H242       -2.7176  -20.2932  -55.0213 H         1 UNK         0.3800 
    243 H243       -1.6950  -18.9625  -55.4984 H         1 UNK         0.3800 
    244 H244       -5.2409  -18.9410  -51.4981 H         1 UNK         0.0800 
    245 H245       -4.7051  -17.6597  -52.5433 H         1 UNK         0.0800 
    246 H246       -5.5462  -16.2486  -50.0791 H         1 UNK         0.0800 
    247 H247       -5.7949  -17.8489  -49.4243 H         1 UNK         0.0800 
@<TRIPOS>BOND
     1    1    2 1    
     2    1  127 1    
     3    1  128 1    
     4    1  129 1    
     5    2    3 2    
     6    2    4 am   BACKBONE|DICT|INTERRES
     7    4    5 1    
     8    4  130 1    
     9    5    6 1    
    10    5   65 1    
    11    5  131 1    
    12    6    7 1    
    13    6  132 1    
    14    6  133 1    
    15    7    8 1    
    16    8    9 1    
    17    8  134 1    
    18    8  135 1    
    19    9   10 ar   
    20    9   14 ar   
    21   10   11 ar   
    22   10  136 1    
    23   11   12 ar   
    24   11  126 1    
    25   12   13 ar   
    26   12  137 1    
    27   13   14 ar   
    28   13   15 1    
    29   14  138 1    
    30   15   16 1    
    31   15  139 1    
    32   15  140 1    
    33   16   17 1    
    34   17   18 1    
    35   17  141 1    
    36   17  142 1    
    37   18   19 1    
    38   18   67 1    
    39   18  143 1    
    40   19   20 am   BACKBONE|DICT|INTERRES
    41   19  144 1    
    42   20   21 2    
    43   20   22 1    
    44   22   23 1    
    45   22   24 1    
    46   22  145 1    
    47   23  146 1    
    48   23  147 1    
    49   23  148 1    
    50   24   25 am   BACKBONE|DICT|INTERRES
    51   24  149 1    
    52   25   26 2    
    53   25   27 1    
    54   27   28 1    
    55   27   29 1    
    56   27  150 1    
    57   28  151 1    
    58   28  152 1    
    59   28  153 1    
    60   29   30 am   BACKBONE|DICT|INTERRES
    61   29  154 1    
    62   30   31 2    
    63   30   32 1    
    64   32   33 1    
    65   32   34 1    
    66   32  155 1    
    67   33  156 1    
    68   33  157 1    
    69   33  158 1    
    70   34   35 am   BACKBONE|DICT|INTERRES
    71   34  159 1    
    72   35   36 2    
    73   35   37 1    
    74   37   38 1    
    75   37   39 1    
    76   37  160 1    
    77   38  161 1    
    78   38  162 1    
    79   38  163 1    
    80   39   40 am   BACKBONE|DICT|INTERRES
    81   39  164 1    
    82   40   41 2    
    83   40   42 1    
    84   42   43 1    
    85   42   44 1    
    86   42  165 1    
    87   43  166 1    
    88   43  167 1    
    89   43  168 1    
    90   44   45 am   BACKBONE|DICT|INTERRES
    91   44  169 1    
    92   45   46 2    
    93   45   47 1    
    94   47   48 1    
    95   47   49 1    
    96   47  170 1    
    97   48  171 1    
    98   48  172 1    
    99   48  173 1    
   100   49   50 am   BACKBONE|DICT|INTERRES
   101   49  174 1    
   102   50   51 2    
   103   50   52 1    
   104   52   53 1    
   105   52   54 1    
   106   52  175 1    
   107   53  176 1    
   108   53  177 1    
   109   53  178 1    
   110   54   55 am   BACKBONE|DICT|INTERRES
   111   54  179 1    
   112   55   56 2    
   113   55   57 1    
   114   57   58 1    
   115   57   59 1    
   116   57  180 1    
   117   58  181 1    
   118   58  182 1    
   119   58  183 1    
   120   59   60 am   BACKBONE|DICT|INTERRES
   121   59  184 1    
   122   60   61 2    
   123   60   62 1    
   124   62   63 1    
   125   62   64 1    
   126   62  185 1    
   127   63  186 1    
   128   63  187 1    
   129   63  188 1    
   130   64   65 am   BACKBONE|DICT|INTERRES
   131   64  189 1    
   132   65   66 2    
   133   67   68 2    
   134   67   69 am   BACKBONE|DICT|INTERRES
   135   69   70 1    
   136   69  190 1    
   137   70   71 1    
   138   70   72 1    
   139   70  191 1    
   140   71  192 1    
   141   71  193 1    
   142   71  194 1    
   143   72   73 2    
   144   72   74 am   BACKBONE|DICT|INTERRES
   145   74   75 1    
   146   74  195 1    
   147   75   76 1    
   148   75   77 1    
   149   75  196 1    
   150   76  197 1    
   151   76  198 1    
   152   76  199 1    
   153   77   78 2    
   154   77   79 am   BACKBONE|DICT|INTERRES
   155   79   80 1    
   156   79  200 1    
   157   80   81 1    
   158   80   82 1    
   159   80  201 1    
   160   81  202 1    
   161   81  203 1    
   162   81  204 1    
   163   82   83 2    
   164   82   84 am   BACKBONE|DICT|INTERRES
   165   84   85 1    
   166   84  205 1    
   167   85   86 1    
   168   85   87 1    
   169   85  206 1    
   170   86  207 1    
   171   86  208 1    
   172   86  209 1    
   173   87   88 2    
   174   87   89 am   BACKBONE|DICT|INTERRES
   175   89   90 1    
   176   89  210 1    
   177   90   91 1    
   178   90   92 1    
   179   90  211 1    
   180   91  212 1    
   181   91  213 1    
   182   91  214 1    
   183   92   93 2    
   184   92   94 am   BACKBONE|DICT|INTERRES
   185   94   95 1    
   186   94  215 1    
   187   95   96 1    
   188   95   97 1    
   189   95  216 1    
   190   96  217 1    
   191   96  218 1    
   192   96  219 1    
   193   97   98 2    
   194   97   99 am   BACKBONE|DICT|INTERRES
   195   99  100 1    
   196   99  220 1    
   197  100  101 1    
   198  100  102 1    
   199  100  221 1    
   200  101  222 1    
   201  101  223 1    
   202  101  224 1    
   203  102  103 2    
   204  102  104 am   BACKBONE|DICT|INTERRES
   205  104  105 1    
   206  104  225 1    
   207  105  106 1    
   208  105  107 1    
   209  105  226 1    
   210  106  227 1    
   211  106  228 1    
   212  106  229 1    
   213  107  108 2    
   214  107  109 am   BACKBONE|DICT|INTERRES
   215  109  110 1    
   216  109  230 1    
   217  110  111 1    
   218  110  112 1    
   219  110  231 1    
   220  111  232 1    
   221  111  233 1    
   222  111  234 1    
   223  112  113 2    
   224  112  114 am   BACKBONE|DICT|INTERRES
   225  114  115 1    
   226  114  235 1    
   227  115  116 1    
   228  115  117 1    
   229  115  236 1    
   230  116  237 1    
   231  116  238 1    
   232  116  239 1    
   233  117  118 2    
   234  117  119 am   BACKBONE|DICT|INTERRES
   235  119  120 1    
   236  119  240 1    
   237  120  121 1    
   238  120  124 1    
   239  120  241 1    
   240  121  122 am   BACKBONE|DICT|INTERRES
   241  121  123 2    
   242  122  242 1    
   243  122  243 1    
   244  124  125 1    
   245  124  244 1    
   246  124  245 1    
   247  125  126 1    
   248  126  246 1    
   249  126  247 1    
@<TRIPOS>SUBSTRUCTURE
     1 UNK         1 GROUP             0       ****    0 ROOT    
