@<TRIPOS>MOLECULE
3R540
247   249    1
SMALL
USER_CHARGES


@<TRIPOS>ATOM
      1 CA          1.8106  -12.2426  -52.9546 C.3       0 UNK        -0.1800 
      2 C           0.5346  -13.0005  -52.5931 C.2       0 UNK         0.5000 
      3 O          -0.2403  -13.3256  -53.4900 O.2       0 UNK        -0.5000 
      4 N           0.2837  -13.3161  -51.3158 N.am      1 UNK        -0.5000 
      5 CA          1.0878  -12.9420  -50.1434 C.3       1 UNK         0.1400 
      6 C6          0.7610  -13.7798  -48.8810 C.3       23 UNK        -0.0398 
      7 S7          0.5744  -15.5630  -49.1645 S.3       23 UNK        -0.2404 
      8 C8          2.2879  -16.1538  -49.3311 C.3       23 UNK        -0.0205 
      9 C9          2.2974  -17.4876  -50.0592 C.ar      23 UNK        -0.0193 
     10 C10         1.8742  -17.5307  -51.3871 C.ar      23 UNK        -0.1150 
     11 C11         1.7579  -18.7442  -52.0633 C.ar      23 UNK        -0.0193 
     12 C12         2.1660  -19.9217  -51.4268 C.ar      23 UNK        -0.1150 
     13 C13         2.6465  -19.8908  -50.1101 C.ar      23 UNK        -0.0193 
     14 C14         2.6873  -18.6708  -49.4227 C.ar      23 UNK        -0.1150 
     15 C15         3.1834  -21.1601  -49.4550 C.3       23 UNK        -0.0205 
     16 S16         1.9352  -22.4747  -49.2665 S.3       23 UNK        -0.2404 
     17 C17         1.0435  -21.9623  -47.7647 C.3       23 UNK        -0.0398 
     18 CA          0.2496  -23.1203  -47.1006 C.3       11 UNK         0.1400 
     19 N           0.0716  -22.8823  -45.6633 N.am      11 UNK        -0.5000 
     20 C          -0.4770  -23.7295  -44.7808 C.2       10 UNK         0.5000 
     21 O          -0.8478  -24.8647  -45.0751 O.2       10 UNK        -0.5000 
     22 CA         -0.7165  -23.1938  -43.3534 C.3       10 UNK         0.1400 
     23 CB         -0.6321  -24.2967  -42.2774 C.3       10 UNK        -0.1800 
     24 N           0.1282  -22.0455  -43.0090 N.am      10 UNK        -0.5000 
     25 C           1.4601  -22.0279  -42.8464 C.2       9 UNK         0.5000 
     26 O           2.1784  -23.0226  -42.9480 O.2       9 UNK        -0.5000 
     27 CA          2.1116  -20.6626  -42.5523 C.3       9 UNK         0.1400 
     28 CB          3.0124  -20.2413  -43.7256 C.3       9 UNK        -0.1800 
     29 N           1.1372  -19.5974  -42.3048 N.am      9 UNK        -0.5000 
     30 C           0.4818  -19.3984  -41.1542 C.2       8 UNK         0.5000 
     31 O           0.6316  -20.0965  -40.1512 O.2       8 UNK        -0.5000 
     32 CA         -0.5255  -18.2343  -41.1319 C.3       8 UNK         0.1400 
     33 CB          0.1985  -16.8946  -40.9266 C.3       8 UNK        -0.1800 
     34 N          -1.3398  -18.1611  -42.3472 N.am      8 UNK        -0.5000 
     35 C          -2.3113  -19.0253  -42.6735 C.2       7 UNK         0.5000 
     36 O          -2.6046  -20.0125  -42.0000 O.2       7 UNK        -0.5000 
     37 CA         -3.0643  -18.7506  -43.9882 C.3       7 UNK         0.1400 
     38 CB         -4.1558  -17.6881  -43.7889 C.3       7 UNK        -0.1800 
     39 N          -2.1525  -18.3204  -45.0464 N.am      7 UNK        -0.5000 
     40 C          -1.3676  -19.1661  -45.7278 C.2       6 UNK         0.5000 
     41 O          -1.4042  -20.3895  -45.5929 O.2       6 UNK        -0.5000 
     42 CA         -0.3622  -18.5573  -46.7218 C.3       6 UNK         0.1400 
     43 CB         -0.9752  -18.5489  -48.1314 C.3       6 UNK        -0.1800 
     44 N           0.1023  -17.2151  -46.3569 N.am      6 UNK        -0.5000 
     45 C           0.7575  -16.9209  -45.2241 C.2       5 UNK         0.5000 
     46 O           1.0773  -17.7674  -44.3934 O.2       5 UNK        -0.5000 
     47 CA          1.0627  -15.4427  -44.9182 C.3       5 UNK         0.1400 
     48 CB          2.5103  -15.0941  -45.2913 C.3       5 UNK        -0.1800 
     49 N           0.1595  -14.4643  -45.5278 N.am      5 UNK        -0.5000 
     50 C          -1.1734  -14.4185  -45.3906 C.2       4 UNK         0.5000 
     51 O          -1.8333  -15.3092  -44.8507 O.2       4 UNK        -0.5000 
     52 CA         -1.8789  -13.1768  -45.9832 C.3       4 UNK         0.1400 
     53 CB         -3.2201  -12.8721  -45.2861 C.3       4 UNK        -0.1800 
     54 N          -1.0389  -11.9683  -46.0574 N.am      4 UNK        -0.5000 
     55 C          -0.4670  -11.3162  -45.0319 C.2       3 UNK         0.5000 
     56 O          -0.5356  -11.6928  -43.8615 O.2       3 UNK        -0.5000 
     57 CA          0.3239  -10.0408  -45.3830 C.3       3 UNK         0.1400 
     58 CB          1.3654   -9.6661  -44.3107 C.3       3 UNK        -0.1800 
     59 N           0.9866  -10.1521  -46.6865 N.am      3 UNK        -0.5000 
     60 C           1.1278   -9.1450  -47.5597 C.2       2 UNK         0.5000 
     61 O           0.6474   -8.0233  -47.3924 O.2       2 UNK        -0.5000 
     62 CA          1.9571   -9.4240  -48.8308 C.3       2 UNK         0.1400 
     63 CB          3.4097   -8.9654  -48.6297 C.3       2 UNK        -0.1800 
     64 N           1.9570  -10.8313  -49.2427 N.am      2 UNK        -0.5000 
     65 C           0.9092  -11.4476  -49.8039 C.2       1 UNK         0.5000 
     66 O          -0.1744  -10.8972  -50.0098 O.2       1 UNK        -0.5000 
     67 C          -1.1073  -23.3479  -47.8043 C.2       11 UNK         0.5000 
     68 O          -1.2063  -24.1778  -48.7122 O.2       11 UNK        -0.5000 
     69 N          -2.1348  -22.6147  -47.3497 N.am      12 UNK        -0.5000 
     70 CA         -3.5248  -22.7492  -47.7772 C.3       12 UNK         0.1400 
     71 CB         -4.3484  -21.5985  -47.1780 C.3       12 UNK        -0.1800 
     72 C          -4.1142  -24.1173  -47.3939 C.2       12 UNK         0.5000 
     73 O          -4.6430  -24.8152  -48.2588 O.2       12 UNK        -0.5000 
     74 N          -3.9700  -24.4849  -46.1127 N.am      13 UNK        -0.5000 
     75 CA         -4.4714  -25.7325  -45.5297 C.3       13 UNK         0.1400 
     76 CB         -4.3582  -25.6553  -44.0003 C.3       13 UNK        -0.1800 
     77 C          -3.7572  -26.9876  -46.0641 C.2       13 UNK         0.5000 
     78 O          -4.3974  -28.0254  -46.2334 O.2       13 UNK        -0.5000 
     79 N          -2.4556  -26.8604  -46.3551 N.am      14 UNK        -0.5000 
     80 CA         -1.6209  -27.8897  -46.9795 C.3       14 UNK         0.1400 
     81 CB         -0.1450  -27.4906  -46.8163 C.3       14 UNK        -0.1800 
     82 C          -1.9421  -28.1327  -48.4689 C.2       14 UNK         0.5000 
     83 O          -1.4199  -29.0886  -49.0432 O.2       14 UNK        -0.5000 
     84 N          -2.7648  -27.2583  -49.0695 N.am      15 UNK        -0.5000 
     85 CA         -3.1657  -27.2290  -50.4791 C.3       15 UNK         0.1400 
     86 CB         -3.9309  -28.5075  -50.8786 C.3       15 UNK        -0.1800 
     87 C          -2.0054  -26.8921  -51.4389 C.2       15 UNK         0.5000 
     88 O          -2.0854  -27.1995  -52.6289 O.2       15 UNK        -0.5000 
     89 N          -0.9586  -26.2439  -50.9117 N.am      16 UNK        -0.5000 
     90 CA          0.1782  -25.7414  -51.6776 C.3       16 UNK         0.1400 
     91 CB          1.4193  -25.6998  -50.7748 C.3       16 UNK        -0.1800 
     92 C          -0.1507  -24.3662  -52.2818 C.2       16 UNK         0.5000 
     93 O           0.0557  -24.1637  -53.4787 O.2       16 UNK        -0.5000 
     94 N          -0.7156  -23.4728  -51.4575 N.am      17 UNK        -0.5000 
     95 CA         -1.3320  -22.2226  -51.9047 C.3       17 UNK         0.1400 
     96 CB         -1.2907  -21.1838  -50.7731 C.3       17 UNK        -0.1800 
     97 C          -2.7838  -22.4613  -52.3533 C.2       17 UNK         0.5000 
     98 O          -3.2394  -21.8321  -53.3069 O.2       17 UNK        -0.5000 
     99 N          -3.4749  -23.3717  -51.6461 N.am      18 UNK        -0.5000 
    100 CA        -4.8505  -23.8408  -51.8704 C.3       18 UNK         0.1400 
    101 CB        -4.9535  -24.5912  -53.2136 C.3       18 UNK        -0.1800 
    102 C         -5.9510  -22.7688  -51.7136 C.2       18 UNK         0.5000 
    103 O         -7.1070  -23.0357  -52.0460 O.2       18 UNK        -0.5000 
    104 N         -5.5963  -21.5955  -51.1832 N.am      19 UNK        -0.5000 
    105 CA        -6.4799  -20.4693  -50.9237 C.3       19 UNK         0.1400 
    106 CB        -6.7870  -19.7218  -52.2338 C.3       19 UNK        -0.1800 
    107 C         -5.7835  -19.5424  -49.9242 C.2       19 UNK         0.5000 
    108 O         -4.5488  -19.4931  -49.8923 O.2       19 UNK        -0.5000 
    109 N         -6.5846  -18.8062  -49.1442 N.am      20 UNK        -0.5000 
    110 CA        -6.1188  -17.7690  -48.2247 C.3       20 UNK         0.1400 
    111 CB        -7.3081  -17.2165  -47.4263 C.3       20 UNK        -0.1800 
    112 C         -5.4022  -16.6459  -48.9932 C.2       20 UNK         0.5000 
    113 O         -5.9080  -16.1909  -50.0231 O.2       20 UNK        -0.5000 
    114 N         -4.2073  -16.2780  -48.5133 N.am      21 UNK        -0.5000 
    115 CA        -3.2673  -15.3361  -49.1349 C.3       21 UNK         0.1400 
    116 CB        -3.8525  -13.9077  -49.1315 C.3       21 UNK        -0.1800 
    117 C         -2.7837  -15.7556  -50.5437 C.2       21 UNK         0.5000 
    118 O         -2.2560  -14.9109  -51.2670 O.2       21 UNK        -0.5000 
    119 N         -2.9648  -17.0356  -50.9066 N.am      22 UNK        -0.5000 
    120 CA        -2.7372  -17.5902  -52.2517 C.3       22 UNK         0.1400 
    121 C         -3.7711  -17.1098  -53.3176 C.2       22 UNK         0.5000 
    122 N         -4.9208  -16.5681  -52.9255 N.am      22 UNK        -0.7600 
    123 O         -3.5500  -17.2498  -54.5170 O.2       22 UNK        -0.5000 
    124 C124       -1.2519  -17.4662  -52.7076 C.3       23 UNK        -0.0398 
    125 S125       -0.6159  -18.9703  -53.5329 S.3       23 UNK        -0.2404 
    126 C126        1.1988  -18.7580  -53.4807 C.3       23 UNK        -0.0205 
    127 H127        1.7922  -11.2311  -52.5519 H         1 UNK         0.0600 
    128 H128        2.6947  -12.7579  -52.5820 H         1 UNK         0.0600 
    129 H129        1.9113  -12.1635  -54.0374 H         1 UNK         0.0600 
    130 H130       -0.5688  -13.8305  -51.1196 H         1 UNK         0.3000 
    131 H131        2.1369  -13.1172  -50.3859 H         1 UNK         0.0600 
    132 H132       -0.1842  -13.4502  -48.4500 H         1 UNK         0.0800 
    133 H133        1.5222  -13.6277  -48.1147 H         1 UNK         0.0800 
    134 H134        2.7470  -16.2458  -48.3474 H         1 UNK         0.0800 
    135 H135        2.8814  -15.4345  -49.8964 H         1 UNK         0.0800 
    136 H136        1.5768  -16.6136  -51.8769 H         1 UNK         0.1150 
    137 H137        2.1110  -20.8637  -51.9544 H         1 UNK         0.1150 
    138 H138        3.0350  -18.6389  -48.3999 H         1 UNK         0.1150 
    139 H139        3.9904  -21.5465  -50.0786 H         1 UNK         0.0800 
    140 H140        3.6343  -20.9422  -48.4859 H         1 UNK         0.0800 
    141 H141        1.7859  -21.5756  -47.0651 H         1 UNK         0.0800 
    142 H142        0.3959  -21.1228  -48.0149 H         1 UNK         0.0800 
    143 H143        0.8267  -24.0426  -47.1936 H         1 UNK         0.0600 
    144 H144        0.2496  -21.9422  -45.3401 H         1 UNK         0.3000 
    145 H145       -1.7398  -22.8155  -43.3501 H         1 UNK         0.0600 
    146 H146       -0.8060  -23.8893  -41.2815 H         1 UNK         0.0600 
    147 H147       -1.3820  -25.0695  -42.4443 H         1 UNK         0.0600 
    148 H148        0.3400  -24.7898  -42.2743 H         1 UNK         0.0600 
    149 H149       -0.3595  -21.1668  -42.9019 H         1 UNK         0.3000 
    150 H150        2.7368  -20.7802  -41.6649 H         1 UNK         0.0600 
    151 H151        3.8022  -20.9735  -43.8981 H         1 UNK         0.0600 
    152 H152        3.4957  -19.2842  -43.5282 H         1 UNK         0.0600 
    153 H153        2.4464  -20.1448  -44.6529 H         1 UNK         0.0600 
    154 H154        0.9909  -18.9415  -43.0718 H         1 UNK         0.3000 
    155 H155       -1.1959  -18.3898  -40.2838 H         1 UNK         0.0600 
    156 H156       -0.5097  -16.0685  -40.8602 H         1 UNK         0.0600 
    157 H157        0.8900  -16.6799  -41.7418 H         1 UNK         0.0600 
    158 H158        0.7762  -16.9025  -40.0015 H         1 UNK         0.0600 
    159 H159       -1.1466  -17.3966  -42.9772 H         1 UNK         0.3000 
    160 H160       -3.5534  -19.6777  -44.2960 H         1 UNK         0.0600 
    161 H161       -3.7377  -16.7310  -43.4751 H         1 UNK         0.0600 
    162 H162       -4.8685  -18.0009  -43.0249 H         1 UNK         0.0600 
    163 H163       -4.7169  -17.5225  -44.7088 H         1 UNK         0.0600 
    164 H164       -2.0403  -17.3201  -45.1755 H         1 UNK         0.3000 
    165 H165        0.5136  -19.2075  -46.7289 H         1 UNK         0.0600 
    166 H166       -1.7342  -17.7759  -48.2342 H         1 UNK         0.0600 
    167 H167       -0.2174  -18.3829  -48.8955 H         1 UNK         0.0600 
    168 H168       -1.4532  -19.5012  -48.3643 H         1 UNK         0.0600 
    169 H169       -0.0890  -16.4709  -47.0120 H         1 UNK         0.3000 
    170 H170        0.9630  -15.3259  -43.8374 H         1 UNK         0.0600 
    171 H171        3.2110  -15.8133  -44.8644 H         1 UNK         0.0600 
    172 H172        2.6598  -15.0897  -46.3696 H         1 UNK         0.0600 
    173 H173        2.7880  -14.1107  -44.9116 H         1 UNK         0.0600 
    174 H174        0.6036  -13.6737  -45.9649 H         1 UNK         0.3000 
    175 H175       -2.1056  -13.4390  -47.0139 H         1 UNK         0.0600 
    176 H176       -3.7167  -12.0166  -45.7438 H         1 UNK         0.0600 
    177 H177       -3.9039  -13.7186  -45.3610 H         1 UNK         0.0600 
    178 H178       -3.0846  -12.6548  -44.2263 H         1 UNK         0.0600 
    179 H179       -0.9524  -11.5483  -46.9726 H         1 UNK         0.3000 
    180 H180       -0.4206   -9.2430  -45.4208 H         1 UNK         0.0600 
    181 H181        1.8758   -8.7368  -44.5642 H         1 UNK         0.0600 
    182 H182        0.8962   -9.5184  -43.3374 H         1 UNK         0.0600 
    183 H183        2.1216  -10.4438  -44.1992 H         1 UNK         0.0600 
    184 H184        1.4349  -11.0321  -46.8917 H         1 UNK         0.3000 
    185 H185        1.5254   -8.8295  -49.6391 H         1 UNK         0.0600 
    186 H186        3.9905   -9.0806  -49.5451 H         1 UNK         0.0600 
    187 H187        3.4519   -7.9115  -48.3512 H         1 UNK         0.0600 
    188 H188        3.9065   -9.5326  -47.8417 H         1 UNK         0.0600 
    189 H189        2.8209  -11.3362  -49.1043 H         1 UNK         0.3000 
    190 H190       -1.9473  -21.9303  -46.6219 H         1 UNK         0.3000 
    191 H191       -3.5642  -22.6624  -48.8632 H         1 UNK         0.0600 
    192 H192       -5.3866  -21.6463  -47.5086 H         1 UNK         0.0600 
    193 H193       -3.9519  -20.6312  -47.4870 H         1 UNK         0.0600 
    194 H194       -4.3468  -21.6202  -46.0877 H         1 UNK         0.0600 
    195 H195       -3.4832  -23.8616  -45.4876 H         1 UNK         0.3000 
    196 H196       -5.5287  -25.8205  -45.7887 H         1 UNK         0.0600 
    197 H197       -4.7589  -26.5558  -43.5332 H         1 UNK         0.0600 
    198 H198       -4.9172  -24.8076  -43.6038 H         1 UNK         0.0600 
    199 H199       -3.3213  -25.5545  -43.6813 H         1 UNK         0.0600 
    200 H200       -1.9822  -25.9983  -46.0968 H         1 UNK         0.3000 
    201 H201       -1.7838  -28.8315  -46.4519 H         1 UNK         0.0600 
    202 H202        0.1207  -27.3848  -45.7644 H         1 UNK         0.0600 
    203 H203        0.0711  -26.5441  -47.3136 H         1 UNK         0.0600 
    204 H204        0.5179  -28.2447  -47.2422 H         1 UNK         0.0600 
    205 H205       -3.1418  -26.5091  -48.5026 H         1 UNK         0.3000 
    206 H206       -3.8671  -26.4014  -50.5608 H         1 UNK         0.0600 
    207 H207       -4.7368  -28.7201  -50.1760 H         1 UNK         0.0600 
    208 H208       -4.3830  -28.3988  -51.8651 H         1 UNK         0.0600 
    209 H209       -3.2774  -29.3792  -50.9156 H         1 UNK         0.0600 
    210 H210       -0.9969  -25.9821  -49.9346 H         1 UNK         0.3000 
    211 H211        0.3924  -26.4237  -52.5031 H         1 UNK         0.0600 
    212 H212        1.2158  -25.1911  -49.8335 H         1 UNK         0.0600 
    213 H213        2.2480  -25.1846  -51.2622 H         1 UNK         0.0600 
    214 H214        1.7574  -26.7076  -50.5340 H         1 UNK         0.0600 
    215 H215       -0.8205  -23.7171  -50.4770 H         1 UNK         0.3000 
    216 H216       -0.7715  -21.8259  -52.7531 H         1 UNK         0.0600 
    217 H217       -0.2689  -20.9625  -50.4736 H         1 UNK         0.0600 
    218 H218       -1.8377  -21.5121  -49.8941 H         1 UNK         0.0600 
    219 H219       -1.7385  -20.2429  -51.0859 H         1 UNK         0.0600 
    220 H220       -2.9921  -23.8135  -50.8780 H         1 UNK         0.3000 
    221 H221       -5.0539  -24.5596  -51.0776 H         1 UNK         0.0600 
    222 H222       -4.8315  -23.9179  -54.0623 H         1 UNK         0.0600 
    223 H223       -4.1939  -25.3688  -53.2915 H         1 UNK         0.0600 
    224 H224       -5.9237  -25.0775  -53.3200 H         1 UNK         0.0600 
    225 H225       -4.6327  -21.4316  -50.9238 H         1 UNK         0.3000 
    226 H226       -7.4076  -20.8341  -50.4778 H         1 UNK         0.0600 
    227 H227       -7.3889  -18.8313  -52.0486 H         1 UNK         0.0600 
    228 H228       -5.8717  -19.4022  -52.7334 H         1 UNK         0.0600 
    229 H229       -7.3437  -20.3496  -52.9293 H         1 UNK         0.0600 
    230 H230       -7.5846  -18.8822  -49.2592 H         1 UNK         0.3000 
    231 H231       -5.4185  -18.2317  -47.5256 H         1 UNK         0.0600 
    232 H232       -6.9808  -16.4554  -46.7167 H         1 UNK         0.0600 
    233 H233       -7.7994  -18.0036  -46.8541 H         1 UNK         0.0600 
    234 H234       -8.0532  -16.7590  -48.0784 H         1 UNK         0.0600 
    235 H235       -3.8801  -16.7221  -47.6678 H         1 UNK         0.3000 
    236 H236       -2.3812  -15.3345  -48.5006 H         1 UNK         0.0600 
    237 H237       -4.6645  -13.8030  -49.8518 H         1 UNK         0.0600 
    238 H238       -4.2441  -13.6389  -48.1508 H         1 UNK         0.0600 
    239 H239       -3.0915  -13.1713  -49.3929 H         1 UNK         0.0600 
    240 H240       -3.4182  -17.6694  -50.2598 H         1 UNK         0.3000 
    241 H241       -2.9659  -18.6491  -52.1365 H         1 UNK         0.0600 
    242 H242       -5.5836  -16.2662  -53.6212 H         1 UNK         0.3800 
    243 H243       -5.1361  -16.4435  -51.9429 H         1 UNK         0.3800 
    244 H244       -0.6409  -17.2964  -51.8254 H         1 UNK         0.0800 
    245 H245       -1.0952  -16.5955  -53.3467 H         1 UNK         0.0800 
    246 H246        1.6606  -19.5685  -54.0462 H         1 UNK         0.0800 
    247 H247        1.4660  -17.8366  -54.0004 H         1 UNK         0.0800 
@<TRIPOS>BOND
     1    1    2 1    
     2    1  127 1    
     3    1  128 1    
     4    1  129 1    
     5    2    3 2    
     6    2    4 am   BACKBONE|DICT|INTERRES
     7    4    5 1    
     8    4  130 1    
     9    5    6 1    
    10    5   65 1    
    11    5  131 1    
    12    6    7 1    
    13    6  132 1    
    14    6  133 1    
    15    7    8 1    
    16    8    9 1    
    17    8  134 1    
    18    8  135 1    
    19    9   10 ar   
    20    9   14 ar   
    21   10   11 ar   
    22   10  136 1    
    23   11   12 ar   
    24   11  126 1    
    25   12   13 ar   
    26   12  137 1    
    27   13   14 ar   
    28   13   15 1    
    29   14  138 1    
    30   15   16 1    
    31   15  139 1    
    32   15  140 1    
    33   16   17 1    
    34   17   18 1    
    35   17  141 1    
    36   17  142 1    
    37   18   19 1    
    38   18   67 1    
    39   18  143 1    
    40   19   20 am   BACKBONE|DICT|INTERRES
    41   19  144 1    
    42   20   21 2    
    43   20   22 1    
    44   22   23 1    
    45   22   24 1    
    46   22  145 1    
    47   23  146 1    
    48   23  147 1    
    49   23  148 1    
    50   24   25 am   BACKBONE|DICT|INTERRES
    51   24  149 1    
    52   25   26 2    
    53   25   27 1    
    54   27   28 1    
    55   27   29 1    
    56   27  150 1    
    57   28  151 1    
    58   28  152 1    
    59   28  153 1    
    60   29   30 am   BACKBONE|DICT|INTERRES
    61   29  154 1    
    62   30   31 2    
    63   30   32 1    
    64   32   33 1    
    65   32   34 1    
    66   32  155 1    
    67   33  156 1    
    68   33  157 1    
    69   33  158 1    
    70   34   35 am   BACKBONE|DICT|INTERRES
    71   34  159 1    
    72   35   36 2    
    73   35   37 1    
    74   37   38 1    
    75   37   39 1    
    76   37  160 1    
    77   38  161 1    
    78   38  162 1    
    79   38  163 1    
    80   39   40 am   BACKBONE|DICT|INTERRES
    81   39  164 1    
    82   40   41 2    
    83   40   42 1    
    84   42   43 1    
    85   42   44 1    
    86   42  165 1    
    87   43  166 1    
    88   43  167 1    
    89   43  168 1    
    90   44   45 am   BACKBONE|DICT|INTERRES
    91   44  169 1    
    92   45   46 2    
    93   45   47 1    
    94   47   48 1    
    95   47   49 1    
    96   47  170 1    
    97   48  171 1    
    98   48  172 1    
    99   48  173 1    
   100   49   50 am   BACKBONE|DICT|INTERRES
   101   49  174 1    
   102   50   51 2    
   103   50   52 1    
   104   52   53 1    
   105   52   54 1    
   106   52  175 1    
   107   53  176 1    
   108   53  177 1    
   109   53  178 1    
   110   54   55 am   BACKBONE|DICT|INTERRES
   111   54  179 1    
   112   55   56 2    
   113   55   57 1    
   114   57   58 1    
   115   57   59 1    
   116   57  180 1    
   117   58  181 1    
   118   58  182 1    
   119   58  183 1    
   120   59   60 am   BACKBONE|DICT|INTERRES
   121   59  184 1    
   122   60   61 2    
   123   60   62 1    
   124   62   63 1    
   125   62   64 1    
   126   62  185 1    
   127   63  186 1    
   128   63  187 1    
   129   63  188 1    
   130   64   65 am   BACKBONE|DICT|INTERRES
   131   64  189 1    
   132   65   66 2    
   133   67   68 2    
   134   67   69 am   BACKBONE|DICT|INTERRES
   135   69   70 1    
   136   69  190 1    
   137   70   71 1    
   138   70   72 1    
   139   70  191 1    
   140   71  192 1    
   141   71  193 1    
   142   71  194 1    
   143   72   73 2    
   144   72   74 am   BACKBONE|DICT|INTERRES
   145   74   75 1    
   146   74  195 1    
   147   75   76 1    
   148   75   77 1    
   149   75  196 1    
   150   76  197 1    
   151   76  198 1    
   152   76  199 1    
   153   77   78 2    
   154   77   79 am   BACKBONE|DICT|INTERRES
   155   79   80 1    
   156   79  200 1    
   157   80   81 1    
   158   80   82 1    
   159   80  201 1    
   160   81  202 1    
   161   81  203 1    
   162   81  204 1    
   163   82   83 2    
   164   82   84 am   BACKBONE|DICT|INTERRES
   165   84   85 1    
   166   84  205 1    
   167   85   86 1    
   168   85   87 1    
   169   85  206 1    
   170   86  207 1    
   171   86  208 1    
   172   86  209 1    
   173   87   88 2    
   174   87   89 am   BACKBONE|DICT|INTERRES
   175   89   90 1    
   176   89  210 1    
   177   90   91 1    
   178   90   92 1    
   179   90  211 1    
   180   91  212 1    
   181   91  213 1    
   182   91  214 1    
   183   92   93 2    
   184   92   94 am   BACKBONE|DICT|INTERRES
   185   94   95 1    
   186   94  215 1    
   187   95   96 1    
   188   95   97 1    
   189   95  216 1    
   190   96  217 1    
   191   96  218 1    
   192   96  219 1    
   193   97   98 2    
   194   97   99 am   BACKBONE|DICT|INTERRES
   195   99  100 1    
   196   99  220 1    
   197  100  101 1    
   198  100  102 1    
   199  100  221 1    
   200  101  222 1    
   201  101  223 1    
   202  101  224 1    
   203  102  103 2    
   204  102  104 am   BACKBONE|DICT|INTERRES
   205  104  105 1    
   206  104  225 1    
   207  105  106 1    
   208  105  107 1    
   209  105  226 1    
   210  106  227 1    
   211  106  228 1    
   212  106  229 1    
   213  107  108 2    
   214  107  109 am   BACKBONE|DICT|INTERRES
   215  109  110 1    
   216  109  230 1    
   217  110  111 1    
   218  110  112 1    
   219  110  231 1    
   220  111  232 1    
   221  111  233 1    
   222  111  234 1    
   223  112  113 2    
   224  112  114 am   BACKBONE|DICT|INTERRES
   225  114  115 1    
   226  114  235 1    
   227  115  116 1    
   228  115  117 1    
   229  115  236 1    
   230  116  237 1    
   231  116  238 1    
   232  116  239 1    
   233  117  118 2    
   234  117  119 am   BACKBONE|DICT|INTERRES
   235  119  120 1    
   236  119  240 1    
   237  120  121 1    
   238  120  124 1    
   239  120  241 1    
   240  121  122 am   BACKBONE|DICT|INTERRES
   241  121  123 2    
   242  122  242 1    
   243  122  243 1    
   244  124  125 1    
   245  124  244 1    
   246  124  245 1    
   247  125  126 1    
   248  126  246 1    
   249  126  247 1    
@<TRIPOS>SUBSTRUCTURE
     1 UNK         1 GROUP             0       ****    0 ROOT    
