@<TRIPOS>MOLECULE
3R540
247   249    1
SMALL
USER_CHARGES


@<TRIPOS>ATOM
      1 CA          1.3126   -9.4700  -50.1819 C.3       0 UNK        -0.1800 
      2 C           1.5870  -10.2963  -48.9333 C.2       0 UNK         0.5000 
      3 O           0.8779  -10.1424  -47.9402 O.2       0 UNK        -0.5000 
      4 N           2.6271  -11.1410  -48.9861 N.am      1 UNK        -0.5000 
      5 CA          3.1269  -12.1260  -48.0063 C.3       1 UNK         0.1400 
      6 C6          2.3160  -13.4492  -47.9569 C.3       23 UNK        -0.0398 
      7 S7          0.5969  -13.3451  -47.3455 S.3       23 UNK        -0.2404 
      8 C8          0.0599  -15.0894  -47.3837 C.3       23 UNK        -0.0205 
      9 C9          0.2836  -15.7506  -48.7373 C.ar      23 UNK        -0.0193 
     10 C10        -0.6300  -15.5703  -49.7800 C.ar      23 UNK        -0.1150 
     11 C11        -0.3965  -16.1416  -51.0361 C.ar      23 UNK        -0.0193 
     12 C12         0.7547  -16.9083  -51.2376 C.ar      23 UNK        -0.1150 
     13 C13         1.6721  -17.1065  -50.2009 C.ar      23 UNK        -0.0193 
     14 C14         1.4251  -16.5272  -48.9527 C.ar      23 UNK        -0.1150 
     15 C15         2.9522  -17.8979  -50.4559 C.3       23 UNK        -0.0205 
     16 S16         3.3345  -19.1132  -49.1508 S.3       23 UNK        -0.2404 
     17 C17         1.8874  -20.2103  -49.2834 C.3       23 UNK        -0.0398 
     18 CA          2.1869  -21.6561  -48.8237 C.3       11 UNK         0.1400 
     19 N           2.5193  -21.7079  -47.3942 N.am      11 UNK        -0.5000 
     20 C           3.1305  -22.7299  -46.7809 C.2       10 UNK         0.5000 
     21 O           3.4932  -23.7559  -47.3568 O.2       10 UNK        -0.5000 
     22 CA          3.3493  -22.5904  -45.2642 C.3       10 UNK         0.1400 
     23 CB          4.5907  -21.7359  -44.9634 C.3       10 UNK        -0.1800 
     24 N           2.1830  -22.0117  -44.5955 N.am      10 UNK        -0.5000 
     25 C           1.0707  -22.6937  -44.2881 C.2       9 UNK         0.5000 
     26 O           0.9192  -23.8927  -44.5217 O.2       9 UNK        -0.5000 
     27 CA         -0.0742  -21.9047  -43.6225 C.3       9 UNK         0.1400 
     28 CB          0.1066  -21.8746  -42.0979 C.3       9 UNK        -0.1800 
     29 N          -0.1912  -20.5344  -44.1193 N.am      9 UNK        -0.5000 
     30 C          -0.5353  -20.2098  -45.3718 C.2       8 UNK         0.5000 
     31 O          -0.8779  -21.0325  -46.2196 O.2       8 UNK        -0.5000 
     32 CA         -0.4542  -18.7245  -45.7606 C.3       8 UNK         0.1400 
     33 CB         -1.7894  -18.0263  -45.4707 C.3       8 UNK        -0.1800 
     34 N           0.6352  -18.0070  -45.0989 N.am      8 UNK        -0.5000 
     35 C           1.9355  -18.3041  -45.2315 C.2       7 UNK         0.5000 
     36 O           2.3508  -19.2460  -45.9042 O.2       7 UNK        -0.5000 
     37 CA          2.9315  -17.4386  -44.4456 C.3       7 UNK         0.1400 
     38 CB          3.2436  -16.1325  -45.1906 C.3       7 UNK        -0.1800 
     39 N           2.4320  -17.1455  -43.1032 N.am      7 UNK        -0.5000 
     40 C           2.5053  -18.0066  -42.0788 C.2       6 UNK         0.5000 
     41 O           3.0794  -19.0943  -42.1398 O.2       6 UNK        -0.5000 
     42 CA          1.7892  -17.6023  -40.7767 C.3       6 UNK         0.1400 
     43 CB          2.7118  -16.7647  -39.8804 C.3       6 UNK        -0.1800 
     44 N           0.5451  -16.8685  -41.0132 N.am      6 UNK        -0.5000 
     45 C          -0.5563  -17.4138  -41.5486 C.2       5 UNK         0.5000 
     46 O          -0.6320  -18.5895  -41.9049 O.2       5 UNK        -0.5000 
     47 CA         -1.7671  -16.4839  -41.7551 C.3       5 UNK         0.1400 
     48 CB         -2.6316  -16.4448  -40.4864 C.3       5 UNK        -0.1800 
     49 N          -1.4235  -15.1139  -42.1434 N.am      5 UNK        -0.5000 
     50 C          -0.6597  -14.7529  -43.1840 C.2       4 UNK         0.5000 
     51 O          -0.0928  -15.5537  -43.9280 O.2       4 UNK        -0.5000 
     52 CA         -0.4646  -13.2454  -43.4319 C.3       4 UNK         0.1400 
     53 CB         -1.3757  -12.3362  -42.5771 C.3       4 UNK        -0.1800 
     54 N           0.9355  -12.8492  -43.2736 N.am      4 UNK        -0.5000 
     55 C           1.7149  -13.0053  -42.1916 C.2       3 UNK         0.5000 
     56 O           1.3581  -13.5875  -41.1657 O.2       3 UNK        -0.5000 
     57 CA          3.1362  -12.4092  -42.2604 C.3       3 UNK         0.1400 
     58 CB          4.2015  -13.5136  -42.2048 C.3       3 UNK        -0.1800 
     59 N           3.3638  -11.5953  -43.4568 N.am      3 UNK        -0.5000 
     60 C           2.9579  -10.3322  -43.6246 C.2       2 UNK         0.5000 
     61 O           2.3399   -9.6992  -42.7680 O.2       2 UNK        -0.5000 
     62 CA          3.2794   -9.6606  -44.9740 C.3       2 UNK         0.1400 
     63 CB          4.7311   -9.1465  -45.0015 C.3       2 UNK        -0.1800 
     64 N           2.9807  -10.4655  -46.1674 N.am      2 UNK        -0.5000 
     65 C           3.5331  -11.6040  -46.6057 C.2       1 UNK         0.5000 
     66 O           4.3782  -12.2337  -45.9674 O.2       1 UNK        -0.5000 
     67 C           1.0004  -22.5703  -49.2012 C.2       11 UNK         0.5000 
     68 O           0.8018  -22.8345  -50.3875 O.2       11 UNK        -0.5000 
     69 N           0.2121  -22.9917  -48.2015 N.am      12 UNK        -0.5000 
     70 CA         -1.0695  -23.6977  -48.3076 C.3       12 UNK         0.1400 
     71 CB         -0.9338  -25.0414  -49.0521 C.3       12 UNK        -0.1800 
     72 C          -2.2007  -22.8113  -48.8700 C.2       12 UNK         0.5000 
     73 O          -3.2401  -23.3250  -49.2768 O.2       12 UNK        -0.5000 
     74 N          -2.0229  -21.4847  -48.8135 N.am      13 UNK        -0.5000 
     75 CA         -3.0476  -20.4906  -49.1322 C.3       13 UNK         0.1400 
     76 CB         -2.3957  -19.1059  -49.2528 C.3       13 UNK        -0.1800 
     77 C          -4.1846  -20.4727  -48.0904 C.2       13 UNK         0.5000 
     78 O          -5.2948  -20.0489  -48.4076 O.2       13 UNK        -0.5000 
     79 N          -3.8906  -20.9586  -46.8762 N.am      14 UNK        -0.5000 
     80 CA         -4.8523  -21.1734  -45.7966 C.3       14 UNK         0.1400 
     81 CB         -4.0864  -21.1926  -44.4633 C.3       14 UNK        -0.1800 
     82 C          -5.6831  -22.4659  -45.9613 C.2       14 UNK         0.5000 
     83 O          -6.6524  -22.6448  -45.2220 O.2       14 UNK        -0.5000 
     84 N          -5.2938  -23.3550  -46.8886 N.am      15 UNK        -0.5000 
     85 CA         -5.9861  -24.6143  -47.1726 C.3       15 UNK         0.1400 
     86 CB         -5.0064  -25.5838  -47.8578 C.3       15 UNK        -0.1800 
     87 C          -7.2415  -24.4023  -48.0415 C.2       15 UNK         0.5000 
     88 O          -7.4952  -23.2931  -48.5209 O.2       15 UNK        -0.5000 
     89 N          -7.9968  -25.4903  -48.2497 N.am      16 UNK        -0.5000 
     90 CA         -9.1833  -25.5512  -49.1065 C.3       16 UNK         0.1400 
     91 CB         -9.7435  -26.9815  -49.0953 C.3       16 UNK        -0.1800 
     92 C          -8.8760  -25.0978  -50.5460 C.2       16 UNK         0.5000 
     93 O          -7.9218  -25.5937  -51.1517 O.2       16 UNK        -0.5000 
     94 N          -9.6534  -24.1188  -51.0315 N.am      17 UNK        -0.5000 
     95 CA         -9.5084  -23.4288  -52.3216 C.3       17 UNK         0.1400 
     96 CB         -9.8375  -24.3898  -53.4837 C.3       17 UNK        -0.1800 
     97 C          -8.1387  -22.7356  -52.5101 C.2       17 UNK         0.5000 
     98 O          -7.7134  -22.5297  -53.6478 O.2       17 UNK        -0.5000 
     99 N          -7.4459  -22.4331  -51.3992 N.am      18 UNK        -0.5000 
    100 CA        -6.0732  -21.9196  -51.3233 C.3       18 UNK         0.1400 
    101 CB        -6.0183  -20.4698  -51.8481 C.3       18 UNK        -0.1800 
    102 C         -5.0472  -22.8501  -52.0088 C.2       18 UNK         0.5000 
    103 O         -4.0646  -22.3730  -52.5817 O.2       18 UNK        -0.5000 
    104 N         -5.3355  -24.1621  -52.0020 N.am      19 UNK        -0.5000 
    105 CA        -4.6237  -25.2312  -52.7119 C.3       19 UNK         0.1400 
    106 CB        -3.1985  -25.4069  -52.1483 C.3       19 UNK        -0.1800 
    107 C         -4.6401  -25.0734  -54.2512 C.2       19 UNK         0.5000 
    108 O         -3.8203  -25.6885  -54.9339 O.2       19 UNK        -0.5000 
    109 N         -5.5663  -24.2481  -54.7676 N.am      20 UNK        -0.5000 
    110 CA        -5.7833  -23.8815  -56.1712 C.3       20 UNK         0.1400 
    111 CB        -6.2041  -25.1137  -56.9988 C.3       20 UNK        -0.1800 
    112 C         -4.6180  -23.1017  -56.8220 C.2       20 UNK         0.5000 
    113 O         -4.5960  -22.9704  -58.0474 O.2       20 UNK        -0.5000 
    114 N         -3.6788  -22.5892  -56.0144 N.am      21 UNK        -0.5000 
    115 CA        -2.4660  -21.9123  -56.4849 C.3       21 UNK         0.1400 
    116 CB        -1.3739  -22.9673  -56.7469 C.3       21 UNK        -0.1800 
    117 C         -1.9610  -20.8152  -55.5283 C.2       21 UNK         0.5000 
    118 O         -0.9323  -20.2030  -55.8192 O.2       21 UNK        -0.5000 
    119 N         -2.6638  -20.5824  -54.4115 N.am      22 UNK        -0.5000 
    120 CA        -2.2092  -19.7683  -53.2737 C.3       22 UNK         0.1400 
    121 C         -1.0297  -20.4529  -52.5267 C.2       22 UNK         0.5000 
    122 N         -1.2197  -21.6902  -52.0880 N.am      22 UNK        -0.7600 
    123 O          0.0495  -19.8941  -52.3648 O.2       22 UNK        -0.5000 
    124 C124       -1.9912  -18.2646  -53.6208 C.3       23 UNK        -0.0398 
    125 S125       -2.6494  -17.1538  -52.3267 S.3       23 UNK        -0.2404 
    126 C126       -1.3573  -15.8784  -52.1878 C.3       23 UNK        -0.0205 
    127 H127        2.0209   -9.6913  -50.9807 H         1 UNK         0.0600 
    128 H128        1.3815   -8.4070  -49.9511 H         1 UNK         0.0600 
    129 H129        0.3083   -9.6751  -50.5523 H         1 UNK         0.0600 
    130 H130        3.1597  -11.1393  -49.8448 H         1 UNK         0.3000 
    131 H131        4.0872  -12.4089  -48.4410 H         1 UNK         0.0600 
    132 H132        2.8487  -14.1907  -47.3609 H         1 UNK         0.0800 
    133 H133        2.2821  -13.8570  -48.9674 H         1 UNK         0.0800 
    134 H134        0.5832  -15.6408  -46.6042 H         1 UNK         0.0800 
    135 H135       -0.9986  -15.1339  -47.1255 H         1 UNK         0.0800 
    136 H136       -1.5099  -14.9633  -49.6200 H         1 UNK         0.1150 
    137 H137        0.9424  -17.3404  -52.2104 H         1 UNK         0.1150 
    138 H138        2.1370  -16.6639  -48.1524 H         1 UNK         0.1150 
    139 H139        2.8980  -18.4188  -51.4134 H         1 UNK         0.0800 
    140 H140        3.7831  -17.1959  -50.5334 H         1 UNK         0.0800 
    141 H141        1.0679  -19.7774  -48.7071 H         1 UNK         0.0800 
    142 H142        1.5654  -20.2057  -50.3250 H         1 UNK         0.0800 
    143 H143        3.0508  -22.0185  -49.3851 H         1 UNK         0.0600 
    144 H144        2.3319  -20.8637  -46.8576 H         1 UNK         0.3000 
    145 H145        3.5255  -23.5887  -44.8576 H         1 UNK         0.0600 
    146 H146        4.7662  -21.6603  -43.8901 H         1 UNK         0.0600 
    147 H147        4.4953  -20.7241  -45.3578 H         1 UNK         0.0600 
    148 H148        5.4830  -22.1770  -45.4092 H         1 UNK         0.0600 
    149 H149        2.2098  -21.0164  -44.4197 H         1 UNK         0.3000 
    150 H150       -1.0068  -22.4266  -43.8451 H         1 UNK         0.0600 
    151 H151        0.9996  -21.3176  -41.8103 H         1 UNK         0.0600 
    152 H152       -0.7494  -21.4076  -41.6103 H         1 UNK         0.0600 
    153 H153        0.2009  -22.8830  -41.6933 H         1 UNK         0.0600 
    154 H154       -0.0092  -19.7901  -43.4542 H         1 UNK         0.3000 
    155 H155       -0.2586  -18.6725  -46.8324 H         1 UNK         0.0600 
    156 H156       -2.6048  -18.4834  -46.0309 H         1 UNK         0.0600 
    157 H157       -1.7588  -16.9721  -45.7430 H         1 UNK         0.0600 
    158 H158       -2.0483  -18.0952  -44.4161 H         1 UNK         0.0600 
    159 H159        0.3740  -17.1902  -44.5503 H         1 UNK         0.3000 
    160 H160        3.8629  -18.0041  -44.3687 H         1 UNK         0.0600 
    161 H161        2.4155  -15.4251  -45.1446 H         1 UNK         0.0600 
    162 H162        3.4643  -16.3249  -46.2407 H         1 UNK         0.0600 
    163 H163        4.1236  -15.6471  -44.7719 H         1 UNK         0.0600 
    164 H164        1.8750  -16.3086  -42.9954 H         1 UNK         0.3000 
    165 H165        1.5423  -18.5214  -40.2406 H         1 UNK         0.0600 
    166 H166        2.2483  -16.5674  -38.9137 H         1 UNK         0.0600 
    167 H167        3.6523  -17.2837  -39.6908 H         1 UNK         0.0600 
    168 H168        2.9503  -15.8055  -40.3379 H         1 UNK         0.0600 
    169 H169        0.5413  -15.8822  -40.7868 H         1 UNK         0.3000 
    170 H170       -2.3749  -16.9029  -42.5566 H         1 UNK         0.0600 
    171 H171       -2.9249  -17.4506  -40.1821 H         1 UNK         0.0600 
    172 H172       -2.0985  -15.9908  -39.6500 H         1 UNK         0.0600 
    173 H173       -3.5478  -15.8770  -40.6495 H         1 UNK         0.0600 
    174 H174       -1.8142  -14.3796  -41.5716 H         1 UNK         0.3000 
    175 H175       -0.7192  -13.0768  -44.4791 H         1 UNK         0.0600 
    176 H176       -1.1643  -12.4221  -41.5106 H         1 UNK         0.0600 
    177 H177       -1.2425  -11.2897  -42.8520 H         1 UNK         0.0600 
    178 H178       -2.4290  -12.5737  -42.7320 H         1 UNK         0.0600 
    179 H179        1.3496  -12.3938  -44.0734 H         1 UNK         0.3000 
    180 H180        3.2637  -11.7750  -41.3808 H         1 UNK         0.0600 
    181 H181        4.1532  -14.0553  -41.2607 H         1 UNK         0.0600 
    182 H182        5.2065  -13.0990  -42.2850 H         1 UNK         0.0600 
    183 H183        4.0712  -14.2364  -43.0079 H         1 UNK         0.0600 
    184 H184        3.8592  -12.0314  -44.2321 H         1 UNK         0.3000 
    185 H185        2.6273   -8.7887  -45.0465 H         1 UNK         0.0600 
    186 H186        4.9209   -8.4724  -44.1653 H         1 UNK         0.0600 
    187 H187        5.4542   -9.9599  -44.9335 H         1 UNK         0.0600 
    188 H188        4.9351   -8.5925  -45.9178 H         1 UNK         0.0600 
    189 H189        2.2240  -10.1065  -46.7472 H         1 UNK         0.3000 
    190 H190        0.4491  -22.6806  -47.2685 H         1 UNK         0.3000 
    191 H191       -1.3595  -23.9260  -47.2810 H         1 UNK         0.0600 
    192 H192       -1.8389  -25.6392  -48.9397 H         1 UNK         0.0600 
    193 H193       -0.1057  -25.6302  -48.6579 H         1 UNK         0.0600 
    194 H194       -0.7711  -24.9017  -50.1209 H         1 UNK         0.0600 
    195 H195       -1.1841  -21.1476  -48.3621 H         1 UNK         0.3000 
    196 H196       -3.4768  -20.7533  -50.0993 H         1 UNK         0.0600 
    197 H197       -3.1263  -18.3610  -49.5692 H         1 UNK         0.0600 
    198 H198       -1.5889  -19.1024  -49.9852 H         1 UNK         0.0600 
    199 H199       -1.9820  -18.7681  -48.3063 H         1 UNK         0.0600 
    200 H200       -2.9356  -21.2464  -46.6969 H         1 UNK         0.3000 
    201 H201       -5.5520  -20.3353  -45.7762 H         1 UNK         0.0600 
    202 H202       -4.7667  -21.3239  -43.6209 H         1 UNK         0.0600 
    203 H203       -3.5498  -20.2583  -44.2999 H         1 UNK         0.0600 
    204 H204       -3.3618  -22.0067  -44.4297 H         1 UNK         0.0600 
    205 H205       -4.5382  -23.1144  -47.5164 H         1 UNK         0.3000 
    206 H206       -6.2993  -25.0578  -46.2251 H         1 UNK         0.0600 
    207 H207       -4.8188  -25.3038  -48.8948 H         1 UNK         0.0600 
    208 H208       -4.0483  -25.6189  -47.3389 H         1 UNK         0.0600 
    209 H209       -5.4028  -26.5995  -47.8683 H         1 UNK         0.0600 
    210 H210       -7.7040  -26.3659  -47.8419 H         1 UNK         0.3000 
    211 H211       -9.9336  -24.8856  -48.6750 H         1 UNK         0.0600 
    212 H212       -9.0199  -27.7000  -49.4830 H         1 UNK         0.0600 
    213 H213      -10.6403  -27.0540  -49.7121 H         1 UNK         0.0600 
    214 H214      -10.0179  -27.2913  -48.0867 H         1 UNK         0.0600 
    215 H215      -10.3922  -23.7637  -50.4398 H         1 UNK         0.3000 
    216 H216      -10.2527  -22.6314  -52.3292 H         1 UNK         0.0600 
    217 H217      -10.8052  -24.8695  -53.3371 H         1 UNK         0.0600 
    218 H218       -9.0863  -25.1736  -53.5862 H         1 UNK         0.0600 
    219 H219       -9.8834  -23.8565  -54.4340 H         1 UNK         0.0600 
    220 H220       -7.8513  -22.6738  -50.5007 H         1 UNK         0.3000 
    221 H221       -5.8118  -21.9102  -50.2656 H         1 UNK         0.0600 
    222 H222       -5.0704  -19.9960  -51.6019 H         1 UNK         0.0600 
    223 H223       -6.1384  -20.4237  -52.9309 H         1 UNK         0.0600 
    224 H224       -6.8007  -19.8597  -51.3972 H         1 UNK         0.0600 
    225 H225       -6.1898  -24.4581  -51.5415 H         1 UNK         0.3000 
    226 H226       -5.1766  -26.1472  -52.4999 H         1 UNK         0.0600 
    227 H227       -3.2200  -25.5271  -51.0655 H         1 UNK         0.0600 
    228 H228       -2.7182  -26.2941  -52.5618 H         1 UNK         0.0600 
    229 H229       -2.5595  -24.5540  -52.3770 H         1 UNK         0.0600 
    230 H230       -6.1877  -23.7733  -54.1206 H         1 UNK         0.3000 
    231 H231       -6.6284  -23.1918  -56.1656 H         1 UNK         0.0600 
    232 H232       -6.5289  -24.8231  -57.9984 H         1 UNK         0.0600 
    233 H233       -7.0371  -25.6374  -56.5297 H         1 UNK         0.0600 
    234 H234       -5.3842  -25.8226  -57.1166 H         1 UNK         0.0600 
    235 H235       -3.7515  -22.7673  -55.0221 H         1 UNK         0.3000 
    236 H236       -2.6816  -21.4004  -57.4250 H         1 UNK         0.0600 
    237 H237       -1.6965  -23.6951  -57.4916 H         1 UNK         0.0600 
    238 H238       -0.4589  -22.5079  -57.1225 H         1 UNK         0.0600 
    239 H239       -1.1207  -23.5111  -55.8359 H         1 UNK         0.0600 
    240 H240       -3.4825  -21.1423  -54.2178 H         1 UNK         0.3000 
    241 H241       -3.0386  -19.8160  -52.5706 H         1 UNK         0.0600 
    242 H242       -2.1187  -22.1420  -52.2128 H         1 UNK         0.3800 
    243 H243       -0.4701  -22.1602  -51.5883 H         1 UNK         0.3800 
    244 H244       -2.5252  -18.0113  -54.5374 H         1 UNK         0.0800 
    245 H245       -0.9433  -18.0460  -53.8295 H         1 UNK         0.0800 
    246 H246       -1.8449  -14.9139  -52.0388 H         1 UNK         0.0800 
    247 H247       -0.8096  -15.7884  -53.1269 H         1 UNK         0.0800 
@<TRIPOS>BOND
     1    1    2 1    
     2    1  127 1    
     3    1  128 1    
     4    1  129 1    
     5    2    3 2    
     6    2    4 am   BACKBONE|DICT|INTERRES
     7    4    5 1    
     8    4  130 1    
     9    5    6 1    
    10    5   65 1    
    11    5  131 1    
    12    6    7 1    
    13    6  132 1    
    14    6  133 1    
    15    7    8 1    
    16    8    9 1    
    17    8  134 1    
    18    8  135 1    
    19    9   10 ar   
    20    9   14 ar   
    21   10   11 ar   
    22   10  136 1    
    23   11   12 ar   
    24   11  126 1    
    25   12   13 ar   
    26   12  137 1    
    27   13   14 ar   
    28   13   15 1    
    29   14  138 1    
    30   15   16 1    
    31   15  139 1    
    32   15  140 1    
    33   16   17 1    
    34   17   18 1    
    35   17  141 1    
    36   17  142 1    
    37   18   19 1    
    38   18   67 1    
    39   18  143 1    
    40   19   20 am   BACKBONE|DICT|INTERRES
    41   19  144 1    
    42   20   21 2    
    43   20   22 1    
    44   22   23 1    
    45   22   24 1    
    46   22  145 1    
    47   23  146 1    
    48   23  147 1    
    49   23  148 1    
    50   24   25 am   BACKBONE|DICT|INTERRES
    51   24  149 1    
    52   25   26 2    
    53   25   27 1    
    54   27   28 1    
    55   27   29 1    
    56   27  150 1    
    57   28  151 1    
    58   28  152 1    
    59   28  153 1    
    60   29   30 am   BACKBONE|DICT|INTERRES
    61   29  154 1    
    62   30   31 2    
    63   30   32 1    
    64   32   33 1    
    65   32   34 1    
    66   32  155 1    
    67   33  156 1    
    68   33  157 1    
    69   33  158 1    
    70   34   35 am   BACKBONE|DICT|INTERRES
    71   34  159 1    
    72   35   36 2    
    73   35   37 1    
    74   37   38 1    
    75   37   39 1    
    76   37  160 1    
    77   38  161 1    
    78   38  162 1    
    79   38  163 1    
    80   39   40 am   BACKBONE|DICT|INTERRES
    81   39  164 1    
    82   40   41 2    
    83   40   42 1    
    84   42   43 1    
    85   42   44 1    
    86   42  165 1    
    87   43  166 1    
    88   43  167 1    
    89   43  168 1    
    90   44   45 am   BACKBONE|DICT|INTERRES
    91   44  169 1    
    92   45   46 2    
    93   45   47 1    
    94   47   48 1    
    95   47   49 1    
    96   47  170 1    
    97   48  171 1    
    98   48  172 1    
    99   48  173 1    
   100   49   50 am   BACKBONE|DICT|INTERRES
   101   49  174 1    
   102   50   51 2    
   103   50   52 1    
   104   52   53 1    
   105   52   54 1    
   106   52  175 1    
   107   53  176 1    
   108   53  177 1    
   109   53  178 1    
   110   54   55 am   BACKBONE|DICT|INTERRES
   111   54  179 1    
   112   55   56 2    
   113   55   57 1    
   114   57   58 1    
   115   57   59 1    
   116   57  180 1    
   117   58  181 1    
   118   58  182 1    
   119   58  183 1    
   120   59   60 am   BACKBONE|DICT|INTERRES
   121   59  184 1    
   122   60   61 2    
   123   60   62 1    
   124   62   63 1    
   125   62   64 1    
   126   62  185 1    
   127   63  186 1    
   128   63  187 1    
   129   63  188 1    
   130   64   65 am   BACKBONE|DICT|INTERRES
   131   64  189 1    
   132   65   66 2    
   133   67   68 2    
   134   67   69 am   BACKBONE|DICT|INTERRES
   135   69   70 1    
   136   69  190 1    
   137   70   71 1    
   138   70   72 1    
   139   70  191 1    
   140   71  192 1    
   141   71  193 1    
   142   71  194 1    
   143   72   73 2    
   144   72   74 am   BACKBONE|DICT|INTERRES
   145   74   75 1    
   146   74  195 1    
   147   75   76 1    
   148   75   77 1    
   149   75  196 1    
   150   76  197 1    
   151   76  198 1    
   152   76  199 1    
   153   77   78 2    
   154   77   79 am   BACKBONE|DICT|INTERRES
   155   79   80 1    
   156   79  200 1    
   157   80   81 1    
   158   80   82 1    
   159   80  201 1    
   160   81  202 1    
   161   81  203 1    
   162   81  204 1    
   163   82   83 2    
   164   82   84 am   BACKBONE|DICT|INTERRES
   165   84   85 1    
   166   84  205 1    
   167   85   86 1    
   168   85   87 1    
   169   85  206 1    
   170   86  207 1    
   171   86  208 1    
   172   86  209 1    
   173   87   88 2    
   174   87   89 am   BACKBONE|DICT|INTERRES
   175   89   90 1    
   176   89  210 1    
   177   90   91 1    
   178   90   92 1    
   179   90  211 1    
   180   91  212 1    
   181   91  213 1    
   182   91  214 1    
   183   92   93 2    
   184   92   94 am   BACKBONE|DICT|INTERRES
   185   94   95 1    
   186   94  215 1    
   187   95   96 1    
   188   95   97 1    
   189   95  216 1    
   190   96  217 1    
   191   96  218 1    
   192   96  219 1    
   193   97   98 2    
   194   97   99 am   BACKBONE|DICT|INTERRES
   195   99  100 1    
   196   99  220 1    
   197  100  101 1    
   198  100  102 1    
   199  100  221 1    
   200  101  222 1    
   201  101  223 1    
   202  101  224 1    
   203  102  103 2    
   204  102  104 am   BACKBONE|DICT|INTERRES
   205  104  105 1    
   206  104  225 1    
   207  105  106 1    
   208  105  107 1    
   209  105  226 1    
   210  106  227 1    
   211  106  228 1    
   212  106  229 1    
   213  107  108 2    
   214  107  109 am   BACKBONE|DICT|INTERRES
   215  109  110 1    
   216  109  230 1    
   217  110  111 1    
   218  110  112 1    
   219  110  231 1    
   220  111  232 1    
   221  111  233 1    
   222  111  234 1    
   223  112  113 2    
   224  112  114 am   BACKBONE|DICT|INTERRES
   225  114  115 1    
   226  114  235 1    
   227  115  116 1    
   228  115  117 1    
   229  115  236 1    
   230  116  237 1    
   231  116  238 1    
   232  116  239 1    
   233  117  118 2    
   234  117  119 am   BACKBONE|DICT|INTERRES
   235  119  120 1    
   236  119  240 1    
   237  120  121 1    
   238  120  124 1    
   239  120  241 1    
   240  121  122 am   BACKBONE|DICT|INTERRES
   241  121  123 2    
   242  122  242 1    
   243  122  243 1    
   244  124  125 1    
   245  124  244 1    
   246  124  245 1    
   247  125  126 1    
   248  126  246 1    
   249  126  247 1    
@<TRIPOS>SUBSTRUCTURE
     1 UNK         1 GROUP             0       ****    0 ROOT    
