@<TRIPOS>MOLECULE
3R540
247   249    1
SMALL
USER_CHARGES


@<TRIPOS>ATOM
      1 CA         -2.5330  -11.8688  -47.4112 C.3       0 UNK        -0.1800 
      2 C          -1.3442  -12.6296  -46.8443 C.2       0 UNK         0.5000 
      3 O          -1.5247  -13.7021  -46.2709 O.2       0 UNK        -0.5000 
      4 N          -0.1346  -12.0686  -46.9799 N.am      1 UNK        -0.5000 
      5 CA          1.1708  -12.6462  -46.6046 C.3       1 UNK         0.1400 
      6 C6          1.4938  -13.9792  -47.3374 C.3       23 UNK        -0.0398 
      7 S7          1.4757  -13.7678  -49.1508 S.3       23 UNK        -0.2404 
      8 C8          2.6448  -15.0508  -49.7121 C.3       23 UNK        -0.0205 
      9 C9          2.0123  -16.4324  -49.8442 C.ar      23 UNK        -0.0193 
     10 C10         0.8277  -16.6050  -50.5682 C.ar      23 UNK        -0.1150 
     11 C11         0.2687  -17.8745  -50.7375 C.ar      23 UNK        -0.0193 
     12 C12         0.9083  -18.9828  -50.1738 C.ar      23 UNK        -0.1150 
     13 C13         2.1160  -18.8340  -49.4829 C.ar      23 UNK        -0.0193 
     14 C14         2.6546  -17.5543  -49.3107 C.ar      23 UNK        -0.1150 
     15 C15         2.8719  -20.0686  -49.0015 C.3       23 UNK        -0.0205 
     16 S16         3.3304  -20.0372  -47.2353 S.3       23 UNK        -0.2404 
     17 C17         1.7165  -19.8817  -46.4043 C.3       23 UNK        -0.0398 
     18 CA          1.0945  -21.2273  -45.9559 C.3       11 UNK         0.1400 
     19 N           0.0775  -21.0021  -44.9251 N.am      11 UNK        -0.5000 
     20 C          -0.5134  -21.9554  -44.1912 C.2       10 UNK         0.5000 
     21 O          -0.2093  -23.1466  -44.2417 O.2       10 UNK        -0.5000 
     22 CA         -1.6705  -21.4947  -43.2872 C.3       10 UNK         0.1400 
     23 CB         -1.1317  -20.7944  -42.0298 C.3       10 UNK        -0.1800 
     24 N          -2.5762  -20.5868  -43.9935 N.am      10 UNK        -0.5000 
     25 C          -3.4493  -20.9630  -44.9407 C.2       9 UNK         0.5000 
     26 O          -3.6403  -22.1300  -45.2768 O.2       9 UNK        -0.5000 
     27 CA         -4.1724  -19.8342  -45.6857 C.3       9 UNK         0.1400 
     28 CB         -5.2627  -19.1823  -44.8195 C.3       9 UNK        -0.1800 
     29 N          -3.1807  -18.8512  -46.1041 N.am      9 UNK        -0.5000 
     30 C          -3.2662  -18.0027  -47.1290 C.2       8 UNK         0.5000 
     31 O          -4.2702  -17.8861  -47.8312 O.2       8 UNK        -0.5000 
     32 CA         -1.9980  -17.1636  -47.4153 C.3       8 UNK         0.1400 
     33 CB         -2.2297  -16.1009  -48.5037 C.3       8 UNK        -0.1800 
     34 N          -1.4441  -16.5001  -46.2307 N.am      8 UNK        -0.5000 
     35 C          -0.8202  -17.0708  -45.1940 C.2       7 UNK         0.5000 
     36 O          -0.6903  -18.2912  -45.0546 O.2       7 UNK        -0.5000 
     37 CA         -0.3126  -16.1202  -44.0970 C.3       7 UNK         0.1400 
     38 CB         -1.3623  -15.9905  -42.9841 C.3       7 UNK        -0.1800 
     39 N           0.9499  -16.5598  -43.5055 N.am      7 UNK        -0.5000 
     40 C           2.1072  -16.7131  -44.1609 C.2       6 UNK         0.5000 
     41 O           2.2533  -16.4664  -45.3581 O.2       6 UNK        -0.5000 
     42 CA          3.3013  -17.2040  -43.3176 C.3       6 UNK         0.1400 
     43 CB          4.4897  -17.6606  -44.1816 C.3       6 UNK        -0.1800 
     44 N           3.7720  -16.1619  -42.4106 N.am      6 UNK        -0.5000 
     45 C           3.1795  -15.7560  -41.2835 C.2       5 UNK         0.5000 
     46 O           2.1510  -16.2672  -40.8377 O.2       5 UNK        -0.5000 
     47 CA          3.8200  -14.5684  -40.5379 C.3       5 UNK         0.1400 
     48 CB          4.8743  -15.0472  -39.5221 C.3       5 UNK        -0.1800 
     49 N           4.3473  -13.5129  -41.4163 N.am      5 UNK        -0.5000 
     50 C           5.4033  -13.5358  -42.2463 C.2       4 UNK         0.5000 
     51 O           6.1388  -14.5150  -42.3761 O.2       4 UNK        -0.5000 
     52 CA          5.6590  -12.2811  -43.1090 C.3       4 UNK         0.1400 
     53 CB          6.0147  -12.6601  -44.5579 C.3       4 UNK        -0.1800 
     54 N           4.4915  -11.4001  -43.1354 N.am      4 UNK        -0.5000 
     55 C           4.3446  -10.2766  -42.4191 C.2       3 UNK         0.5000 
     56 O           5.2246   -9.8051  -41.6988 O.2       3 UNK        -0.5000 
     57 CA          2.9714   -9.5739  -42.4930 C.3       3 UNK         0.1400 
     58 CB          3.0189   -8.4069  -43.4908 C.3       3 UNK        -0.1800 
     59 N           1.8747  -10.4721  -42.8659 N.am      3 UNK        -0.5000 
     60 C           1.4542  -11.5200  -42.1431 C.2       2 UNK         0.5000 
     61 O           1.8943  -11.7945  -41.0271 O.2       2 UNK        -0.5000 
     62 CA          0.4192  -12.4549  -42.7973 C.3       2 UNK         0.1400 
     63 CB         -0.9919  -12.1542  -42.2724 C.3       2 UNK        -0.1800 
     64 N           0.4024  -12.3983  -44.2619 N.am      2 UNK        -0.5000 
     65 C           1.4075  -12.7496  -45.0776 C.2       1 UNK         0.5000 
     66 O           2.5131  -13.0930  -44.6584 O.2       1 UNK        -0.5000 
     67 C           0.4912  -21.9766  -47.1597 C.2       11 UNK         0.5000 
     68 O           1.1123  -22.8854  -47.7099 O.2       11 UNK        -0.5000 
     69 N          -0.7330  -21.5805  -47.5265 N.am      12 UNK        -0.5000 
     70 CA         -1.4700  -22.0601  -48.6900 C.3       12 UNK         0.1400 
     71 CB         -2.3763  -20.9248  -49.1799 C.3       12 UNK        -0.1800 
     72 C          -2.2816  -23.3391  -48.4180 C.2       12 UNK         0.5000 
     73 O          -3.1848  -23.6461  -49.1970 O.2       12 UNK        -0.5000 
     74 N          -1.9702  -24.0724  -47.3403 N.am      13 UNK        -0.5000 
     75 CA         -2.6306  -25.3225  -46.9514 C.3       13 UNK         0.1400 
     76 CB         -2.0535  -25.8066  -45.6143 C.3       13 UNK        -0.1800 
     77 C          -2.5270  -26.4244  -48.0251 C.2       13 UNK         0.5000 
     78 O          -3.4815  -27.1765  -48.2207 O.2       13 UNK        -0.5000 
     79 N          -1.4018  -26.4455  -48.7546 N.am      14 UNK        -0.5000 
     80 CA         -1.1624  -27.3061  -49.9175 C.3       14 UNK         0.1400 
     81 CB          0.3263  -27.2306  -50.2889 C.3       14 UNK        -0.1800 
     82 C          -2.0399  -26.9541  -51.1388 C.2       14 UNK         0.5000 
     83 O          -2.2386  -27.8054  -52.0054 O.2       14 UNK        -0.5000 
     84 N          -2.5641  -25.7219  -51.1731 N.am      15 UNK        -0.5000 
     85 CA         -3.5070  -25.2089  -52.1668 C.3       15 UNK         0.1400 
     86 CB         -3.0262  -23.8189  -52.6209 C.3       15 UNK        -0.1800 
     87 C          -4.9431  -25.1667  -51.5991 C.2       15 UNK         0.5000 
     88 O          -5.7735  -24.4015  -52.0947 O.2       15 UNK        -0.5000 
     89 N          -5.2025  -25.9703  -50.5541 N.am      16 UNK        -0.5000 
     90 CA         -6.4656  -26.1150  -49.8247 C.3       16 UNK         0.1400 
     91 CB         -7.5288  -26.7963  -50.7099 C.3       16 UNK        -0.1800 
     92 C          -6.9373  -24.7948  -49.1812 C.2       16 UNK         0.5000 
     93 O          -8.1088  -24.4321  -49.2880 O.2       16 UNK        -0.5000 
     94 N          -5.9882  -24.0990  -48.5384 N.am      17 UNK        -0.5000 
     95 CA         -6.1171  -22.7845  -47.9015 C.3       17 UNK         0.1400 
     96 CB         -7.1113  -22.8163  -46.7226 C.3       17 UNK        -0.1800 
     97 C          -6.4075  -21.6770  -48.9325 C.2       17 UNK         0.5000 
     98 O          -7.2916  -20.8451  -48.7238 O.2       17 UNK        -0.5000 
     99 N          -5.6438  -21.7131  -50.0347 N.am      18 UNK        -0.5000 
    100 CA        -5.7091  -20.8147  -51.1931 C.3       18 UNK         0.1400 
    101 CB        -5.3201  -19.3710  -50.8062 C.3       18 UNK        -0.1800 
    102 C         -7.0497  -20.8855  -51.9563 C.2       18 UNK         0.5000 
    103 O         -7.4894  -19.8826  -52.5232 O.2       18 UNK        -0.5000 
    104 N         -7.6710  -22.0730  -51.9809 N.am      19 UNK        -0.5000 
    105 CA        -8.8063  -22.3753  -52.8540 C.3       19 UNK         0.1400 
    106 CB        -9.5751  -23.5858  -52.3085 C.3       19 UNK        -0.1800 
    107 C         -8.3261  -22.6265  -54.2950 C.2       19 UNK         0.5000 
    108 O         -8.9733  -22.1801  -55.2433 O.2       19 UNK        -0.5000 
    109 N         -7.1734  -23.2955  -54.4216 N.am      20 UNK        -0.5000 
    110 CA        -6.3742  -23.3680  -55.6402 C.3       20 UNK         0.1400 
    111 CB        -5.7040  -24.7507  -55.7001 C.3       20 UNK        -0.1800 
    112 C         -5.3190  -22.2451  -55.6304 C.2       20 UNK         0.5000 
    113 O         -5.1194  -21.5860  -54.6064 O.2       20 UNK        -0.5000 
    114 N         -4.6393  -22.0514  -56.7661 N.am      21 UNK        -0.5000 
    115 CA        -3.5142  -21.1245  -56.8874 C.3       21 UNK         0.1400 
    116 CB        -3.1830  -20.9204  -58.3740 C.3       21 UNK        -0.1800 
    117 C         -2.2862  -21.6475  -56.1175 C.2       21 UNK         0.5000 
    118 O         -1.8860  -22.7957  -56.3234 O.2       21 UNK        -0.5000 
    119 N         -1.7125  -20.7987  -55.2580 N.am      22 UNK        -0.5000 
    120 CA        -0.5035  -21.0920  -54.4693 C.3       22 UNK         0.1400 
    121 C          0.8394  -20.9233  -55.2421 C.2       22 UNK         0.5000 
    122 N          0.8472  -20.4038  -56.4640 N.am      22 UNK        -0.7600 
    123 O          1.8935  -21.2900  -54.7303 O.2       22 UNK        -0.5000 
    124 C124       -0.4999  -20.3341  -53.1150 C.3       23 UNK        -0.0398 
    125 S125       -0.6806  -18.5209  -53.2711 S.3       23 UNK        -0.2404 
    126 C126       -1.0124  -18.0362  -51.5472 C.3       23 UNK        -0.0205 
    127 H127       -3.0381  -12.4749  -48.1632 H         1 UNK         0.0600 
    128 H128       -2.2304  -10.9306  -47.8768 H         1 UNK         0.0600 
    129 H129       -3.2460  -11.6428  -46.6185 H         1 UNK         0.0600 
    130 H130       -0.0744  -11.1737  -47.4457 H         1 UNK         0.3000 
    131 H131        1.9077  -11.9154  -46.9413 H         1 UNK         0.0600 
    132 H132        0.7894  -14.7660  -47.0661 H         1 UNK         0.0800 
    133 H133        2.4803  -14.3412  -47.0434 H         1 UNK         0.0800 
    134 H134        3.5088  -15.0753  -49.0463 H         1 UNK         0.0800 
    135 H135        3.0259  -14.7606  -50.6919 H         1 UNK         0.0800 
    136 H136        0.3444  -15.7459  -51.0116 H         1 UNK         0.1150 
    137 H137        0.4864  -19.9679  -50.3083 H         1 UNK         0.1150 
    138 H138        3.5908  -17.4381  -48.7829 H         1 UNK         0.1150 
    139 H139        2.3041  -20.9755  -49.2089 H         1 UNK         0.0800 
    140 H140        3.7876  -20.1544  -49.5877 H         1 UNK         0.0800 
    141 H141        1.0263  -19.2964  -47.0141 H         1 UNK         0.0800 
    142 H142        1.9020  -19.2706  -45.5222 H         1 UNK         0.0800 
    143 H143        1.8767  -21.8527  -45.5202 H         1 UNK         0.0600 
    144 H144       -0.2275  -20.0379  -44.8129 H         1 UNK         0.3000 
    145 H145       -2.2313  -22.3789  -42.9761 H         1 UNK         0.0600 
    146 H146       -1.9422  -20.5245  -41.3526 H         1 UNK         0.0600 
    147 H147       -0.4536  -21.4480  -41.4795 H         1 UNK         0.0600 
    148 H148       -0.5835  -19.8836  -42.2754 H         1 UNK         0.0600 
    149 H149       -2.4931  -19.6080  -43.7619 H         1 UNK         0.3000 
    150 H150       -4.6420  -20.2637  -46.5726 H         1 UNK         0.0600 
    151 H151       -5.9830  -19.9254  -44.4752 H         1 UNK         0.0600 
    152 H152       -5.8163  -18.4321  -45.3844 H         1 UNK         0.0600 
    153 H153       -4.8433  -18.6943  -43.9391 H         1 UNK         0.0600 
    154 H154       -2.3009  -18.8487  -45.5940 H         1 UNK         0.3000 
    155 H155       -1.2418  -17.8563  -47.7904 H         1 UNK         0.0600 
    156 H156       -2.9645  -15.3595  -48.1880 H         1 UNK         0.0600 
    157 H157       -2.5944  -16.5527  -49.4262 H         1 UNK         0.0600 
    158 H158       -1.3057  -15.5739  -48.7429 H         1 UNK         0.0600 
    159 H159       -1.5344  -15.4841  -46.2278 H         1 UNK         0.3000 
    160 H160       -0.1441  -15.1389  -44.5374 H         1 UNK         0.0600 
    161 H161       -1.5747  -16.9537  -42.5181 H         1 UNK         0.0600 
    162 H162       -2.3017  -15.5998  -43.3776 H         1 UNK         0.0600 
    163 H163       -1.0299  -15.3083  -42.2018 H         1 UNK         0.0600 
    164 H164        0.9488  -16.7400  -42.5086 H         1 UNK         0.3000 
    165 H165        2.9653  -18.0605  -42.7293 H         1 UNK         0.0600 
    166 H166        5.3015  -18.0447  -43.5638 H         1 UNK         0.0600 
    167 H167        4.1955  -18.4597  -44.8608 H         1 UNK         0.0600 
    168 H168        4.8873  -16.8438  -44.7857 H         1 UNK         0.0600 
    169 H169        4.6240  -15.6796  -42.6786 H         1 UNK         0.3000 
    170 H170        3.0174  -14.0964  -39.9693 H         1 UNK         0.0600 
    171 H171        4.4303  -15.7319  -38.7985 H         1 UNK         0.0600 
    172 H172        5.6978  -15.5757  -40.0027 H         1 UNK         0.0600 
    173 H173        5.2921  -14.2099  -38.9631 H         1 UNK         0.0600 
    174 H174        3.7860  -12.6694  -41.4139 H         1 UNK         0.3000 
    175 H175        6.5162  -11.7628  -42.6753 H         1 UNK         0.0600 
    176 H176        5.2255  -13.2504  -45.0252 H         1 UNK         0.0600 
    177 H177        6.1754  -11.7720  -45.1693 H         1 UNK         0.0600 
    178 H178        6.9320  -13.2486  -44.5977 H         1 UNK         0.0600 
    179 H179        3.7070  -11.7427  -43.6806 H         1 UNK         0.3000 
    180 H180        2.7544   -9.1714  -41.5014 H         1 UNK         0.0600 
    181 H181        3.2140   -8.7537  -44.5064 H         1 UNK         0.0600 
    182 H182        3.8071   -7.7000  -43.2282 H         1 UNK         0.0600 
    183 H183        2.0789   -7.8547  -43.4979 H         1 UNK         0.0600 
    184 H184        1.4537  -10.3208  -43.7706 H         1 UNK         0.3000 
    185 H185        0.6834  -13.4749  -42.5107 H         1 UNK         0.0600 
    186 H186       -1.0307  -12.2377  -41.1854 H         1 UNK         0.0600 
    187 H187       -1.3123  -11.1457  -42.5367 H         1 UNK         0.0600 
    188 H188       -1.7223  -12.8549  -42.6773 H         1 UNK         0.0600 
    189 H189       -0.4710  -12.1304  -44.6923 H         1 UNK         0.3000 
    190 H190       -1.1864  -20.8727  -46.9708 H         1 UNK         0.3000 
    191 H191       -0.7596  -22.2910  -49.4866 H         1 UNK         0.0600 
    192 H192       -2.7413  -21.1289  -50.1866 H         1 UNK         0.0600 
    193 H193       -1.8415  -19.9777  -49.2104 H         1 UNK         0.0600 
    194 H194       -3.2431  -20.7931  -48.5323 H         1 UNK         0.0600 
    195 H195       -1.2300  -23.7461  -46.7355 H         1 UNK         0.3000 
    196 H196       -3.6900  -25.1042  -46.8033 H         1 UNK         0.0600 
    197 H197       -2.5251  -26.7376  -45.2971 H         1 UNK         0.0600 
    198 H198       -2.2243  -25.0722  -44.8266 H         1 UNK         0.0600 
    199 H199       -0.9794  -25.9848  -45.6791 H         1 UNK         0.0600 
    200 H200       -0.6725  -25.7862  -48.5235 H         1 UNK         0.3000 
    201 H201       -1.3944  -28.3345  -49.6326 H         1 UNK         0.0600 
    202 H202        0.9570  -27.5483  -49.4584 H         1 UNK         0.0600 
    203 H203        0.6207  -26.2177  -50.5670 H         1 UNK         0.0600 
    204 H204        0.5525  -27.8821  -51.1342 H         1 UNK         0.0600 
    205 H205       -2.4010  -25.1040  -50.3874 H         1 UNK         0.3000 
    206 H206       -3.5271  -25.8628  -53.0405 H         1 UNK         0.0600 
    207 H207       -2.0031  -23.8592  -52.9941 H         1 UNK         0.0600 
    208 H208       -3.6445  -23.4353  -53.4302 H         1 UNK         0.0600 
    209 H209       -3.0593  -23.0905  -51.8111 H         1 UNK         0.0600 
    210 H210       -4.4394  -26.5288  -50.1946 H         1 UNK         0.3000 
    211 H211       -6.2616  -26.7895  -48.9917 H         1 UNK         0.0600 
    212 H212       -7.7333  -26.2253  -51.6135 H         1 UNK         0.0600 
    213 H213       -8.4710  -26.9203  -50.1750 H         1 UNK         0.0600 
    214 H214       -7.1997  -27.7889  -51.0168 H         1 UNK         0.0600 
    215 H215       -5.0376  -24.4413  -48.6060 H         1 UNK         0.3000 
    216 H216       -5.1359  -22.5566  -47.4855 H         1 UNK         0.0600 
    217 H217       -7.0966  -21.8712  -46.1786 H         1 UNK         0.0600 
    218 H218       -6.8530  -23.6018  -46.0125 H         1 UNK         0.0600 
    219 H219       -8.1357  -22.9849  -47.0552 H         1 UNK         0.0600 
    220 H220       -4.9623  -22.4588  -50.0988 H         1 UNK         0.3000 
    221 H221       -4.9531  -21.1773  -51.8908 H         1 UNK         0.0600 
    222 H222       -6.0632  -18.9116  -50.1540 H         1 UNK         0.0600 
    223 H223       -4.3621  -19.3339  -50.2917 H         1 UNK         0.0600 
    224 H224       -5.2291  -18.7406  -51.6913 H         1 UNK         0.0600 
    225 H225       -7.2268  -22.8589  -51.5221 H         1 UNK         0.3000 
    226 H226       -9.4868  -21.5212  -52.8641 H         1 UNK         0.0600 
    227 H227       -9.9180  -23.4095  -51.2888 H         1 UNK         0.0600 
    228 H228      -10.4543  -23.7960  -52.9184 H         1 UNK         0.0600 
    229 H229       -8.9574  -24.4820  -52.3040 H         1 UNK         0.0600 
    230 H230       -6.6967  -23.5889  -53.5730 H         1 UNK         0.3000 
    231 H231       -7.0095  -23.2435  -56.5194 H         1 UNK         0.0600 
    232 H232       -6.4468  -25.5483  -55.6758 H         1 UNK         0.0600 
    233 H233       -5.0227  -24.9054  -54.8639 H         1 UNK         0.0600 
    234 H234       -5.1285  -24.8726  -56.6183 H         1 UNK         0.0600 
    235 H235       -4.8217  -22.6461  -57.5612 H         1 UNK         0.3000 
    236 H236       -3.8148  -20.1602  -56.4714 H         1 UNK         0.0600 
    237 H237       -2.3596  -20.2158  -58.4970 H         1 UNK         0.0600 
    238 H238       -2.8899  -21.8549  -58.8545 H         1 UNK         0.0600 
    239 H239       -4.0381  -20.5176  -58.9170 H         1 UNK         0.0600 
    240 H240       -2.0953  -19.8718  -55.1379 H         1 UNK         0.3000 
    241 H241       -0.5366  -22.1532  -54.2153 H         1 UNK         0.0600 
    242 H242        1.7216  -20.3069  -56.9562 H         1 UNK         0.3800 
    243 H243       -0.0082  -20.0957  -56.8963 H         1 UNK         0.3800 
    244 H244       -1.3207  -20.7071  -52.5007 H         1 UNK         0.0800 
    245 H245        0.4120  -20.5544  -52.5589 H         1 UNK         0.0800 
    246 H246       -1.5589  -17.0924  -51.5626 H         1 UNK         0.0800 
    247 H247       -1.6812  -18.7570  -51.0806 H         1 UNK         0.0800 
@<TRIPOS>BOND
     1    1    2 1    
     2    1  127 1    
     3    1  128 1    
     4    1  129 1    
     5    2    3 2    
     6    2    4 am   BACKBONE|DICT|INTERRES
     7    4    5 1    
     8    4  130 1    
     9    5    6 1    
    10    5   65 1    
    11    5  131 1    
    12    6    7 1    
    13    6  132 1    
    14    6  133 1    
    15    7    8 1    
    16    8    9 1    
    17    8  134 1    
    18    8  135 1    
    19    9   10 ar   
    20    9   14 ar   
    21   10   11 ar   
    22   10  136 1    
    23   11   12 ar   
    24   11  126 1    
    25   12   13 ar   
    26   12  137 1    
    27   13   14 ar   
    28   13   15 1    
    29   14  138 1    
    30   15   16 1    
    31   15  139 1    
    32   15  140 1    
    33   16   17 1    
    34   17   18 1    
    35   17  141 1    
    36   17  142 1    
    37   18   19 1    
    38   18   67 1    
    39   18  143 1    
    40   19   20 am   BACKBONE|DICT|INTERRES
    41   19  144 1    
    42   20   21 2    
    43   20   22 1    
    44   22   23 1    
    45   22   24 1    
    46   22  145 1    
    47   23  146 1    
    48   23  147 1    
    49   23  148 1    
    50   24   25 am   BACKBONE|DICT|INTERRES
    51   24  149 1    
    52   25   26 2    
    53   25   27 1    
    54   27   28 1    
    55   27   29 1    
    56   27  150 1    
    57   28  151 1    
    58   28  152 1    
    59   28  153 1    
    60   29   30 am   BACKBONE|DICT|INTERRES
    61   29  154 1    
    62   30   31 2    
    63   30   32 1    
    64   32   33 1    
    65   32   34 1    
    66   32  155 1    
    67   33  156 1    
    68   33  157 1    
    69   33  158 1    
    70   34   35 am   BACKBONE|DICT|INTERRES
    71   34  159 1    
    72   35   36 2    
    73   35   37 1    
    74   37   38 1    
    75   37   39 1    
    76   37  160 1    
    77   38  161 1    
    78   38  162 1    
    79   38  163 1    
    80   39   40 am   BACKBONE|DICT|INTERRES
    81   39  164 1    
    82   40   41 2    
    83   40   42 1    
    84   42   43 1    
    85   42   44 1    
    86   42  165 1    
    87   43  166 1    
    88   43  167 1    
    89   43  168 1    
    90   44   45 am   BACKBONE|DICT|INTERRES
    91   44  169 1    
    92   45   46 2    
    93   45   47 1    
    94   47   48 1    
    95   47   49 1    
    96   47  170 1    
    97   48  171 1    
    98   48  172 1    
    99   48  173 1    
   100   49   50 am   BACKBONE|DICT|INTERRES
   101   49  174 1    
   102   50   51 2    
   103   50   52 1    
   104   52   53 1    
   105   52   54 1    
   106   52  175 1    
   107   53  176 1    
   108   53  177 1    
   109   53  178 1    
   110   54   55 am   BACKBONE|DICT|INTERRES
   111   54  179 1    
   112   55   56 2    
   113   55   57 1    
   114   57   58 1    
   115   57   59 1    
   116   57  180 1    
   117   58  181 1    
   118   58  182 1    
   119   58  183 1    
   120   59   60 am   BACKBONE|DICT|INTERRES
   121   59  184 1    
   122   60   61 2    
   123   60   62 1    
   124   62   63 1    
   125   62   64 1    
   126   62  185 1    
   127   63  186 1    
   128   63  187 1    
   129   63  188 1    
   130   64   65 am   BACKBONE|DICT|INTERRES
   131   64  189 1    
   132   65   66 2    
   133   67   68 2    
   134   67   69 am   BACKBONE|DICT|INTERRES
   135   69   70 1    
   136   69  190 1    
   137   70   71 1    
   138   70   72 1    
   139   70  191 1    
   140   71  192 1    
   141   71  193 1    
   142   71  194 1    
   143   72   73 2    
   144   72   74 am   BACKBONE|DICT|INTERRES
   145   74   75 1    
   146   74  195 1    
   147   75   76 1    
   148   75   77 1    
   149   75  196 1    
   150   76  197 1    
   151   76  198 1    
   152   76  199 1    
   153   77   78 2    
   154   77   79 am   BACKBONE|DICT|INTERRES
   155   79   80 1    
   156   79  200 1    
   157   80   81 1    
   158   80   82 1    
   159   80  201 1    
   160   81  202 1    
   161   81  203 1    
   162   81  204 1    
   163   82   83 2    
   164   82   84 am   BACKBONE|DICT|INTERRES
   165   84   85 1    
   166   84  205 1    
   167   85   86 1    
   168   85   87 1    
   169   85  206 1    
   170   86  207 1    
   171   86  208 1    
   172   86  209 1    
   173   87   88 2    
   174   87   89 am   BACKBONE|DICT|INTERRES
   175   89   90 1    
   176   89  210 1    
   177   90   91 1    
   178   90   92 1    
   179   90  211 1    
   180   91  212 1    
   181   91  213 1    
   182   91  214 1    
   183   92   93 2    
   184   92   94 am   BACKBONE|DICT|INTERRES
   185   94   95 1    
   186   94  215 1    
   187   95   96 1    
   188   95   97 1    
   189   95  216 1    
   190   96  217 1    
   191   96  218 1    
   192   96  219 1    
   193   97   98 2    
   194   97   99 am   BACKBONE|DICT|INTERRES
   195   99  100 1    
   196   99  220 1    
   197  100  101 1    
   198  100  102 1    
   199  100  221 1    
   200  101  222 1    
   201  101  223 1    
   202  101  224 1    
   203  102  103 2    
   204  102  104 am   BACKBONE|DICT|INTERRES
   205  104  105 1    
   206  104  225 1    
   207  105  106 1    
   208  105  107 1    
   209  105  226 1    
   210  106  227 1    
   211  106  228 1    
   212  106  229 1    
   213  107  108 2    
   214  107  109 am   BACKBONE|DICT|INTERRES
   215  109  110 1    
   216  109  230 1    
   217  110  111 1    
   218  110  112 1    
   219  110  231 1    
   220  111  232 1    
   221  111  233 1    
   222  111  234 1    
   223  112  113 2    
   224  112  114 am   BACKBONE|DICT|INTERRES
   225  114  115 1    
   226  114  235 1    
   227  115  116 1    
   228  115  117 1    
   229  115  236 1    
   230  116  237 1    
   231  116  238 1    
   232  116  239 1    
   233  117  118 2    
   234  117  119 am   BACKBONE|DICT|INTERRES
   235  119  120 1    
   236  119  240 1    
   237  120  121 1    
   238  120  124 1    
   239  120  241 1    
   240  121  122 am   BACKBONE|DICT|INTERRES
   241  121  123 2    
   242  122  242 1    
   243  122  243 1    
   244  124  125 1    
   245  124  244 1    
   246  124  245 1    
   247  125  126 1    
   248  126  246 1    
   249  126  247 1    
@<TRIPOS>SUBSTRUCTURE
     1 UNK         1 GROUP             0       ****    0 ROOT    
