@<TRIPOS>MOLECULE
3R540
247   249    1
SMALL
USER_CHARGES


@<TRIPOS>ATOM
      1 CA          2.9317  -15.9039  -44.8727 C.3       0 UNK        -0.1800 
      2 C           2.0522  -14.6649  -44.9421 C.2       0 UNK         0.5000 
      3 O           2.1221  -13.8172  -44.0546 O.2       0 UNK        -0.5000 
      4 N           1.2510  -14.5356  -46.0095 N.am      1 UNK        -0.5000 
      5 CA          0.3270  -13.4174  -46.2647 C.3       1 UNK         0.1400 
      6 C6         -0.6166  -13.6852  -47.4663 C.3       23 UNK        -0.0398 
      7 S7          0.2365  -14.2700  -48.9737 S.3       23 UNK        -0.2404 
      8 C8         -0.6541  -15.8265  -49.2847 C.3       23 UNK        -0.0205 
      9 C9          0.0114  -16.6348  -50.3861 C.ar      23 UNK        -0.0193 
     10 C10        -0.3026  -16.4016  -51.7283 C.ar      23 UNK        -0.1150 
     11 C11         0.3034  -17.1549  -52.7388 C.ar      23 UNK        -0.0193 
     12 C12         1.2256  -18.1493  -52.3971 C.ar      23 UNK        -0.1150 
     13 C13         1.5472  -18.3914  -51.0586 C.ar      23 UNK        -0.0193 
     14 C14         0.9402  -17.6258  -50.0591 C.ar      23 UNK        -0.1150 
     15 C15         2.5518  -19.4764  -50.6894 C.3       23 UNK        -0.0205 
     16 S16         1.9513  -21.1510  -51.0890 S.3       23 UNK        -0.2404 
     17 C17         0.3946  -21.2313  -50.1433 C.3       23 UNK        -0.0398 
     18 CA          0.3174  -22.4439  -49.1899 C.3       11 UNK         0.1400 
     19 N           1.3885  -22.4254  -48.1925 N.am      11 UNK        -0.5000 
     20 C           1.6879  -23.4328  -47.3613 C.2       10 UNK         0.5000 
     21 O           1.1065  -24.5165  -47.3630 O.2       10 UNK        -0.5000 
     22 CA          2.7800  -23.1461  -46.3115 C.3       10 UNK         0.1400 
     23 CB          4.1663  -23.5077  -46.8639 C.3       10 UNK        -0.1800 
     24 N           2.7800  -21.7463  -45.8722 N.am      10 UNK        -0.5000 
     25 C           1.7543  -21.1547  -45.2456 C.2       9 UNK         0.5000 
     26 O           0.7217  -21.7460  -44.9216 O.2       9 UNK        -0.5000 
     27 CA          1.8537  -19.6314  -45.0690 C.3       9 UNK         0.1400 
     28 CB          1.1723  -18.9371  -46.2600 C.3       9 UNK        -0.1800 
     29 N           1.2323  -19.1793  -43.8260 N.am      9 UNK        -0.5000 
     30 C           1.7579  -19.3780  -42.6075 C.2       8 UNK         0.5000 
     31 O           2.8276  -19.9599  -42.4204 O.2       8 UNK        -0.5000 
     32 CA          0.9999  -18.8095  -41.3889 C.3       8 UNK         0.1400 
     33 CB          1.6869  -17.5296  -40.8853 C.3       8 UNK        -0.1800 
     34 N          -0.4038  -18.5035  -41.6564 N.am      8 UNK        -0.5000 
     35 C          -1.3763  -19.4088  -41.8222 C.2       7 UNK         0.5000 
     36 O          -1.2126  -20.6204  -41.6795 O.2       7 UNK        -0.5000 
     37 CA         -2.7670  -18.8724  -42.2234 C.3       7 UNK         0.1400 
     38 CB         -3.7029  -18.8512  -41.0053 C.3       7 UNK        -0.1800 
     39 N          -2.7691  -17.5380  -42.8354 N.am      7 UNK        -0.5000 
     40 C          -2.1077  -17.1606  -43.9366 C.2       6 UNK         0.5000 
     41 O          -1.3368  -17.8962  -44.5492 O.2       6 UNK        -0.5000 
     42 CA         -2.2861  -15.7109  -44.4202 C.3       6 UNK         0.1400 
     43 CB         -3.4282  -15.6068  -45.4472 C.3       6 UNK        -0.1800 
     44 N          -2.4239  -14.7081  -43.3553 N.am      6 UNK        -0.5000 
     45 C          -3.4181  -14.5102  -42.4804 C.2       5 UNK         0.5000 
     46 O          -4.4174  -15.2262  -42.4145 O.2       5 UNK        -0.5000 
     47 CA         -3.2802  -13.3259  -41.4983 C.3       5 UNK         0.1400 
     48 CB         -2.6526  -13.7933  -40.1709 C.3       5 UNK        -0.1800 
     49 N          -2.5895  -12.1340  -42.0236 N.am      5 UNK        -0.5000 
     50 C          -1.3067  -11.9948  -42.3887 C.2       4 UNK         0.5000 
     51 O          -0.5018  -12.9280  -42.3874 O.2       4 UNK        -0.5000 
     52 CA         -0.8836  -10.6031  -42.9084 C.3       4 UNK         0.1400 
     53 CB         -1.3971   -9.4455  -42.0239 C.3       4 UNK        -0.1800 
     54 N           0.5634  -10.5052  -43.1332 N.am      4 UNK        -0.5000 
     55 C           1.5464  -10.5219  -42.2175 C.2       3 UNK         0.5000 
     56 O           1.3494  -10.4942  -41.0013 O.2       3 UNK        -0.5000 
     57 CA          2.9978  -10.5824  -42.7433 C.3       3 UNK         0.1400 
     58 CB          3.8575  -11.5572  -41.9188 C.3       3 UNK        -0.1800 
     59 N           3.0481  -10.9969  -44.1461 N.am      3 UNK        -0.5000 
     60 C           3.2821  -10.1924  -45.1925 C.2       2 UNK         0.5000 
     61 O           3.5525   -8.9958  -45.0865 O.2       2 UNK        -0.5000 
     62 CA          3.1709  -10.8176  -46.6013 C.3       2 UNK         0.1400 
     63 CB          4.5636  -11.1785  -47.1399 C.3       2 UNK        -0.1800 
     64 N           2.3215  -12.0108  -46.6499 N.am      2 UNK        -0.5000 
     65 C           1.0099  -12.0356  -46.3735 C.2       1 UNK         0.5000 
     66 O           0.3503  -11.0219  -46.1406 O.2       1 UNK        -0.5000 
     67 C          -1.0864  -22.5053  -48.5502 C.2       11 UNK         0.5000 
     68 O          -1.9972  -23.0889  -49.1407 O.2       11 UNK        -0.5000 
     69 N          -1.2377  -21.8914  -47.3671 N.am      12 UNK        -0.5000 
     70 CA         -2.4666  -21.9219  -46.5784 C.3       12 UNK         0.1400 
     71 CB         -2.5165  -20.7177  -45.6302 C.3       12 UNK        -0.1800 
     72 C          -2.5935  -23.2461  -45.8105 C.2       12 UNK         0.5000 
     73 O          -3.6816  -23.8196  -45.7716 O.2       12 UNK        -0.5000 
     74 N          -1.4698  -23.7341  -45.2627 N.am      13 UNK        -0.5000 
     75 CA         -1.3608  -25.0285  -44.5842 C.3       13 UNK         0.1400 
     76 CB          0.0418  -25.1725  -43.9765 C.3       13 UNK        -0.1800 
     77 C          -1.6860  -26.2252  -45.5011 C.2       13 UNK         0.5000 
     78 O          -2.2615  -27.2084  -45.0329 O.2       13 UNK        -0.5000 
     79 N          -1.3760  -26.1001  -46.7994 N.am      14 UNK        -0.5000 
     80 CA         -1.7272  -27.0298  -47.8774 C.3       14 UNK         0.1400 
     81 CB         -0.8092  -26.7481  -49.0811 C.3       14 UNK        -0.1800 
     82 C          -3.2271  -26.9731  -48.2571 C.2       14 UNK         0.5000 
     83 O          -3.5648  -26.8107  -49.4321 O.2       14 UNK        -0.5000 
     84 N          -4.1039  -27.0751  -47.2461 N.am      15 UNK        -0.5000 
     85 CA         -5.5737  -27.0688  -47.3058 C.3       15 UNK         0.1400 
     86 CB         -6.0751  -28.3802  -47.9447 C.3       15 UNK        -0.1800 
     87 C          -6.1795  -25.8210  -47.9893 C.2       15 UNK         0.5000 
     88 O          -7.2957  -25.8865  -48.5064 O.2       15 UNK        -0.5000 
     89 N          -5.4108  -24.7225  -48.0158 N.am      16 UNK        -0.5000 
     90 CA         -5.6328  -23.4725  -48.7488 C.3       16 UNK         0.1400 
     91 CB         -6.8374  -22.7049  -48.1703 C.3       16 UNK        -0.1800 
     92 C          -5.7150  -23.6238  -50.2838 C.2       16 UNK         0.5000 
     93 O          -6.0628  -22.6564  -50.9602 O.2       16 UNK        -0.5000 
     94 N          -5.3774  -24.8034  -50.8248 N.am      17 UNK        -0.5000 
     95 CA         -5.4767  -25.1156  -52.2497 C.3       17 UNK         0.1400 
     96 CB         -5.3517  -26.6330  -52.4527 C.3       17 UNK        -0.1800 
     97 C          -4.4240  -24.3593  -53.0711 C.2       17 UNK         0.5000 
     98 O          -4.7538  -23.7658  -54.0979 O.2       17 UNK        -0.5000 
     99 N          -3.1828  -24.3484  -52.5695 N.am      18 UNK        -0.5000 
    100 CA        -2.0689  -23.6143  -53.1646 C.3       18 UNK         0.1400 
    101 CB        -0.7547  -24.0828  -52.5283 C.3       18 UNK        -0.1800 
    102 C         -2.2405  -22.0893  -53.0491 C.2       18 UNK         0.5000 
    103 O         -1.8778  -21.3763  -53.9830 O.2       18 UNK        -0.5000 
    104 N         -2.8217  -21.6250  -51.9321 N.am      19 UNK        -0.5000 
    105 CA        -3.1364  -20.2142  -51.6868 C.3       19 UNK         0.1400 
    106 CB        -3.4412  -20.0059  -50.1945 C.3       19 UNK        -0.1800 
    107 C         -4.2982  -19.6946  -52.5551 C.2       19 UNK         0.5000 
    108 O         -4.3342  -18.5048  -52.8662 O.2       19 UNK        -0.5000 
    109 N         -5.2277  -20.5825  -52.9318 N.am      20 UNK        -0.5000 
    110 CA        -6.2965  -20.2896  -53.8837 C.3       20 UNK         0.1400 
    111 CB        -7.4270  -21.3177  -53.7221 C.3       20 UNK        -0.1800 
    112 C         -5.7763  -20.2691  -55.3321 C.2       20 UNK         0.5000 
    113 O         -6.1769  -19.3994  -56.1066 O.2       20 UNK        -0.5000 
    114 N         -4.9071  -21.2313  -55.6720 N.am      21 UNK        -0.5000 
    115 CA        -4.3338  -21.3991  -57.0049 C.3       21 UNK         0.1400 
    116 CB        -3.7279  -22.8071  -57.1281 C.3       21 UNK        -0.1800 
    117 C         -3.2983  -20.3164  -57.3578 C.2       21 UNK         0.5000 
    118 O         -3.4761  -19.6137  -58.3538 O.2       21 UNK        -0.5000 
    119 N         -2.2286  -20.2230  -56.5547 N.am      22 UNK        -0.5000 
    120 CA        -1.0600  -19.3428  -56.7533 C.3       22 UNK         0.1400 
    121 C         -0.2822  -19.5622  -58.0907 C.2       22 UNK         0.5000 
    122 N         -0.3644  -20.7316  -58.7141 N.am      22 UNK        -0.7600 
    123 O          0.4356  -18.6819  -58.5582 O.2       22 UNK        -0.5000 
    124 C124       -1.3825  -17.8505  -56.4581 C.3       23 UNK        -0.0398 
    125 S125       -1.6337  -17.5835  -54.6714 S.3       23 UNK        -0.2404 
    126 C126       -0.0202  -16.8859  -54.1999 C.3       23 UNK        -0.0205 
    127 H127        3.9350  -15.6344  -44.5428 H         1 UNK         0.0600 
    128 H128        3.0187  -16.3924  -45.8430 H         1 UNK         0.0600 
    129 H129        2.5186  -16.6154  -44.1588 H         1 UNK         0.0600 
    130 H130        1.2718  -15.2416  -46.7315 H         1 UNK         0.3000 
    131 H131       -0.3058  -13.3415  -45.3781 H         1 UNK         0.0600 
    132 H132       -1.1985  -12.7961  -47.7173 H         1 UNK         0.0800 
    133 H133       -1.3564  -14.4289  -47.1726 H         1 UNK         0.0800 
    134 H134       -1.6873  -15.6053  -49.5570 H         1 UNK         0.0800 
    135 H135       -0.6962  -16.4169  -48.3675 H         1 UNK         0.0800 
    136 H136       -1.0177  -15.6335  -51.9880 H         1 UNK         0.1150 
    137 H137        1.6943  -18.7399  -53.1718 H         1 UNK         0.1150 
    138 H138        1.1871  -17.7999  -49.0226 H         1 UNK         0.1150 
    139 H139        3.4822  -19.2978  -51.2300 H         1 UNK         0.0800 
    140 H140        2.8024  -19.4307  -49.6287 H         1 UNK         0.0800 
    141 H141       -0.4089  -21.2662  -50.8759 H         1 UNK         0.0800 
    142 H142        0.2471  -20.3082  -49.5821 H         1 UNK         0.0800 
    143 H143        0.4506  -23.3549  -49.7739 H         1 UNK         0.0600 
    144 H144        1.9424  -21.5844  -48.1433 H         1 UNK         0.3000 
    145 H145        2.5824  -23.7735  -45.4406 H         1 UNK         0.0600 
    146 H146        4.9398  -23.3727  -46.1077 H         1 UNK         0.0600 
    147 H147        4.1999  -24.5518  -47.1783 H         1 UNK         0.0600 
    148 H148        4.4295  -22.8962  -47.7279 H         1 UNK         0.0600 
    149 H149        3.5957  -21.2001  -46.1097 H         1 UNK         0.3000 
    150 H150        2.9058  -19.3387  -45.0513 H         1 UNK         0.0600 
    151 H151        1.6932  -19.1652  -47.1897 H         1 UNK         0.0600 
    152 H152        1.1650  -17.8544  -46.1450 H         1 UNK         0.0600 
    153 H153        0.1365  -19.2578  -46.3767 H         1 UNK         0.0600 
    154 H154        0.3222  -18.7377  -43.9137 H         1 UNK         0.3000 
    155 H155        1.0446  -19.5588  -40.5958 H         1 UNK         0.0600 
    156 H156        1.6588  -16.7361  -41.6336 H         1 UNK         0.0600 
    157 H157        2.7342  -17.7157  -40.6439 H         1 UNK         0.0600 
    158 H158        1.2087  -17.1546  -39.9802 H         1 UNK         0.0600 
    159 H159       -0.6371  -17.5316  -41.7941 H         1 UNK         0.3000 
    160 H160       -3.1787  -19.5671  -42.9565 H         1 UNK         0.0600 
    161 H161       -3.3598  -18.1438  -40.2492 H         1 UNK         0.0600 
    162 H162       -3.7594  -19.8341  -40.5356 H         1 UNK         0.0600 
    163 H163       -4.7168  -18.5706  -41.2914 H         1 UNK         0.0600 
    164 H164       -3.4030  -16.8545  -42.4324 H         1 UNK         0.3000 
    165 H165       -1.3597  -15.4582  -44.9348 H         1 UNK         0.0600 
    166 H166       -3.5212  -14.5919  -45.8336 H         1 UNK         0.0600 
    167 H167       -3.2459  -16.2647  -46.2980 H         1 UNK         0.0600 
    168 H168       -4.3893  -15.8910  -45.0180 H         1 UNK         0.0600 
    169 H169       -1.6124  -14.1082  -43.2192 H         1 UNK         0.3000 
    170 H170       -4.2969  -12.9971  -41.2773 H         1 UNK         0.0600 
    171 H171       -3.2356  -14.6019  -39.7283 H         1 UNK         0.0600 
    172 H172       -1.6363  -14.1642  -40.3069 H         1 UNK         0.0600 
    173 H173       -2.6190  -12.9820  -39.4438 H         1 UNK         0.0600 
    174 H174       -3.1814  -11.3197  -42.1111 H         1 UNK         0.3000 
    175 H175       -1.3399  -10.4941  -43.8931 H         1 UNK         0.0600 
    176 H176       -1.1191   -9.5763  -40.9777 H         1 UNK         0.0600 
    177 H177       -0.9984   -8.4877  -42.3585 H         1 UNK         0.0600 
    178 H178       -2.4838   -9.3678  -42.0638 H         1 UNK         0.0600 
    179 H179        0.8371  -10.5526  -44.1069 H         1 UNK         0.3000 
    180 H180        3.4193   -9.5821  -42.6275 H         1 UNK         0.0600 
    181 H181        4.8775  -11.6029  -42.3006 H         1 UNK         0.0600 
    182 H182        3.4466  -12.5675  -41.9377 H         1 UNK         0.0600 
    183 H183        3.9174  -11.2456  -40.8754 H         1 UNK         0.0600 
    184 H184        2.8021  -11.9689  -44.3134 H         1 UNK         0.3000 
    185 H185        2.7311  -10.0659  -47.2599 H         1 UNK         0.0600 
    186 H186        4.5074  -11.5492  -48.1635 H         1 UNK         0.0600 
    187 H187        5.2181  -10.3059  -47.1473 H         1 UNK         0.0600 
    188 H188        5.0442  -11.9444  -46.5298 H         1 UNK         0.0600 
    189 H189        2.7852  -12.8900  -46.8257 H         1 UNK         0.3000 
    190 H190       -0.4308  -21.4811  -46.9200 H         1 UNK         0.3000 
    191 H191       -3.3180  -21.8324  -47.2523 H         1 UNK         0.0600 
    192 H192       -3.4560  -20.7025  -45.0773 H         1 UNK         0.0600 
    193 H193       -2.4525  -19.7810  -46.1839 H         1 UNK         0.0600 
    194 H194       -1.7066  -20.7327  -44.9007 H         1 UNK         0.0600 
    195 H195       -0.6310  -23.1629  -45.2891 H         1 UNK         0.3000 
    196 H196       -2.0866  -25.0311  -43.7686 H         1 UNK         0.0600 
    197 H197        0.8097  -25.2293  -44.7472 H         1 UNK         0.0600 
    198 H198        0.2802  -24.3315  -43.3247 H         1 UNK         0.0600 
    199 H199        0.1138  -26.0810  -43.3774 H         1 UNK         0.0600 
    200 H200       -0.8442  -25.2832  -47.0764 H         1 UNK         0.3000 
    201 H201       -1.5245  -28.0460  -47.5340 H         1 UNK         0.0600 
    202 H202       -0.9606  -25.7416  -49.4727 H         1 UNK         0.0600 
    203 H203       -0.9966  -27.4507  -49.8940 H         1 UNK         0.0600 
    204 H204        0.2415  -26.8445  -48.8067 H         1 UNK         0.0600 
    205 H205       -3.7051  -27.1798  -46.3172 H         1 UNK         0.3000 
    206 H206       -5.9213  -27.0457  -46.2722 H         1 UNK         0.0600 
    207 H207       -5.6519  -29.2503  -47.4430 H         1 UNK         0.0600 
    208 H208       -7.1601  -28.4645  -47.8736 H         1 UNK         0.0600 
    209 H209       -5.8100  -28.4401  -49.0009 H         1 UNK         0.0600 
    210 H210       -4.5410  -24.7605  -47.4973 H         1 UNK         0.3000 
    211 H211       -4.7452  -22.8684  -48.5758 H         1 UNK         0.0600 
    212 H212       -6.9190  -21.7111  -48.6121 H         1 UNK         0.0600 
    213 H213       -6.7373  -22.5715  -47.0931 H         1 UNK         0.0600 
    214 H214       -7.7771  -23.2241  -48.3598 H         1 UNK         0.0600 
    215 H215       -5.0252  -25.5371  -50.2194 H         1 UNK         0.3000 
    216 H216       -6.4631  -24.8052  -52.6009 H         1 UNK         0.0600 
    217 H217       -4.3878  -27.0101  -52.1086 H         1 UNK         0.0600 
    218 H218       -5.4505  -26.8949  -53.5068 H         1 UNK         0.0600 
    219 H219       -6.1314  -27.1673  -51.9093 H         1 UNK         0.0600 
    220 H220       -3.0041  -24.8446  -51.7076 H         1 UNK         0.3000 
    221 H221       -2.0290  -23.8560  -54.2287 H         1 UNK         0.0600 
    222 H222       -0.5258  -25.1091  -52.8157 H         1 UNK         0.0600 
    223 H223       -0.8127  -24.0515  -51.4431 H         1 UNK         0.0600 
    224 H224        0.0856  -23.4605  -52.8397 H         1 UNK         0.0600 
    225 H225       -3.0769  -22.2838  -51.2096 H         1 UNK         0.3000 
    226 H226       -2.2547  -19.6194  -51.9379 H         1 UNK         0.0600 
    227 H227       -4.2608  -20.6409  -49.8571 H         1 UNK         0.0600 
    228 H228       -2.5696  -20.2203  -49.5786 H         1 UNK         0.0600 
    229 H229       -3.7238  -18.9715  -49.9946 H         1 UNK         0.0600 
    230 H230       -5.1940  -21.5225  -52.5566 H         1 UNK         0.3000 
    231 H231       -6.7077  -19.3030  -53.6593 H         1 UNK         0.0600 
    232 H232       -7.0804  -22.3347  -53.9073 H         1 UNK         0.0600 
    233 H233       -8.2413  -21.1154  -54.4188 H         1 UNK         0.0600 
    234 H234       -7.8447  -21.2868  -52.7156 H         1 UNK         0.0600 
    235 H235       -4.6752  -21.9419  -54.9864 H         1 UNK         0.3000 
    236 H236       -5.1461  -21.3271  -57.7315 H         1 UNK         0.0600 
    237 H237       -4.4885  -23.5747  -56.9839 H         1 UNK         0.0600 
    238 H238       -3.2943  -22.9622  -58.1168 H         1 UNK         0.0600 
    239 H239       -2.9422  -22.9774  -56.3917 H         1 UNK         0.0600 
    240 H240       -2.1907  -20.7928  -55.7124 H         1 UNK         0.3000 
    241 H241       -0.3384  -19.6655  -56.0015 H         1 UNK         0.0600 
    242 H242        0.1474  -20.8736  -59.5710 H         1 UNK         0.3800 
    243 H243       -0.9312  -21.4747  -58.3392 H         1 UNK         0.3800 
    244 H244       -2.2769  -17.5335  -56.9953 H         1 UNK         0.0800 
    245 H245       -0.5859  -17.1853  -56.7937 H         1 UNK         0.0800 
    246 H246        0.7630  -17.3073  -54.8323 H         1 UNK         0.0800 
    247 H247       -0.0225  -15.8114  -54.3886 H         1 UNK         0.0800 
@<TRIPOS>BOND
     1    1    2 1    
     2    1  127 1    
     3    1  128 1    
     4    1  129 1    
     5    2    3 2    
     6    2    4 am   BACKBONE|DICT|INTERRES
     7    4    5 1    
     8    4  130 1    
     9    5    6 1    
    10    5   65 1    
    11    5  131 1    
    12    6    7 1    
    13    6  132 1    
    14    6  133 1    
    15    7    8 1    
    16    8    9 1    
    17    8  134 1    
    18    8  135 1    
    19    9   10 ar   
    20    9   14 ar   
    21   10   11 ar   
    22   10  136 1    
    23   11   12 ar   
    24   11  126 1    
    25   12   13 ar   
    26   12  137 1    
    27   13   14 ar   
    28   13   15 1    
    29   14  138 1    
    30   15   16 1    
    31   15  139 1    
    32   15  140 1    
    33   16   17 1    
    34   17   18 1    
    35   17  141 1    
    36   17  142 1    
    37   18   19 1    
    38   18   67 1    
    39   18  143 1    
    40   19   20 am   BACKBONE|DICT|INTERRES
    41   19  144 1    
    42   20   21 2    
    43   20   22 1    
    44   22   23 1    
    45   22   24 1    
    46   22  145 1    
    47   23  146 1    
    48   23  147 1    
    49   23  148 1    
    50   24   25 am   BACKBONE|DICT|INTERRES
    51   24  149 1    
    52   25   26 2    
    53   25   27 1    
    54   27   28 1    
    55   27   29 1    
    56   27  150 1    
    57   28  151 1    
    58   28  152 1    
    59   28  153 1    
    60   29   30 am   BACKBONE|DICT|INTERRES
    61   29  154 1    
    62   30   31 2    
    63   30   32 1    
    64   32   33 1    
    65   32   34 1    
    66   32  155 1    
    67   33  156 1    
    68   33  157 1    
    69   33  158 1    
    70   34   35 am   BACKBONE|DICT|INTERRES
    71   34  159 1    
    72   35   36 2    
    73   35   37 1    
    74   37   38 1    
    75   37   39 1    
    76   37  160 1    
    77   38  161 1    
    78   38  162 1    
    79   38  163 1    
    80   39   40 am   BACKBONE|DICT|INTERRES
    81   39  164 1    
    82   40   41 2    
    83   40   42 1    
    84   42   43 1    
    85   42   44 1    
    86   42  165 1    
    87   43  166 1    
    88   43  167 1    
    89   43  168 1    
    90   44   45 am   BACKBONE|DICT|INTERRES
    91   44  169 1    
    92   45   46 2    
    93   45   47 1    
    94   47   48 1    
    95   47   49 1    
    96   47  170 1    
    97   48  171 1    
    98   48  172 1    
    99   48  173 1    
   100   49   50 am   BACKBONE|DICT|INTERRES
   101   49  174 1    
   102   50   51 2    
   103   50   52 1    
   104   52   53 1    
   105   52   54 1    
   106   52  175 1    
   107   53  176 1    
   108   53  177 1    
   109   53  178 1    
   110   54   55 am   BACKBONE|DICT|INTERRES
   111   54  179 1    
   112   55   56 2    
   113   55   57 1    
   114   57   58 1    
   115   57   59 1    
   116   57  180 1    
   117   58  181 1    
   118   58  182 1    
   119   58  183 1    
   120   59   60 am   BACKBONE|DICT|INTERRES
   121   59  184 1    
   122   60   61 2    
   123   60   62 1    
   124   62   63 1    
   125   62   64 1    
   126   62  185 1    
   127   63  186 1    
   128   63  187 1    
   129   63  188 1    
   130   64   65 am   BACKBONE|DICT|INTERRES
   131   64  189 1    
   132   65   66 2    
   133   67   68 2    
   134   67   69 am   BACKBONE|DICT|INTERRES
   135   69   70 1    
   136   69  190 1    
   137   70   71 1    
   138   70   72 1    
   139   70  191 1    
   140   71  192 1    
   141   71  193 1    
   142   71  194 1    
   143   72   73 2    
   144   72   74 am   BACKBONE|DICT|INTERRES
   145   74   75 1    
   146   74  195 1    
   147   75   76 1    
   148   75   77 1    
   149   75  196 1    
   150   76  197 1    
   151   76  198 1    
   152   76  199 1    
   153   77   78 2    
   154   77   79 am   BACKBONE|DICT|INTERRES
   155   79   80 1    
   156   79  200 1    
   157   80   81 1    
   158   80   82 1    
   159   80  201 1    
   160   81  202 1    
   161   81  203 1    
   162   81  204 1    
   163   82   83 2    
   164   82   84 am   BACKBONE|DICT|INTERRES
   165   84   85 1    
   166   84  205 1    
   167   85   86 1    
   168   85   87 1    
   169   85  206 1    
   170   86  207 1    
   171   86  208 1    
   172   86  209 1    
   173   87   88 2    
   174   87   89 am   BACKBONE|DICT|INTERRES
   175   89   90 1    
   176   89  210 1    
   177   90   91 1    
   178   90   92 1    
   179   90  211 1    
   180   91  212 1    
   181   91  213 1    
   182   91  214 1    
   183   92   93 2    
   184   92   94 am   BACKBONE|DICT|INTERRES
   185   94   95 1    
   186   94  215 1    
   187   95   96 1    
   188   95   97 1    
   189   95  216 1    
   190   96  217 1    
   191   96  218 1    
   192   96  219 1    
   193   97   98 2    
   194   97   99 am   BACKBONE|DICT|INTERRES
   195   99  100 1    
   196   99  220 1    
   197  100  101 1    
   198  100  102 1    
   199  100  221 1    
   200  101  222 1    
   201  101  223 1    
   202  101  224 1    
   203  102  103 2    
   204  102  104 am   BACKBONE|DICT|INTERRES
   205  104  105 1    
   206  104  225 1    
   207  105  106 1    
   208  105  107 1    
   209  105  226 1    
   210  106  227 1    
   211  106  228 1    
   212  106  229 1    
   213  107  108 2    
   214  107  109 am   BACKBONE|DICT|INTERRES
   215  109  110 1    
   216  109  230 1    
   217  110  111 1    
   218  110  112 1    
   219  110  231 1    
   220  111  232 1    
   221  111  233 1    
   222  111  234 1    
   223  112  113 2    
   224  112  114 am   BACKBONE|DICT|INTERRES
   225  114  115 1    
   226  114  235 1    
   227  115  116 1    
   228  115  117 1    
   229  115  236 1    
   230  116  237 1    
   231  116  238 1    
   232  116  239 1    
   233  117  118 2    
   234  117  119 am   BACKBONE|DICT|INTERRES
   235  119  120 1    
   236  119  240 1    
   237  120  121 1    
   238  120  124 1    
   239  120  241 1    
   240  121  122 am   BACKBONE|DICT|INTERRES
   241  121  123 2    
   242  122  242 1    
   243  122  243 1    
   244  124  125 1    
   245  124  244 1    
   246  124  245 1    
   247  125  126 1    
   248  126  246 1    
   249  126  247 1    
@<TRIPOS>SUBSTRUCTURE
     1 UNK         1 GROUP             0       ****    0 ROOT    
