@<TRIPOS>MOLECULE
3R540
247   249    1
SMALL
USER_CHARGES


@<TRIPOS>ATOM
      1 CA          6.2839  -14.9281  -50.2693 C.3       0 UNK        -0.1800 
      2 C           5.6170  -14.9060  -48.9016 C.2       0 UNK         0.5000 
      3 O           6.2503  -15.2518  -47.9030 O.2       0 UNK        -0.5000 
      4 N           4.3439  -14.4958  -48.8471 N.am      1 UNK        -0.5000 
      5 CA          3.5284  -14.4061  -47.6312 C.3       1 UNK         0.1400 
      6 C6          2.0135  -14.5031  -47.9446 C.3       23 UNK        -0.0398 
      7 S7          1.5592  -16.1910  -48.4554 S.3       23 UNK        -0.2404 
      8 C8          0.5468  -15.9192  -49.9478 C.3       23 UNK        -0.0205 
      9 C9         -0.2812  -17.1567  -50.2766 C.ar      23 UNK        -0.0193 
     10 C10        -1.6774  -17.0877  -50.3327 C.ar      23 UNK        -0.1150 
     11 C11        -2.4397  -18.2399  -50.5526 C.ar      23 UNK        -0.0193 
     12 C12        -1.7930  -19.4697  -50.7105 C.ar      23 UNK        -0.1150 
     13 C13        -0.3976  -19.5514  -50.6850 C.ar      23 UNK        -0.0193 
     14 C14         0.3498  -18.3849  -50.4940 C.ar      23 UNK        -0.1150 
     15 C15         0.2846  -20.9064  -50.8577 C.3       23 UNK        -0.0205 
     16 S16         1.6978  -21.1907  -49.7312 S.3       23 UNK        -0.2404 
     17 C17         0.9724  -20.8387  -48.0909 C.3       23 UNK        -0.0398 
     18 CA          0.5166  -22.0924  -47.3105 C.3       11 UNK         0.1400 
     19 N           0.1981  -21.7579  -45.9221 N.am      11 UNK        -0.5000 
     20 C          -0.1353  -22.6293  -44.9613 C.2       10 UNK         0.5000 
     21 O          -0.1820  -23.8476  -45.1246 O.2       10 UNK        -0.5000 
     22 CA         -0.5376  -22.0317  -43.6026 C.3       10 UNK         0.1400 
     23 CB          0.6971  -21.5888  -42.8036 C.3       10 UNK        -0.1800 
     24 N          -1.4616  -20.9077  -43.7520 N.am      10 UNK        -0.5000 
     25 C          -2.7128  -21.0201  -44.2221 C.2       9 UNK         0.5000 
     26 O          -3.2335  -22.0911  -44.5348 O.2       9 UNK        -0.5000 
     27 CA         -3.5044  -19.7128  -44.4047 C.3       9 UNK         0.1400 
     28 CB         -4.1374  -19.2746  -43.0759 C.3       9 UNK        -0.1800 
     29 N          -2.6894  -18.6229  -44.9431 N.am      9 UNK        -0.5000 
     30 C          -2.1248  -18.6374  -46.1594 C.2       8 UNK         0.5000 
     31 O          -2.2304  -19.5742  -46.9500 O.2       8 UNK        -0.5000 
     32 CA         -1.2380  -17.4375  -46.5285 C.3       8 UNK         0.1400 
     33 CB         -2.0749  -16.2004  -46.8793 C.3       8 UNK        -0.1800 
     34 N          -0.2893  -17.0818  -45.4762 N.am      8 UNK        -0.5000 
     35 C           0.6709  -17.8851  -45.0015 C.2       7 UNK         0.5000 
     36 O           0.8360  -19.0502  -45.3587 O.2       7 UNK        -0.5000 
     37 CA          1.5871  -17.2892  -43.9237 C.3       7 UNK         0.1400 
     38 CB          2.6685  -16.4023  -44.5594 C.3       7 UNK        -0.1800 
     39 N           0.8224  -16.5259  -42.9391 N.am      7 UNK        -0.5000 
     40 C           0.0728  -17.0896  -41.9816 C.2       6 UNK         0.5000 
     41 O           0.0109  -18.3036  -41.7846 O.2       6 UNK        -0.5000 
     42 CA         -0.7783  -16.1378  -41.1224 C.3       6 UNK         0.1400 
     43 CB          0.0547  -15.5504  -39.9737 C.3       6 UNK        -0.1800 
     44 N          -1.3711  -15.0494  -41.9009 N.am      6 UNK        -0.5000 
     45 C          -2.3095  -15.2209  -42.8435 C.2       5 UNK         0.5000 
     46 O          -2.7720  -16.3171  -43.1580 O.2       5 UNK        -0.5000 
     47 CA         -2.7924  -13.9618  -43.5873 C.3       5 UNK         0.1400 
     48 CB         -3.9655  -13.3153  -42.8359 C.3       5 UNK        -0.1800 
     49 N          -1.7537  -12.9547  -43.8119 N.am      5 UNK        -0.5000 
     50 C          -0.5815  -13.1542  -44.4300 C.2       4 UNK         0.5000 
     51 O          -0.2041  -14.2512  -44.8470 O.2       4 UNK        -0.5000 
     52 CA          0.3444  -11.9339  -44.5997 C.3       4 UNK         0.1400 
     53 CB         -0.2370  -10.6048  -44.0660 C.3       4 UNK        -0.1800 
     54 N           1.6660  -12.1828  -44.0229 N.am      4 UNK        -0.5000 
     55 C           1.9542  -12.4921  -42.7485 C.2       3 UNK         0.5000 
     56 O           1.0989  -12.6151  -41.8700 O.2       3 UNK        -0.5000 
     57 CA          3.4390  -12.7209  -42.3898 C.3       3 UNK         0.1400 
     58 CB          3.6210  -13.9915  -41.5414 C.3       3 UNK        -0.1800 
     59 N           4.3011  -12.8025  -43.5740 N.am      3 UNK        -0.5000 
     60 C           4.9078  -11.7567  -44.1536 C.2       2 UNK         0.5000 
     61 O           4.8569  -10.6074  -43.7150 O.2       2 UNK        -0.5000 
     62 CA          5.6708  -12.0329  -45.4648 C.3       2 UNK         0.1400 
     63 CB          7.1487  -12.3341  -45.1745 C.3       2 UNK        -0.1800 
     64 N           5.1087  -13.1274  -46.2624 N.am      2 UNK        -0.5000 
     65 C           3.8883  -13.1461  -46.8147 C.2       1 UNK         0.5000 
     66 O           3.0772  -12.2269  -46.6946 O.2       1 UNK        -0.5000 
     67 C          -0.6584  -22.8090  -48.0038 C.2       11 UNK         0.5000 
     68 O          -0.4638  -23.8938  -48.5517 O.2       11 UNK        -0.5000 
     69 N          -1.8620  -22.2243  -47.9259 N.am      12 UNK        -0.5000 
     70 CA         -3.0845  -22.7737  -48.5127 C.3       12 UNK         0.1400 
     71 CB         -4.2312  -21.7682  -48.3352 C.3       12 UNK        -0.1800 
     72 C          -3.4776  -24.1536  -47.9498 C.2       12 UNK         0.5000 
     73 O          -4.0542  -24.9587  -48.6806 O.2       12 UNK        -0.5000 
     74 N          -3.1457  -24.4104  -46.6782 N.am      13 UNK        -0.5000 
     75 CA         -3.3371  -25.7011  -46.0259 C.3       13 UNK         0.1400 
     76 CB         -3.3851  -25.5019  -44.5023 C.3       13 UNK        -0.1800 
     77 C          -2.2494  -26.7195  -46.4153 C.2       13 UNK         0.5000 
     78 O          -2.5825  -27.8301  -46.8306 O.2       13 UNK        -0.5000 
     79 N          -0.9752  -26.3450  -46.2369 N.am      14 UNK        -0.5000 
     80 CA          0.1623  -27.2615  -46.3236 C.3       14 UNK         0.1400 
     81 CB          1.3056  -26.7338  -45.4423 C.3       14 UNK        -0.1800 
     82 C           0.6641  -27.4987  -47.7569 C.2       14 UNK         0.5000 
     83 O           0.9543  -28.6426  -48.1104 O.2       14 UNK        -0.5000 
     84 N           0.7938  -26.4231  -48.5419 N.am      15 UNK        -0.5000 
     85 CA          1.3778  -26.4453  -49.8851 C.3       15 UNK         0.1400 
     86 CB          2.2962  -25.2230  -50.0485 C.3       15 UNK        -0.1800 
     87 C           0.3109  -26.4571  -50.9915 C.2       15 UNK         0.5000 
     88 O           0.6232  -26.8591  -52.1130 O.2       15 UNK        -0.5000 
     89 N          -0.9121  -26.0146  -50.6635 N.am      16 UNK        -0.5000 
     90 CA         -2.0452  -25.7920  -51.5627 C.3       16 UNK         0.1400 
     91 CB         -2.5333  -27.1058  -52.2131 C.3       16 UNK        -0.1800 
     92 C          -1.7182  -24.6634  -52.5581 C.2       16 UNK         0.5000 
     93 O          -1.7049  -23.5031  -52.1469 O.2       16 UNK        -0.5000 
     94 N          -1.4464  -25.0125  -53.8242 N.am      17 UNK        -0.5000 
     95 CA         -0.9908  -24.1377  -54.9096 C.3       17 UNK         0.1400 
     96 CB          0.4671  -23.6929  -54.6523 C.3       17 UNK        -0.1800 
     97 C          -1.9565  -22.9624  -55.1688 C.2       17 UNK         0.5000 
     98 O          -2.9855  -23.1549  -55.8169 O.2       17 UNK        -0.5000 
     99 N          -1.6235  -21.7793  -54.6371 N.am      18 UNK        -0.5000 
    100 CA        -2.3998  -20.5417  -54.7289 C.3       18 UNK         0.1400 
    101 CB        -1.4593  -19.3520  -54.4736 C.3       18 UNK        -0.1800 
    102 C         -3.6333  -20.4925  -53.8004 C.2       18 UNK         0.5000 
    103 O         -4.2911  -19.4538  -53.7502 O.2       18 UNK        -0.5000 
    104 N         -3.9406  -21.5963  -53.0985 N.am      19 UNK        -0.5000 
    105 CA        -5.0515  -21.7939  -52.1552 C.3       19 UNK         0.1400 
    106 CB        -5.1753  -23.2887  -51.8281 C.3       19 UNK        -0.1800 
    107 C         -6.4260  -21.2505  -52.5930 C.2       19 UNK         0.5000 
    108 O         -7.1921  -20.8078  -51.7387 O.2       19 UNK        -0.5000 
    109 N         -6.7022  -21.2507  -53.9042 N.am      20 UNK        -0.5000 
    110 CA        -7.9049  -20.6750  -54.5110 C.3       20 UNK         0.1400 
    111 CB        -7.8865  -20.9562  -56.0208 C.3       20 UNK        -0.1800 
    112 C         -8.0794  -19.1640  -54.2462 C.2       20 UNK         0.5000 
    113 O         -9.2144  -18.7015  -54.1265 O.2       20 UNK        -0.5000 
    114 N         -6.9658  -18.4269  -54.1189 N.am      21 UNK        -0.5000 
    115 CA        -6.9513  -16.9991  -53.7881 C.3       21 UNK         0.1400 
    116 CB        -5.5992  -16.3983  -54.2039 C.3       21 UNK        -0.1800 
    117 C         -7.2346  -16.7229  -52.2974 C.2       21 UNK         0.5000 
    118 O         -7.6031  -15.5997  -51.9524 O.2       21 UNK        -0.5000 
    119 N         -7.0698  -17.7449  -51.4486 N.am      22 UNK        -0.5000 
    120 CA        -7.3836  -17.7210  -50.0122 C.3       22 UNK         0.1400 
    121 C         -8.8617  -18.1087  -49.7022 C.2       22 UNK         0.5000 
    122 N         -9.6896  -18.4569  -50.6813 N.am      22 UNK        -0.7600 
    123 O         -9.2766  -18.0717  -48.5470 O.2       22 UNK        -0.5000 
    124 C124       -6.3834  -18.5934  -49.2053 C.3       23 UNK        -0.0398 
    125 S125       -4.7319  -17.8375  -49.0276 S.3       23 UNK        -0.2404 
    126 C126       -3.9576  -18.1562  -50.6424 C.3       23 UNK        -0.0205 
    127 H127        7.1527  -14.2699  -50.2735 H         1 UNK         0.0600 
    128 H128        5.6048  -14.6008  -51.0571 H         1 UNK         0.0600 
    129 H129        6.6183  -15.9379  -50.5067 H         1 UNK         0.0600 
    130 H130        3.8848  -14.2087  -49.6994 H         1 UNK         0.3000 
    131 H131        3.7817  -15.2552  -46.9941 H         1 UNK         0.0600 
    132 H132        1.7259  -13.7794  -48.7088 H         1 UNK         0.0800 
    133 H133        1.4148  -14.2719  -47.0619 H         1 UNK         0.0800 
    134 H134       -0.1052  -15.0593  -49.7872 H         1 UNK         0.0800 
    135 H135        1.1945  -15.6756  -50.7907 H         1 UNK         0.0800 
    136 H136       -2.1775  -16.1407  -50.1870 H         1 UNK         0.1150 
    137 H137       -2.3765  -20.3662  -50.8645 H         1 UNK         0.1150 
    138 H138        1.4289  -18.4373  -50.4648 H         1 UNK         0.1150 
    139 H139       -0.4352  -21.7121  -50.7120 H         1 UNK         0.0800 
    140 H140        0.6343  -20.9925  -51.8867 H         1 UNK         0.0800 
    141 H141        0.1592  -20.1173  -48.1700 H         1 UNK         0.0800 
    142 H142        1.7506  -20.3281  -47.5227 H         1 UNK         0.0800 
    143 H143        1.3536  -22.7932  -47.2807 H         1 UNK         0.0600 
    144 H144        0.2391  -20.7688  -45.6848 H         1 UNK         0.3000 
    145 H145       -1.0458  -22.8130  -43.0334 H         1 UNK         0.0600 
    146 H146        1.3917  -22.4186  -42.6678 H         1 UNK         0.0600 
    147 H147        1.2385  -20.7853  -43.3034 H         1 UNK         0.0600 
    148 H148        0.4166  -21.2333  -41.8119 H         1 UNK         0.0600 
    149 H149       -1.1029  -19.9887  -43.5327 H         1 UNK         0.3000 
    150 H150       -4.3085  -19.9096  -45.1169 H         1 UNK         0.0600 
    151 H151       -4.7600  -20.0668  -42.6583 H         1 UNK         0.0600 
    152 H152       -4.7726  -18.3993  -43.2128 H         1 UNK         0.0600 
    153 H153       -3.3789  -19.0238  -42.3329 H         1 UNK         0.0600 
    154 H154       -2.5655  -17.8091  -44.3462 H         1 UNK         0.3000 
    155 H155       -0.6629  -17.7228  -47.4100 H         1 UNK         0.0600 
    156 H156       -2.7326  -15.9164  -46.0600 H         1 UNK         0.0600 
    157 H157       -1.4403  -15.3474  -47.1201 H         1 UNK         0.0600 
    158 H158       -2.7006  -16.3865  -47.7480 H         1 UNK         0.0600 
    159 H159       -0.3256  -16.1219  -45.1444 H         1 UNK         0.3000 
    160 H160        2.0875  -18.1191  -43.4196 H         1 UNK         0.0600 
    161 H161        2.2549  -15.4687  -44.9406 H         1 UNK         0.0600 
    162 H162        3.1489  -16.9174  -45.3924 H         1 UNK         0.0600 
    163 H163        3.4531  -16.1617  -43.8444 H         1 UNK         0.0600 
    164 H164        0.7499  -15.5287  -43.0856 H         1 UNK         0.3000 
    165 H165       -1.5918  -16.7226  -40.6878 H         1 UNK         0.0600 
    166 H166       -0.5586  -14.9331  -39.3171 H         1 UNK         0.0600 
    167 H167        0.4904  -16.3419  -39.3627 H         1 UNK         0.0600 
    168 H168        0.8736  -14.9336  -40.3445 H         1 UNK         0.0600 
    169 H169       -1.0144  -14.1181  -41.7331 H         1 UNK         0.3000 
    170 H170       -3.1558  -14.2744  -44.5663 H         1 UNK         0.0600 
    171 H171       -4.7689  -14.0350  -42.6723 H         1 UNK         0.0600 
    172 H172       -3.6590  -12.9377  -41.8595 H         1 UNK         0.0600 
    173 H173       -4.3871  -12.4839  -43.4011 H         1 UNK         0.0600 
    174 H174       -1.9587  -12.0235  -43.4807 H         1 UNK         0.3000 
    175 H175        0.4941  -11.8195  -45.6741 H         1 UNK         0.0600 
    176 H176       -0.4250  -10.6360  -42.9922 H         1 UNK         0.0600 
    177 H177        0.4512   -9.7804  -44.2532 H         1 UNK         0.0600 
    178 H178       -1.1740  -10.3539  -44.5647 H         1 UNK         0.0600 
    179 H179        2.4279  -12.1380  -44.6886 H         1 UNK         0.3000 
    180 H180        3.7505  -11.8725  -41.7771 H         1 UNK         0.0600 
    181 H181        3.1765  -14.8655  -42.0142 H         1 UNK         0.0600 
    182 H182        3.1457  -13.8764  -40.5667 H         1 UNK         0.0600 
    183 H183        4.6751  -14.2022  -41.3605 H         1 UNK         0.0600 
    184 H184        4.3995  -13.7105  -44.0035 H         1 UNK         0.3000 
    185 H185        5.6200  -11.1247  -46.0690 H         1 UNK         0.0600 
    186 H186        7.6088  -11.5252  -44.6052 H         1 UNK         0.0600 
    187 H187        7.2660  -13.2515  -44.5964 H         1 UNK         0.0600 
    188 H188        7.7174  -12.4445  -46.0981 H         1 UNK         0.0600 
    189 H189        5.7264  -13.9054  -46.4719 H         1 UNK         0.3000 
    190 H190       -1.9482  -21.3169  -47.4703 H         1 UNK         0.3000 
    191 H191       -2.8984  -22.8954  -49.5810 H         1 UNK         0.0600 
    192 H192       -4.4309  -21.5713  -47.2812 H         1 UNK         0.0600 
    193 H193       -5.1539  -22.1382  -48.7838 H         1 UNK         0.0600 
    194 H194       -3.9944  -20.8172  -48.8115 H         1 UNK         0.0600 
    195 H195       -2.7047  -23.6811  -46.1320 H         1 UNK         0.3000 
    196 H196       -4.3020  -26.1097  -46.3342 H         1 UNK         0.0600 
    197 H197       -3.5254  -26.4530  -43.9874 H         1 UNK         0.0600 
    198 H198       -4.2134  -24.8525  -44.2183 H         1 UNK         0.0600 
    199 H199       -2.4674  -25.0530  -44.1209 H         1 UNK         0.0600 
    200 H200       -0.7739  -25.4078  -45.8932 H         1 UNK         0.3000 
    201 H201       -0.1409  -28.2290  -45.9171 H         1 UNK         0.0600 
    202 H202        0.9833  -26.6149  -44.4077 H         1 UNK         0.0600 
    203 H203        1.6712  -25.7672  -45.7912 H         1 UNK         0.0600 
    204 H204        2.1505  -27.4236  -45.4431 H         1 UNK         0.0600 
    205 H205        0.4608  -25.5199  -48.2160 H         1 UNK         0.3000 
    206 H206        1.9915  -27.3395  -50.0124 H         1 UNK         0.0600 
    207 H207        2.7999  -25.2407  -51.0157 H         1 UNK         0.0600 
    208 H208        1.7397  -24.2876  -49.9900 H         1 UNK         0.0600 
    209 H209        3.0686  -25.2027  -49.2797 H         1 UNK         0.0600 
    210 H210       -1.0149  -25.6198  -49.7365 H         1 UNK         0.3000 
    211 H211       -2.8576  -25.4250  -50.9387 H         1 UNK         0.0600 
    212 H212       -1.7765  -27.5778  -52.8393 H         1 UNK         0.0600 
    213 H213       -3.4114  -26.9273  -52.8351 H         1 UNK         0.0600 
    214 H214       -2.8234  -27.8281  -51.4500 H         1 UNK         0.0600 
    215 H215       -1.4952  -25.9948  -54.0542 H         1 UNK         0.3000 
    216 H216       -0.9930  -24.7412  -55.8184 H         1 UNK         0.0600 
    217 H217        0.5801  -23.1561  -53.7098 H         1 UNK         0.0600 
    218 H218        0.8281  -23.0442  -55.4515 H         1 UNK         0.0600 
    219 H219        1.1321  -24.5559  -54.6146 H         1 UNK         0.0600 
    220 H220       -0.7886  -21.7395  -54.0711 H         1 UNK         0.3000 
    221 H221       -2.7784  -20.4524  -55.7490 H         1 UNK         0.0600 
    222 H222       -1.0204  -19.3916  -53.4776 H         1 UNK         0.0600 
    223 H223       -0.6439  -19.3332  -55.1967 H         1 UNK         0.0600 
    224 H224       -1.9874  -18.4015  -54.5605 H         1 UNK         0.0600 
    225 H225       -3.2883  -22.3672  -53.1670 H         1 UNK         0.3000 
    226 H226       -4.7830  -21.2777  -51.2342 H         1 UNK         0.0600 
    227 H227       -4.2879  -23.6519  -51.3168 H         1 UNK         0.0600 
    228 H228       -6.0201  -23.4812  -51.1650 H         1 UNK         0.0600 
    229 H229       -5.3175  -23.8886  -52.7277 H         1 UNK         0.0600 
    230 H230       -6.0086  -21.6226  -54.5363 H         1 UNK         0.3000 
    231 H231       -8.7683  -21.1843  -54.0780 H         1 UNK         0.0600 
    232 H232       -8.7819  -20.5616  -56.5030 H         1 UNK         0.0600 
    233 H233       -7.8555  -22.0270  -56.2230 H         1 UNK         0.0600 
    234 H234       -7.0233  -20.4970  -56.5043 H         1 UNK         0.0600 
    235 H235       -6.0579  -18.8832  -54.1702 H         1 UNK         0.3000 
    236 H236       -7.7321  -16.5016  -54.3673 H         1 UNK         0.0600 
    237 H237       -5.4062  -16.5576  -55.2648 H         1 UNK         0.0600 
    238 H238       -5.5796  -15.3221  -54.0277 H         1 UNK         0.0600 
    239 H239       -4.7721  -16.8354  -53.6446 H         1 UNK         0.0600 
    240 H240       -6.8284  -18.6519  -51.8255 H         1 UNK         0.3000 
    241 H241       -7.2820  -16.6954  -49.6526 H         1 UNK         0.0600 
    242 H242       -9.3737  -18.4917  -51.6387 H         1 UNK         0.3800 
    243 H243      -10.6432  -18.6967  -50.4602 H         1 UNK         0.3800 
    244 H244       -6.7448  -18.7497  -48.1876 H         1 UNK         0.0800 
    245 H245       -6.2873  -19.5901  -49.6347 H         1 UNK         0.0800 
    246 H246       -4.2315  -17.3578  -51.3319 H         1 UNK         0.0800 
    247 H247       -4.3614  -19.0732  -51.0647 H         1 UNK         0.0800 
@<TRIPOS>BOND
     1    1    2 1    
     2    1  127 1    
     3    1  128 1    
     4    1  129 1    
     5    2    3 2    
     6    2    4 am   BACKBONE|DICT|INTERRES
     7    4    5 1    
     8    4  130 1    
     9    5    6 1    
    10    5   65 1    
    11    5  131 1    
    12    6    7 1    
    13    6  132 1    
    14    6  133 1    
    15    7    8 1    
    16    8    9 1    
    17    8  134 1    
    18    8  135 1    
    19    9   10 ar   
    20    9   14 ar   
    21   10   11 ar   
    22   10  136 1    
    23   11   12 ar   
    24   11  126 1    
    25   12   13 ar   
    26   12  137 1    
    27   13   14 ar   
    28   13   15 1    
    29   14  138 1    
    30   15   16 1    
    31   15  139 1    
    32   15  140 1    
    33   16   17 1    
    34   17   18 1    
    35   17  141 1    
    36   17  142 1    
    37   18   19 1    
    38   18   67 1    
    39   18  143 1    
    40   19   20 am   BACKBONE|DICT|INTERRES
    41   19  144 1    
    42   20   21 2    
    43   20   22 1    
    44   22   23 1    
    45   22   24 1    
    46   22  145 1    
    47   23  146 1    
    48   23  147 1    
    49   23  148 1    
    50   24   25 am   BACKBONE|DICT|INTERRES
    51   24  149 1    
    52   25   26 2    
    53   25   27 1    
    54   27   28 1    
    55   27   29 1    
    56   27  150 1    
    57   28  151 1    
    58   28  152 1    
    59   28  153 1    
    60   29   30 am   BACKBONE|DICT|INTERRES
    61   29  154 1    
    62   30   31 2    
    63   30   32 1    
    64   32   33 1    
    65   32   34 1    
    66   32  155 1    
    67   33  156 1    
    68   33  157 1    
    69   33  158 1    
    70   34   35 am   BACKBONE|DICT|INTERRES
    71   34  159 1    
    72   35   36 2    
    73   35   37 1    
    74   37   38 1    
    75   37   39 1    
    76   37  160 1    
    77   38  161 1    
    78   38  162 1    
    79   38  163 1    
    80   39   40 am   BACKBONE|DICT|INTERRES
    81   39  164 1    
    82   40   41 2    
    83   40   42 1    
    84   42   43 1    
    85   42   44 1    
    86   42  165 1    
    87   43  166 1    
    88   43  167 1    
    89   43  168 1    
    90   44   45 am   BACKBONE|DICT|INTERRES
    91   44  169 1    
    92   45   46 2    
    93   45   47 1    
    94   47   48 1    
    95   47   49 1    
    96   47  170 1    
    97   48  171 1    
    98   48  172 1    
    99   48  173 1    
   100   49   50 am   BACKBONE|DICT|INTERRES
   101   49  174 1    
   102   50   51 2    
   103   50   52 1    
   104   52   53 1    
   105   52   54 1    
   106   52  175 1    
   107   53  176 1    
   108   53  177 1    
   109   53  178 1    
   110   54   55 am   BACKBONE|DICT|INTERRES
   111   54  179 1    
   112   55   56 2    
   113   55   57 1    
   114   57   58 1    
   115   57   59 1    
   116   57  180 1    
   117   58  181 1    
   118   58  182 1    
   119   58  183 1    
   120   59   60 am   BACKBONE|DICT|INTERRES
   121   59  184 1    
   122   60   61 2    
   123   60   62 1    
   124   62   63 1    
   125   62   64 1    
   126   62  185 1    
   127   63  186 1    
   128   63  187 1    
   129   63  188 1    
   130   64   65 am   BACKBONE|DICT|INTERRES
   131   64  189 1    
   132   65   66 2    
   133   67   68 2    
   134   67   69 am   BACKBONE|DICT|INTERRES
   135   69   70 1    
   136   69  190 1    
   137   70   71 1    
   138   70   72 1    
   139   70  191 1    
   140   71  192 1    
   141   71  193 1    
   142   71  194 1    
   143   72   73 2    
   144   72   74 am   BACKBONE|DICT|INTERRES
   145   74   75 1    
   146   74  195 1    
   147   75   76 1    
   148   75   77 1    
   149   75  196 1    
   150   76  197 1    
   151   76  198 1    
   152   76  199 1    
   153   77   78 2    
   154   77   79 am   BACKBONE|DICT|INTERRES
   155   79   80 1    
   156   79  200 1    
   157   80   81 1    
   158   80   82 1    
   159   80  201 1    
   160   81  202 1    
   161   81  203 1    
   162   81  204 1    
   163   82   83 2    
   164   82   84 am   BACKBONE|DICT|INTERRES
   165   84   85 1    
   166   84  205 1    
   167   85   86 1    
   168   85   87 1    
   169   85  206 1    
   170   86  207 1    
   171   86  208 1    
   172   86  209 1    
   173   87   88 2    
   174   87   89 am   BACKBONE|DICT|INTERRES
   175   89   90 1    
   176   89  210 1    
   177   90   91 1    
   178   90   92 1    
   179   90  211 1    
   180   91  212 1    
   181   91  213 1    
   182   91  214 1    
   183   92   93 2    
   184   92   94 am   BACKBONE|DICT|INTERRES
   185   94   95 1    
   186   94  215 1    
   187   95   96 1    
   188   95   97 1    
   189   95  216 1    
   190   96  217 1    
   191   96  218 1    
   192   96  219 1    
   193   97   98 2    
   194   97   99 am   BACKBONE|DICT|INTERRES
   195   99  100 1    
   196   99  220 1    
   197  100  101 1    
   198  100  102 1    
   199  100  221 1    
   200  101  222 1    
   201  101  223 1    
   202  101  224 1    
   203  102  103 2    
   204  102  104 am   BACKBONE|DICT|INTERRES
   205  104  105 1    
   206  104  225 1    
   207  105  106 1    
   208  105  107 1    
   209  105  226 1    
   210  106  227 1    
   211  106  228 1    
   212  106  229 1    
   213  107  108 2    
   214  107  109 am   BACKBONE|DICT|INTERRES
   215  109  110 1    
   216  109  230 1    
   217  110  111 1    
   218  110  112 1    
   219  110  231 1    
   220  111  232 1    
   221  111  233 1    
   222  111  234 1    
   223  112  113 2    
   224  112  114 am   BACKBONE|DICT|INTERRES
   225  114  115 1    
   226  114  235 1    
   227  115  116 1    
   228  115  117 1    
   229  115  236 1    
   230  116  237 1    
   231  116  238 1    
   232  116  239 1    
   233  117  118 2    
   234  117  119 am   BACKBONE|DICT|INTERRES
   235  119  120 1    
   236  119  240 1    
   237  120  121 1    
   238  120  124 1    
   239  120  241 1    
   240  121  122 am   BACKBONE|DICT|INTERRES
   241  121  123 2    
   242  122  242 1    
   243  122  243 1    
   244  124  125 1    
   245  124  244 1    
   246  124  245 1    
   247  125  126 1    
   248  126  246 1    
   249  126  247 1    
@<TRIPOS>SUBSTRUCTURE
     1 UNK         1 GROUP             0       ****    0 ROOT    
