@<TRIPOS>MOLECULE
3R540
247   249    1
SMALL
USER_CHARGES


@<TRIPOS>ATOM
      1 CA         -2.2947  -15.2463  -48.5588 C.3       0 UNK        -0.1800 
      2 C          -1.3702  -14.0680  -48.2875 C.2       0 UNK         0.5000 
      3 O          -1.8323  -12.9316  -48.1787 O.2       0 UNK        -0.5000 
      4 N          -0.0653  -14.3347  -48.1677 N.am      1 UNK        -0.5000 
      5 CA          0.9968  -13.3748  -47.8540 C.3       1 UNK         0.1400 
      6 C6          2.3880  -13.8845  -48.3240 C.3       23 UNK        -0.0398 
      7 S7          2.7894  -15.6062  -47.8355 S.3       23 UNK        -0.2404 
      8 C8          2.9105  -16.4373  -49.4505 C.3       23 UNK        -0.0205 
      9 C9          1.5439  -16.7132  -50.0595 C.ar      23 UNK        -0.0193 
     10 C10         0.9841  -15.8274  -50.9854 C.ar      23 UNK        -0.1150 
     11 C11        -0.2642  -16.0935  -51.5532 C.ar      23 UNK        -0.0193 
     12 C12        -0.9428  -17.2641  -51.2045 C.ar      23 UNK        -0.1150 
     13 C13        -0.3880  -18.1704  -50.2972 C.ar      23 UNK        -0.0193 
     14 C14         0.8490  -17.8751  -49.7122 C.ar      23 UNK        -0.1150 
     15 C15        -1.1526  -19.4478  -49.9646 C.3       23 UNK        -0.0205 
     16 S16        -0.1060  -20.9406  -49.9143 S.3       23 UNK        -0.2404 
     17 C17         0.3075  -21.0096  -48.1380 C.3       23 UNK        -0.0398 
     18 CA         -0.2320  -22.2577  -47.4007 C.3       11 UNK         0.1400 
     19 N           0.2204  -22.2616  -46.0090 N.am      11 UNK        -0.5000 
     20 C           0.0808  -23.2772  -45.1480 C.2       10 UNK         0.5000 
     21 O          -0.4192  -24.3615  -45.4420 O.2       10 UNK        -0.5000 
     22 CA          0.5187  -23.0108  -43.6973 C.3       10 UNK         0.1400 
     23 CB          2.0469  -23.0795  -43.5612 C.3       10 UNK        -0.1800 
     24 N           0.0317  -21.7218  -43.2028 N.am      10 UNK        -0.5000 
     25 C          -1.2664  -21.4134  -43.0648 C.2       9 UNK         0.5000 
     26 O          -2.1834  -22.2052  -43.2859 O.2       9 UNK        -0.5000 
     27 CA         -1.6002  -19.9699  -42.6502 C.3       9 UNK         0.1400 
     28 CB         -1.4421  -19.7930  -41.1329 C.3       9 UNK        -0.1800 
     29 N          -0.7908  -18.9727  -43.3530 N.am      9 UNK        -0.5000 
     30 C          -0.8225  -18.7567  -44.6764 C.2       8 UNK         0.5000 
     31 O          -1.5607  -19.3623  -45.4499 O.2       8 UNK        -0.5000 
     32 CA          0.1742  -17.7318  -45.2445 C.3       8 UNK         0.1400 
     33 CB         -0.3108  -16.2983  -44.9970 C.3       8 UNK        -0.1800 
     34 N           1.5184  -17.9026  -44.6968 N.am      8 UNK        -0.5000 
     35 C           2.2647  -19.0055  -44.8502 C.2       7 UNK         0.5000 
     36 O           1.9193  -19.9830  -45.5139 O.2       7 UNK        -0.5000 
     37 CA          3.5949  -19.0454  -44.0835 C.3       7 UNK         0.1400 
     38 CB          4.6959  -18.3014  -44.8550 C.3       7 UNK        -0.1800 
     39 N           3.4533  -18.4810  -42.7413 N.am      7 UNK        -0.5000 
     40 C           2.8002  -19.0821  -41.7365 C.2       6 UNK         0.5000 
     41 O           2.2809  -20.1948  -41.8286 O.2       6 UNK        -0.5000 
     42 CA          2.6747  -18.2925  -40.4194 C.3       6 UNK         0.1400 
     43 CB          3.9445  -18.4499  -39.5699 C.3       6 UNK        -0.1800 
     44 N           2.4052  -16.8689  -40.6313 N.am      6 UNK        -0.5000 
     45 C           1.2711  -16.3887  -41.1593 C.2       5 UNK         0.5000 
     46 O           0.3229  -17.0970  -41.4929 O.2       5 UNK        -0.5000 
     47 CA          1.1900  -14.8686  -41.3938 C.3       5 UNK         0.1400 
     48 CB          0.6626  -14.1630  -40.1359 C.3       5 UNK        -0.1800 
     49 N           2.4416  -14.2312  -41.8150 N.am      5 UNK        -0.5000 
     50 C           3.2148  -14.6115  -42.8419 C.2       4 UNK         0.5000 
     51 O           3.0306  -15.6416  -43.4918 O.2       4 UNK        -0.5000 
     52 CA          4.3419  -13.6383  -43.2219 C.3       4 UNK         0.1400 
     53 CB          5.2550  -14.1920  -44.3308 C.3       4 UNK        -0.1800 
     54 N           3.7064  -12.4168  -43.6988 N.am      4 UNK        -0.5000 
     55 C           3.7918  -11.2014  -43.1460 C.2       3 UNK         0.5000 
     56 O           4.5254  -10.9339  -42.1938 O.2       3 UNK        -0.5000 
     57 CA          2.8846  -10.1000  -43.7395 C.3       3 UNK         0.1400 
     58 CB          3.6576   -9.2692  -44.7749 C.3       3 UNK        -0.1800 
     59 N           1.6666  -10.6246  -44.3655 N.am      3 UNK        -0.5000 
     60 C           0.6752  -11.2459  -43.7109 C.2       2 UNK         0.5000 
     61 O           0.6196  -11.3211  -42.4833 O.2       2 UNK        -0.5000 
     62 CA         -0.4264  -11.9269  -44.5536 C.3       2 UNK         0.1400 
     63 CB         -1.7014  -11.0703  -44.5590 C.3       2 UNK        -0.1800 
     64 N          -0.0814  -12.2624  -45.9427 N.am      2 UNK        -0.5000 
     65 C           0.9684  -12.9836  -46.3593 C.2       1 UNK         0.5000 
     66 O           1.8705  -13.3497  -45.6100 O.2       1 UNK        -0.5000 
     67 C          -1.7666  -22.4147  -47.5089 C.2       11 UNK         0.5000 
     68 O          -2.2382  -23.1945  -48.3370 O.2       11 UNK        -0.5000 
     69 N          -2.5217  -21.7172  -46.6487 N.am      12 UNK        -0.5000 
     70 CA         -3.9780  -21.8199  -46.5586 C.3       12 UNK         0.1400 
     71 CB         -4.5267  -20.7568  -45.5962 C.3       12 UNK        -0.1800 
     72 C          -4.4652  -23.2252  -46.1688 C.2       12 UNK         0.5000 
     73 O          -5.4421  -23.7064  -46.7427 O.2       12 UNK        -0.5000 
     74 N          -3.7613  -23.8660  -45.2280 N.am      13 UNK        -0.5000 
     75 CA         -4.0223  -25.2387  -44.8043 C.3       13 UNK         0.1400 
     76 CB         -3.2829  -25.5139  -43.4855 C.3       13 UNK        -0.1800 
     77 C          -3.6356  -26.2727  -45.8784 C.2       13 UNK         0.5000 
     78 O          -4.4217  -27.1783  -46.1591 O.2       13 UNK        -0.5000 
     79 N          -2.4297  -26.1328  -46.4442 N.am      14 UNK        -0.5000 
     80 CA         -1.8372  -27.1060  -47.3610 C.3       14 UNK         0.1400 
     81 CB         -0.3114  -26.9240  -47.3727 C.3       14 UNK        -0.1800 
     82 C          -2.3835  -27.0348  -48.7967 C.2       14 UNK         0.5000 
     83 O          -2.5096  -28.0798  -49.4369 O.2       14 UNK        -0.5000 
     84 N          -2.6562  -25.8215  -49.2925 N.am      15 UNK        -0.5000 
     85 CA         -2.9227  -25.5499  -50.7065 C.3       15 UNK         0.1400 
     86 CB         -1.6460  -24.9817  -51.3505 C.3       15 UNK        -0.1800 
     87 C          -4.1466  -24.6412  -50.9177 C.2       15 UNK         0.5000 
     88 O          -4.2536  -24.0041  -51.9640 O.2       15 UNK        -0.5000 
     89 N          -5.0604  -24.6074  -49.9363 N.am      16 UNK        -0.5000 
     90 CA         -6.3938  -23.9854  -49.9830 C.3       16 UNK         0.1400 
     91 CB         -7.2770  -24.6972  -51.0299 C.3       16 UNK        -0.1800 
     92 C          -6.4129  -22.4510  -50.1716 C.2       16 UNK         0.5000 
     93 O          -7.4746  -21.8920  -50.4517 O.2       16 UNK        -0.5000 
     94 N          -5.2561  -21.7952  -50.0085 N.am      17 UNK        -0.5000 
     95 CA         -4.9769  -20.3575  -50.1234 C.3       17 UNK         0.1400 
     96 CB         -5.8413  -19.5177  -49.1617 C.3       17 UNK        -0.1800 
     97 C          -5.0628  -19.7963  -51.5553 C.2       17 UNK         0.5000 
     98 O          -4.1675  -19.0532  -51.9580 O.2       17 UNK        -0.5000 
     99 N          -6.1171  -20.1513  -52.2932 N.am      18 UNK        -0.5000 
    100 CA        -6.4053  -19.7031  -53.6508 C.3       18 UNK         0.1400 
    101 CB        -7.5606  -18.6904  -53.5996 C.3       18 UNK        -0.1800 
    102 C         -6.7628  -20.9018  -54.5409 C.2       18 UNK         0.5000 
    103 O         -7.0497  -21.9890  -54.0334 O.2       18 UNK        -0.5000 
    104 N         -6.7278  -20.6741  -55.8615 N.am      19 UNK        -0.5000 
    105 CA        -6.9828  -21.6042  -56.9721 C.3       19 UNK         0.1400 
    106 CB        -8.3933  -22.2211  -56.8995 C.3       19 UNK        -0.1800 
    107 C         -5.8932  -22.6815  -57.1246 C.2       19 UNK         0.5000 
    108 O         -5.2951  -22.7953  -58.1948 O.2       19 UNK        -0.5000 
    109 N         -5.6209  -23.4138  -56.0400 N.am      20 UNK        -0.5000 
    110 CA        -4.4910  -24.3335  -55.8988 C.3       20 UNK         0.1400 
    111 CB        -4.9137  -25.4941  -54.9835 C.3       20 UNK        -0.1800 
    112 C         -3.2217  -23.6219  -55.3779 C.2       20 UNK         0.5000 
    113 O         -2.1723  -24.2580  -55.2705 O.2       20 UNK        -0.5000 
    114 N         -3.3285  -22.3193  -55.0896 N.am      21 UNK        -0.5000 
    115 CA        -2.2602  -21.4322  -54.6481 C.3       21 UNK         0.1400 
    116 CB        -2.0507  -21.5732  -53.1302 C.3       21 UNK        -0.1800 
    117 C         -2.5702  -19.9905  -55.0925 C.2       21 UNK         0.5000 
    118 O         -3.5394  -19.7671  -55.8232 O.2       21 UNK        -0.5000 
    119 N         -1.7050  -19.0564  -54.6812 N.am      22 UNK        -0.5000 
    120 CA        -1.6369  -17.6514  -55.1220 C.3       22 UNK         0.1400 
    121 C         -2.9185  -16.7901  -54.8949 C.2       22 UNK         0.5000 
    122 N         -3.7707  -17.0868  -53.9234 N.am      22 UNK        -0.7600 
    123 O         -3.1600  -15.8421  -55.6377 O.2       22 UNK        -0.5000 
    124 C124       -0.2951  -17.0173  -54.6219 C.3       23 UNK        -0.0398 
    125 S125       -0.1927  -15.2295  -54.2216 S.3       23 UNK        -0.2404 
    126 C126       -0.8917  -15.1173  -52.5373 C.3       23 UNK        -0.0205 
    127 H127       -3.1265  -15.2427  -47.8546 H         1 UNK         0.0600 
    128 H128       -2.6991  -15.1816  -49.5689 H         1 UNK         0.0600 
    129 H129       -1.7732  -16.1987  -48.4593 H         1 UNK         0.0600 
    130 H130        0.2564  -15.2872  -48.2718 H         1 UNK         0.3000 
    131 H131        0.7954  -12.4578  -48.4119 H         1 UNK         0.0600 
    132 H132        2.4436  -13.8014  -49.4088 H         1 UNK         0.0800 
    133 H133        3.1817  -13.2320  -47.9558 H         1 UNK         0.0800 
    134 H134        3.5232  -15.8431  -50.1301 H         1 UNK         0.0800 
    135 H135        3.4430  -17.3799  -49.3151 H         1 UNK         0.0800 
    136 H136        1.5156  -14.9296  -51.2667 H         1 UNK         0.1150 
    137 H137       -1.9063  -17.4725  -51.6483 H         1 UNK         0.1150 
    138 H138        1.2888  -18.5561  -48.9989 H         1 UNK         0.1150 
    139 H139       -1.6947  -19.3184  -49.0270 H         1 UNK         0.0800 
    140 H140       -1.9068  -19.6226  -50.7302 H         1 UNK         0.0800 
    141 H141       -0.0347  -20.1028  -47.6381 H         1 UNK         0.0800 
    142 H142        1.3956  -20.9900  -48.0629 H         1 UNK         0.0800 
    143 H143        0.2073  -23.1363  -47.8781 H         1 UNK         0.0600 
    144 H144        0.6776  -21.4124  -45.6866 H         1 UNK         0.3000 
    145 H145        0.0868  -23.7943  -43.0711 H         1 UNK         0.0600 
    146 H146        2.3540  -22.9706  -42.5209 H         1 UNK         0.0600 
    147 H147        2.4274  -24.0387  -43.9142 H         1 UNK         0.0600 
    148 H148        2.5405  -22.2972  -44.1380 H         1 UNK         0.0600 
    149 H149        0.7327  -21.0304  -42.9595 H         1 UNK         0.3000 
    150 H150       -2.6460  -19.7862  -42.9041 H         1 UNK         0.0600 
    151 H151       -2.0347  -20.5293  -40.5886 H         1 UNK         0.0600 
    152 H152       -1.7791  -18.8063  -40.8150 H         1 UNK         0.0600 
    153 H153       -0.4037  -19.9084  -40.8201 H         1 UNK         0.0600 
    154 H154       -0.1915  -18.3902  -42.7739 H         1 UNK         0.3000 
    155 H155        0.2384  -17.8845  -46.3240 H         1 UNK         0.0600 
    156 H156       -1.2591  -16.1128  -45.5025 H         1 UNK         0.0600 
    157 H157        0.4112  -15.5798  -45.3777 H         1 UNK         0.0600 
    158 H158       -0.4565  -16.0951  -43.9367 H         1 UNK         0.0600 
    159 H159        1.9081  -17.1271  -44.1686 H         1 UNK         0.3000 
    160 H160        3.8973  -20.0903  -43.9866 H         1 UNK         0.0600 
    161 H161        5.6442  -18.3309  -44.3185 H         1 UNK         0.0600 
    162 H162        4.4391  -17.2558  -45.0269 H         1 UNK         0.0600 
    163 H163        4.8593  -18.7584  -45.8317 H         1 UNK         0.0600 
    164 H164        3.7524  -17.5219  -42.6245 H         1 UNK         0.3000 
    165 H165        1.8374  -18.7149  -39.8597 H         1 UNK         0.0600 
    166 H166        3.8330  -17.9639  -38.6004 H         1 UNK         0.0600 
    167 H167        4.1596  -19.5027  -39.3818 H         1 UNK         0.0600 
    168 H168        4.8168  -18.0196  -40.0636 H         1 UNK         0.0600 
    169 H169        3.1396  -16.2191  -40.3925 H         1 UNK         0.3000 
    170 H170        0.4699  -14.7042  -42.1972 H         1 UNK         0.0600 
    171 H171       -0.2831  -14.5985  -39.8101 H         1 UNK         0.0600 
    172 H172        1.3651  -14.2429  -39.3055 H         1 UNK         0.0600 
    173 H173        0.4821  -13.1043  -40.3226 H         1 UNK         0.0600 
    174 H174        2.6599  -13.3547  -41.3634 H         1 UNK         0.3000 
    175 H175        4.9443  -13.4522  -42.3307 H         1 UNK         0.0600 
    176 H176        6.0442  -13.4829  -44.5802 H         1 UNK         0.0600 
    177 H177        5.7354  -15.1188  -44.0152 H         1 UNK         0.0600 
    178 H178        4.6961  -14.4043  -45.2439 H         1 UNK         0.0600 
    179 H179        3.0277  -12.5698  -44.4437 H         1 UNK         0.3000 
    180 H180        2.5880   -9.4404  -42.9215 H         1 UNK         0.0600 
    181 H181        3.9651   -9.8753  -45.6281 H         1 UNK         0.0600 
    182 H182        4.5588   -8.8388  -44.3361 H         1 UNK         0.0600 
    183 H183        3.0532   -8.4426  -45.1491 H         1 UNK         0.0600 
    184 H184        1.6320  -10.6103  -45.3738 H         1 UNK         0.3000 
    185 H185       -0.6562  -12.8704  -44.0546 H         1 UNK         0.0600 
    186 H186       -2.5274  -11.5947  -45.0401 H         1 UNK         0.0600 
    187 H187       -2.0191  -10.8303  -43.5433 H         1 UNK         0.0600 
    188 H188       -1.5479  -10.1285  -45.0871 H         1 UNK         0.0600 
    189 H189       -0.7952  -12.0634  -46.6361 H         1 UNK         0.3000 
    190 H190       -2.0770  -21.0379  -46.0356 H         1 UNK         0.3000 
    191 H191       -4.3734  -21.6085  -47.5482 H         1 UNK         0.0600 
    192 H192       -4.1437  -20.8910  -44.5852 H         1 UNK         0.0600 
    193 H193       -5.6151  -20.8034  -45.5436 H         1 UNK         0.0600 
    194 H194       -4.2609  -19.7523  -45.9255 H         1 UNK         0.0600 
    195 H195       -2.9981  -23.3787  -44.7698 H         1 UNK         0.3000 
    196 H196       -5.0932  -25.3393  -44.6148 H         1 UNK         0.0600 
    197 H197       -2.2041  -25.3977  -43.5940 H         1 UNK         0.0600 
    198 H198       -3.4715  -26.5297  -43.1359 H         1 UNK         0.0600 
    199 H199       -3.6125  -24.8324  -42.7010 H         1 UNK         0.0600 
    200 H200       -1.8230  -25.3769  -46.1338 H         1 UNK         0.3000 
    201 H201       -2.0473  -28.1074  -46.9788 H         1 UNK         0.0600 
    202 H202       -0.0281  -25.9346  -47.7344 H         1 UNK         0.0600 
    203 H203        0.1668  -27.6601  -48.0202 H         1 UNK         0.0600 
    204 H204        0.1083  -27.0480  -46.3742 H         1 UNK         0.0600 
    205 H205       -2.5226  -24.9957  -48.7117 H         1 UNK         0.3000 
    206 H206       -3.1680  -26.4776  -51.2268 H         1 UNK         0.0600 
    207 H207       -0.7969  -25.6482  -51.1997 H         1 UNK         0.0600 
    208 H208       -1.7708  -24.8620  -52.4272 H         1 UNK         0.0600 
    209 H209       -1.3866  -24.0089  -50.9308 H         1 UNK         0.0600 
    210 H210       -4.8549  -25.1246  -49.0925 H         1 UNK         0.3000 
    211 H211       -6.8410  -24.1677  -49.0054 H         1 UNK         0.0600 
    212 H212       -6.9429  -24.4900  -52.0473 H         1 UNK         0.0600 
    213 H213       -8.3147  -24.3699  -50.9572 H         1 UNK         0.0600 
    214 H214       -7.2697  -25.7776  -50.8862 H         1 UNK         0.0600 
    215 H215       -4.4446  -22.3741  -49.8382 H         1 UNK         0.3000 
    216 H216       -3.9425  -20.2475  -49.8007 H         1 UNK         0.0600 
    217 H217       -5.7869  -19.8852  -48.1387 H         1 UNK         0.0600 
    218 H218       -5.5051  -18.4802  -49.1504 H         1 UNK         0.0600 
    219 H219       -6.8911  -19.5115  -49.4556 H         1 UNK         0.0600 
    220 H220       -6.7711  -20.8237  -51.9007 H         1 UNK         0.3000 
    221 H221       -5.5291  -19.2209  -54.0846 H         1 UNK         0.0600 
    222 H222       -8.4673  -19.1372  -53.1897 H         1 UNK         0.0600 
    223 H223       -7.3016  -17.8315  -52.9801 H         1 UNK         0.0600 
    224 H224       -7.7998  -18.3113  -54.5938 H         1 UNK         0.0600 
    225 H225       -6.4315  -19.7540  -56.1589 H         1 UNK         0.3000 
    226 H226       -6.9465  -20.9943  -57.8763 H         1 UNK         0.0600 
    227 H227       -8.5146  -22.8775  -56.0377 H         1 UNK         0.0600 
    228 H228       -9.1583  -21.4469  -56.8410 H         1 UNK         0.0600 
    229 H229       -8.6005  -22.8161  -57.7897 H         1 UNK         0.0600 
    230 H230       -6.1502  -23.2102  -55.1953 H         1 UNK         0.3000 
    231 H231       -4.2382  -24.7545  -56.8740 H         1 UNK         0.0600 
    232 H232       -5.7007  -26.0887  -55.4473 H         1 UNK         0.0600 
    233 H233       -5.2932  -25.1349  -54.0278 H         1 UNK         0.0600 
    234 H234       -4.0785  -26.1647  -54.7778 H         1 UNK         0.0600 
    235 H235       -4.2028  -21.8529  -55.2862 H         1 UNK         0.3000 
    236 H236       -1.3361  -21.7164  -55.1554 H         1 UNK         0.0600 
    237 H237       -1.3197  -20.8615  -52.7488 H         1 UNK         0.0600 
    238 H238       -2.9790  -21.4327  -52.5800 H         1 UNK         0.0600 
    239 H239       -1.6762  -22.5649  -52.8869 H         1 UNK         0.0600 
    240 H240       -0.9644  -19.3468  -54.0610 H         1 UNK         0.3000 
    241 H241       -1.5571  -17.7048  -56.2097 H         1 UNK         0.0600 
    242 H242       -4.5881  -16.5109  -53.8119 H         1 UNK         0.3800 
    243 H243       -3.6430  -17.8828  -53.3039 H         1 UNK         0.3800 
    244 H244        0.4658  -17.2015  -55.3813 H         1 UNK         0.0800 
    245 H245        0.0773  -17.5576  -53.7525 H         1 UNK         0.0800 
    246 H246       -1.9709  -15.2667  -52.5820 H         1 UNK         0.0800 
    247 H247       -0.7512  -14.0999  -52.1697 H         1 UNK         0.0800 
@<TRIPOS>BOND
     1    1    2 1    
     2    1  127 1    
     3    1  128 1    
     4    1  129 1    
     5    2    3 2    
     6    2    4 am   BACKBONE|DICT|INTERRES
     7    4    5 1    
     8    4  130 1    
     9    5    6 1    
    10    5   65 1    
    11    5  131 1    
    12    6    7 1    
    13    6  132 1    
    14    6  133 1    
    15    7    8 1    
    16    8    9 1    
    17    8  134 1    
    18    8  135 1    
    19    9   10 ar   
    20    9   14 ar   
    21   10   11 ar   
    22   10  136 1    
    23   11   12 ar   
    24   11  126 1    
    25   12   13 ar   
    26   12  137 1    
    27   13   14 ar   
    28   13   15 1    
    29   14  138 1    
    30   15   16 1    
    31   15  139 1    
    32   15  140 1    
    33   16   17 1    
    34   17   18 1    
    35   17  141 1    
    36   17  142 1    
    37   18   19 1    
    38   18   67 1    
    39   18  143 1    
    40   19   20 am   BACKBONE|DICT|INTERRES
    41   19  144 1    
    42   20   21 2    
    43   20   22 1    
    44   22   23 1    
    45   22   24 1    
    46   22  145 1    
    47   23  146 1    
    48   23  147 1    
    49   23  148 1    
    50   24   25 am   BACKBONE|DICT|INTERRES
    51   24  149 1    
    52   25   26 2    
    53   25   27 1    
    54   27   28 1    
    55   27   29 1    
    56   27  150 1    
    57   28  151 1    
    58   28  152 1    
    59   28  153 1    
    60   29   30 am   BACKBONE|DICT|INTERRES
    61   29  154 1    
    62   30   31 2    
    63   30   32 1    
    64   32   33 1    
    65   32   34 1    
    66   32  155 1    
    67   33  156 1    
    68   33  157 1    
    69   33  158 1    
    70   34   35 am   BACKBONE|DICT|INTERRES
    71   34  159 1    
    72   35   36 2    
    73   35   37 1    
    74   37   38 1    
    75   37   39 1    
    76   37  160 1    
    77   38  161 1    
    78   38  162 1    
    79   38  163 1    
    80   39   40 am   BACKBONE|DICT|INTERRES
    81   39  164 1    
    82   40   41 2    
    83   40   42 1    
    84   42   43 1    
    85   42   44 1    
    86   42  165 1    
    87   43  166 1    
    88   43  167 1    
    89   43  168 1    
    90   44   45 am   BACKBONE|DICT|INTERRES
    91   44  169 1    
    92   45   46 2    
    93   45   47 1    
    94   47   48 1    
    95   47   49 1    
    96   47  170 1    
    97   48  171 1    
    98   48  172 1    
    99   48  173 1    
   100   49   50 am   BACKBONE|DICT|INTERRES
   101   49  174 1    
   102   50   51 2    
   103   50   52 1    
   104   52   53 1    
   105   52   54 1    
   106   52  175 1    
   107   53  176 1    
   108   53  177 1    
   109   53  178 1    
   110   54   55 am   BACKBONE|DICT|INTERRES
   111   54  179 1    
   112   55   56 2    
   113   55   57 1    
   114   57   58 1    
   115   57   59 1    
   116   57  180 1    
   117   58  181 1    
   118   58  182 1    
   119   58  183 1    
   120   59   60 am   BACKBONE|DICT|INTERRES
   121   59  184 1    
   122   60   61 2    
   123   60   62 1    
   124   62   63 1    
   125   62   64 1    
   126   62  185 1    
   127   63  186 1    
   128   63  187 1    
   129   63  188 1    
   130   64   65 am   BACKBONE|DICT|INTERRES
   131   64  189 1    
   132   65   66 2    
   133   67   68 2    
   134   67   69 am   BACKBONE|DICT|INTERRES
   135   69   70 1    
   136   69  190 1    
   137   70   71 1    
   138   70   72 1    
   139   70  191 1    
   140   71  192 1    
   141   71  193 1    
   142   71  194 1    
   143   72   73 2    
   144   72   74 am   BACKBONE|DICT|INTERRES
   145   74   75 1    
   146   74  195 1    
   147   75   76 1    
   148   75   77 1    
   149   75  196 1    
   150   76  197 1    
   151   76  198 1    
   152   76  199 1    
   153   77   78 2    
   154   77   79 am   BACKBONE|DICT|INTERRES
   155   79   80 1    
   156   79  200 1    
   157   80   81 1    
   158   80   82 1    
   159   80  201 1    
   160   81  202 1    
   161   81  203 1    
   162   81  204 1    
   163   82   83 2    
   164   82   84 am   BACKBONE|DICT|INTERRES
   165   84   85 1    
   166   84  205 1    
   167   85   86 1    
   168   85   87 1    
   169   85  206 1    
   170   86  207 1    
   171   86  208 1    
   172   86  209 1    
   173   87   88 2    
   174   87   89 am   BACKBONE|DICT|INTERRES
   175   89   90 1    
   176   89  210 1    
   177   90   91 1    
   178   90   92 1    
   179   90  211 1    
   180   91  212 1    
   181   91  213 1    
   182   91  214 1    
   183   92   93 2    
   184   92   94 am   BACKBONE|DICT|INTERRES
   185   94   95 1    
   186   94  215 1    
   187   95   96 1    
   188   95   97 1    
   189   95  216 1    
   190   96  217 1    
   191   96  218 1    
   192   96  219 1    
   193   97   98 2    
   194   97   99 am   BACKBONE|DICT|INTERRES
   195   99  100 1    
   196   99  220 1    
   197  100  101 1    
   198  100  102 1    
   199  100  221 1    
   200  101  222 1    
   201  101  223 1    
   202  101  224 1    
   203  102  103 2    
   204  102  104 am   BACKBONE|DICT|INTERRES
   205  104  105 1    
   206  104  225 1    
   207  105  106 1    
   208  105  107 1    
   209  105  226 1    
   210  106  227 1    
   211  106  228 1    
   212  106  229 1    
   213  107  108 2    
   214  107  109 am   BACKBONE|DICT|INTERRES
   215  109  110 1    
   216  109  230 1    
   217  110  111 1    
   218  110  112 1    
   219  110  231 1    
   220  111  232 1    
   221  111  233 1    
   222  111  234 1    
   223  112  113 2    
   224  112  114 am   BACKBONE|DICT|INTERRES
   225  114  115 1    
   226  114  235 1    
   227  115  116 1    
   228  115  117 1    
   229  115  236 1    
   230  116  237 1    
   231  116  238 1    
   232  116  239 1    
   233  117  118 2    
   234  117  119 am   BACKBONE|DICT|INTERRES
   235  119  120 1    
   236  119  240 1    
   237  120  121 1    
   238  120  124 1    
   239  120  241 1    
   240  121  122 am   BACKBONE|DICT|INTERRES
   241  121  123 2    
   242  122  242 1    
   243  122  243 1    
   244  124  125 1    
   245  124  244 1    
   246  124  245 1    
   247  125  126 1    
   248  126  246 1    
   249  126  247 1    
@<TRIPOS>SUBSTRUCTURE
     1 UNK         1 GROUP             0       ****    0 ROOT    
