@<TRIPOS>MOLECULE
3R540
247   249    1
SMALL
USER_CHARGES


@<TRIPOS>ATOM
      1 CA          0.5532  -10.2631  -50.1507 C.3       0 UNK        -0.1800 
      2 C           0.6586  -11.5921  -49.4166 C.2       0 UNK         0.5000 
      3 O           1.2885  -11.6628  -48.3611 O.2       0 UNK        -0.5000 
      4 N           0.0310  -12.6441  -49.9570 N.am      1 UNK        -0.5000 
      5 CA          0.0104  -14.0112  -49.4177 C.3       1 UNK         0.1400 
      6 C6         -0.1629  -15.0445  -50.5631 C.3       23 UNK        -0.0398 
      7 S7          0.5305  -16.6835  -50.1628 S.3       23 UNK        -0.2404 
      8 C8          2.1876  -16.5619  -50.9089 C.3       23 UNK        -0.0205 
      9 C9          2.8917  -17.9074  -50.8592 C.ar      23 UNK        -0.0193 
     10 C10         2.8824  -18.7495  -51.9748 C.ar      23 UNK        -0.1150 
     11 C11         3.4536  -20.0285  -51.9145 C.ar      23 UNK        -0.0193 
     12 C12         4.0629  -20.4365  -50.7233 C.ar      23 UNK        -0.1150 
     13 C13         4.0824  -19.6019  -49.6023 C.ar      23 UNK        -0.0193 
     14 C14         3.5064  -18.3320  -49.6801 C.ar      23 UNK        -0.1150 
     15 C15         4.6367  -20.1070  -48.2779 C.3       23 UNK        -0.0205 
     16 S16         3.5941  -21.4224  -47.5597 S.3       23 UNK        -0.2404 
     17 C17         1.9296  -20.6829  -47.6823 C.3       23 UNK        -0.0398 
     18 CA          0.8176  -21.6452  -47.2162 C.3       11 UNK         0.1400 
     19 N           0.8060  -21.8443  -45.7648 N.am      11 UNK        -0.5000 
     20 C           0.0419  -22.7454  -45.1319 C.2       10 UNK         0.5000 
     21 O          -0.6825  -23.5534  -45.7128 O.2       10 UNK        -0.5000 
     22 CA          0.0348  -22.6976  -43.5932 C.3       10 UNK         0.1400 
     23 CB          1.2544  -23.4257  -43.0094 C.3       10 UNK        -0.1800 
     24 N          -0.0254  -21.3284  -43.0791 N.am      10 UNK        -0.5000 
     25 C          -1.0544  -20.4917  -43.2801 C.2       9 UNK         0.5000 
     26 O          -2.0878  -20.8096  -43.8674 O.2       9 UNK        -0.5000 
     27 CA         -0.8830  -19.0442  -42.7878 C.3       9 UNK         0.1400 
     28 CB         -1.1412  -18.9487  -41.2767 C.3       9 UNK        -0.1800 
     29 N           0.4417  -18.5062  -43.0927 N.am      9 UNK        -0.5000 
     30 C           0.9336  -18.3161  -44.3249 C.2       8 UNK         0.5000 
     31 O           0.2915  -18.5148  -45.3539 O.2       8 UNK        -0.5000 
     32 CA          2.4111  -17.8955  -44.4245 C.3       8 UNK         0.1400 
     33 CB          2.5728  -16.3757  -44.2863 C.3       8 UNK        -0.1800 
     34 N           3.2413  -18.5691  -43.4267 N.am      8 UNK        -0.5000 
     35 C           3.5095  -19.8819  -43.4355 C.2       7 UNK         0.5000 
     36 O           3.0918  -20.6569  -44.2941 O.2       7 UNK        -0.5000 
     37 CA          4.3443  -20.4212  -42.2608 C.3       7 UNK         0.1400 
     38 CB          5.8394  -20.1505  -42.4862 C.3       7 UNK        -0.1800 
     39 N           3.9308  -19.8471  -40.9793 N.am      7 UNK        -0.5000 
     40 C           2.7497  -20.0901  -40.3938 C.2       6 UNK         0.5000 
     41 O           1.9049  -20.8578  -40.8543 O.2       6 UNK        -0.5000 
     42 CA          2.4416  -19.3047  -39.1042 C.3       6 UNK         0.1400 
     43 CB          3.0343  -20.0204  -37.8813 C.3       6 UNK        -0.1800 
     44 N           2.9111  -17.9141  -39.1310 N.am      6 UNK        -0.5000 
     45 C           2.5148  -16.9976  -40.0231 C.2       5 UNK         0.5000 
     46 O           1.7457  -17.2424  -40.9562 O.2       5 UNK        -0.5000 
     47 CA          3.0912  -15.5837  -39.8772 C.3       5 UNK         0.1400 
     48 CB          4.5528  -15.5293  -40.3546 C.3       5 UNK        -0.1800 
     49 N           2.2781  -14.6933  -40.6945 N.am      5 UNK        -0.5000 
     50 C           2.0617  -13.3913  -40.4943 C.2       4 UNK         0.5000 
     51 O           2.5832  -12.7440  -39.5853 O.2       4 UNK        -0.5000 
     52 CA          1.1038  -12.6886  -41.4781 C.3       4 UNK         0.1400 
     53 CB          1.8956  -11.8306  -42.4771 C.3       4 UNK        -0.1800 
     54 N           0.2551  -13.6132  -42.2353 N.am      4 UNK        -0.5000 
     55 C          -0.8221  -14.2519  -41.7629 C.2       3 UNK         0.5000 
     56 O          -1.2169  -14.1400  -40.6015 O.2       3 UNK        -0.5000 
     57 CA         -1.5907  -15.1394  -42.7712 C.3       3 UNK         0.1400 
     58 CB         -2.8544  -15.7745  -42.1621 C.3       3 UNK        -0.1800 
     59 N          -1.9829  -14.4099  -43.9812 N.am      3 UNK        -0.5000 
     60 C          -1.1690  -14.0534  -44.9817 C.2       2 UNK         0.5000 
     61 O           0.0367  -14.3105  -44.9994 O.2       2 UNK        -0.5000 
     62 CA         -1.7969  -13.2114  -46.1041 C.3       2 UNK         0.1400 
     63 CB         -1.9397  -11.7484  -45.6541 C.3       2 UNK        -0.1800 
     64 N          -0.9633  -13.2421  -47.3020 N.am      2 UNK        -0.5000 
     65 C          -1.0300  -14.1552  -48.2766 C.2       1 UNK         0.5000 
     66 O          -1.8821  -15.0447  -48.3078 O.2       1 UNK        -0.5000 
     67 C          -0.5528  -21.1800  -47.7492 C.2       11 UNK         0.5000 
     68 O          -1.0235  -21.7313  -48.7424 O.2       11 UNK        -0.5000 
     69 N          -1.1860  -20.2089  -47.0759 N.am      12 UNK        -0.5000 
     70 CA         -2.5199  -19.7057  -47.4120 C.3       12 UNK         0.1400 
     71 CB         -2.8531  -18.4856  -46.5402 C.3       12 UNK        -0.1800 
     72 C          -3.6122  -20.7851  -47.2933 C.2       12 UNK         0.5000 
     73 O          -4.4999  -20.8437  -48.1452 O.2       12 UNK        -0.5000 
     74 N          -3.5052  -21.6438  -46.2697 N.am      13 UNK        -0.5000 
     75 CA         -4.3588  -22.8145  -46.0747 C.3       13 UNK         0.1400 
     76 CB         -4.1242  -23.4043  -44.6762 C.3       13 UNK        -0.1800 
     77 C          -4.1535  -23.8790  -47.1681 C.2       13 UNK         0.5000 
     78 O          -5.1386  -24.3869  -47.7027 O.2       13 UNK        -0.5000 
     79 N          -2.8907  -24.1659  -47.5184 N.am      14 UNK        -0.5000 
     80 CA         -2.5122  -25.0863  -48.5969 C.3       14 UNK         0.1400 
     81 CB         -0.9948  -25.3224  -48.5652 C.3       14 UNK        -0.1800 
     82 C          -2.9623  -24.6002  -49.9891 C.2       14 UNK         0.5000 
     83 O          -3.4007  -25.4091  -50.8069 O.2       14 UNK        -0.5000 
     84 N          -2.8951  -23.2809  -50.2099 N.am      15 UNK        -0.5000 
     85 CA         -3.4133  -22.5826  -51.3874 C.3       15 UNK         0.1400 
     86 CB         -2.7504  -21.1980  -51.4682 C.3       15 UNK        -0.1800 
     87 C          -4.9500  -22.4417  -51.3961 C.2       15 UNK         0.5000 
     88 O          -5.4916  -21.9289  -52.3787 O.2       15 UNK        -0.5000 
     89 N          -5.6205  -22.8702  -50.3158 N.am      16 UNK        -0.5000 
     90 CA         -7.0665  -22.8470  -50.0835 C.3       16 UNK         0.1400 
     91 CB         -7.7774  -23.8379  -51.0283 C.3       16 UNK        -0.1800 
     92 C          -7.6483  -21.4224  -50.1476 C.2       16 UNK         0.5000 
     93 O          -8.6506  -21.1954  -50.8240 O.2       16 UNK        -0.5000 
     94 N          -6.9674  -20.4716  -49.4900 N.am      17 UNK        -0.5000 
     95 CA         -7.2462  -19.0290  -49.5055 C.3       17 UNK         0.1400 
     96 CB         -8.5770  -18.7151  -48.7908 C.3       17 UNK        -0.1800 
     97 C          -7.1628  -18.4325  -50.9287 C.2       17 UNK         0.5000 
     98 O          -7.9507  -17.5573  -51.2895 O.2       17 UNK        -0.5000 
     99 N          -6.2054  -18.9559  -51.7075 N.am      18 UNK        -0.5000 
    100 CA        -5.9127  -18.6709  -53.1136 C.3       18 UNK         0.1400 
    101 CB        -5.6139  -17.1752  -53.3463 C.3       18 UNK        -0.1800 
    102 C         -6.9419  -19.2419  -54.1131 C.2       18 UNK         0.5000 
    103 O         -6.8801  -18.8906  -55.2920 O.2       18 UNK        -0.5000 
    104 N         -7.8398  -20.1346  -53.6656 N.am      19 UNK        -0.5000 
    105 CA        -8.7698  -20.8538  -54.5417 C.3       19 UNK         0.1400 
    106 CB        -9.9320  -21.4335  -53.7226 C.3       19 UNK        -0.1800 
    107 C         -8.0682  -21.9640  -55.3462 C.2       19 UNK         0.5000 
    108 O         -8.3988  -22.1606  -56.5163 O.2       19 UNK        -0.5000 
    109 N         -7.1043  -22.6517  -54.7172 N.am      20 UNK        -0.5000 
    110 CA        -6.2186  -23.6158  -55.3745 C.3       20 UNK         0.1400 
    111 CB        -5.8589  -24.7446  -54.3951 C.3       20 UNK        -0.1800 
    112 C         -4.9532  -22.9161  -55.9018 C.2       20 UNK         0.5000 
    113 O         -4.4685  -23.2769  -56.9750 O.2       20 UNK        -0.5000 
    114 N         -4.4879  -21.9039  -55.1522 N.am      21 UNK        -0.5000 
    115 CA        -3.3657  -21.0014  -55.4274 C.3       21 UNK         0.1400 
    116 CB        -3.5698  -20.2585  -56.7646 C.3       21 UNK        -0.1800 
    117 C         -1.9768  -21.6675  -55.3446 C.2       21 UNK         0.5000 
    118 O         -1.8528  -22.8915  -55.2677 O.2       21 UNK        -0.5000 
    119 N         -0.9476  -20.8150  -55.3324 N.am      22 UNK        -0.5000 
    120 CA         0.4705  -21.1851  -55.3970 C.3       22 UNK         0.1400 
    121 C          0.8728  -21.5149  -56.8620 C.2       22 UNK         0.5000 
    122 N          1.5008  -22.6573  -57.1047 N.am      22 UNK        -0.7600 
    123 O          0.6367  -20.7288  -57.7771 O.2       22 UNK        -0.5000 
    124 C124        1.3226  -20.0486  -54.7754 C.3       23 UNK        -0.0398 
    125 S125        3.1280  -20.3430  -54.7384 S.3       23 UNK        -0.2404 
    126 C126        3.3819  -21.0344  -53.0674 C.3       23 UNK        -0.0205 
    127 H127        1.5463   -9.9045  -50.4207 H         1 UNK         0.0600 
    128 H128        0.0825   -9.5173  -49.5101 H         1 UNK         0.0600 
    129 H129       -0.0372  -10.3493  -51.0632 H         1 UNK         0.0600 
    130 H130       -0.5051  -12.5059  -50.8022 H         1 UNK         0.3000 
    131 H131        0.9869  -14.1924  -48.9626 H         1 UNK         0.0600 
    132 H132        0.3321  -14.6883  -51.4676 H         1 UNK         0.0800 
    133 H133       -1.2123  -15.1595  -50.8400 H         1 UNK         0.0800 
    134 H134        2.7749  -15.8115  -50.3774 H         1 UNK         0.0800 
    135 H135        2.1047  -16.2201  -51.9418 H         1 UNK         0.0800 
    136 H136        2.3999  -18.4027  -52.8747 H         1 UNK         0.1150 
    137 H137        4.4844  -21.4295  -50.6489 H         1 UNK         0.1150 
    138 H138        3.4905  -17.6910  -48.8097 H         1 UNK         0.1150 
    139 H139        5.6463  -20.4916  -48.4281 H         1 UNK         0.0800 
    140 H140        4.7209  -19.2920  -47.5572 H         1 UNK         0.0800 
    141 H141        1.7599  -20.4165  -48.7266 H         1 UNK         0.0800 
    142 H142        1.9063  -19.7497  -47.1194 H         1 UNK         0.0800 
    143 H143        1.0095  -22.6197  -47.6706 H         1 UNK         0.0600 
    144 H144        1.4306  -21.2583  -45.2191 H         1 UNK         0.3000 
    145 H145       -0.8620  -23.2184  -43.2514 H         1 UNK         0.0600 
    146 H146        1.2137  -23.4502  -41.9203 H         1 UNK         0.0600 
    147 H147        2.1898  -22.9469  -43.2974 H         1 UNK         0.0600 
    148 H148        1.2942  -24.4586  -43.3573 H         1 UNK         0.0600 
    149 H149        0.7713  -21.0079  -42.5387 H         1 UNK         0.3000 
    150 H150       -1.6190  -18.4239  -43.3025 H         1 UNK         0.0600 
    151 H151       -2.1720  -19.2156  -41.0416 H         1 UNK         0.0600 
    152 H152       -0.9700  -17.9387  -40.9058 H         1 UNK         0.0600 
    153 H153       -0.4929  -19.6187  -40.7125 H         1 UNK         0.0600 
    154 H154        1.0251  -18.2601  -42.2964 H         1 UNK         0.3000 
    155 H155        2.7772  -18.1833  -45.4123 H         1 UNK         0.0600 
    156 H156        2.1019  -15.8672  -45.1271 H         1 UNK         0.0600 
    157 H157        3.6233  -16.0848  -44.2839 H         1 UNK         0.0600 
    158 H158        2.1155  -15.9968  -43.3728 H         1 UNK         0.0600 
    159 H159        3.5726  -18.0102  -42.6556 H         1 UNK         0.3000 
    160 H160        4.1965  -21.5024  -42.2152 H         1 UNK         0.0600 
    161 H161        6.0584  -19.0824  -42.5136 H         1 UNK         0.0600 
    162 H162        6.1741  -20.5788  -43.4320 H         1 UNK         0.0600 
    163 H163        6.4438  -20.5972  -41.6965 H         1 UNK         0.0600 
    164 H164        4.5679  -19.2030  -40.5347 H         1 UNK         0.3000 
    165 H165        1.3560  -19.2818  -38.9894 H         1 UNK         0.0600 
    166 H166        2.7366  -19.5299  -36.9543 H         1 UNK         0.0600 
    167 H167        2.6863  -21.0530  -37.8267 H         1 UNK         0.0600 
    168 H168        4.1242  -20.0425  -37.9154 H         1 UNK         0.0600 
    169 H169        3.5522  -17.6420  -38.3996 H         1 UNK         0.3000 
    170 H170        3.0257  -15.2876  -38.8283 H         1 UNK         0.0600 
    171 H171        4.6459  -15.8306  -41.3988 H         1 UNK         0.0600 
    172 H172        4.9597  -14.5222  -40.2616 H         1 UNK         0.0600 
    173 H173        5.1873  -16.1892  -39.7621 H         1 UNK         0.0600 
    174 H174        1.7524  -15.1698  -41.4153 H         1 UNK         0.3000 
    175 H175        0.4604  -12.0278  -40.8935 H         1 UNK         0.0600 
    176 H176        2.5494  -12.4419  -43.1007 H         1 UNK         0.0600 
    177 H177        1.2277  -11.2750  -43.1359 H         1 UNK         0.0600 
    178 H178        2.5209  -11.1019  -41.9596 H         1 UNK         0.0600 
    179 H179        0.4869  -13.7539  -43.2150 H         1 UNK         0.3000 
    180 H180       -0.9153  -15.9479  -43.0569 H         1 UNK         0.0600 
    181 H181       -3.5974  -15.0194  -41.9030 H         1 UNK         0.0600 
    182 H182       -2.6244  -16.3272  -41.2515 H         1 UNK         0.0600 
    183 H183       -3.3169  -16.4755  -42.8571 H         1 UNK         0.0600 
    184 H184       -2.9488  -14.1182  -44.0209 H         1 UNK         0.3000 
    185 H185       -2.7874  -13.6101  -46.3335 H         1 UNK         0.0600 
    186 H186       -0.9743  -11.3110  -45.3949 H         1 UNK         0.0600 
    187 H187       -2.3834  -11.1366  -46.4399 H         1 UNK         0.0600 
    188 H188       -2.5834  -11.6653  -44.7776 H         1 UNK         0.0600 
    189 H189       -0.1996  -12.5755  -47.3405 H         1 UNK         0.3000 
    190 H190       -0.7093  -19.7513  -46.3020 H         1 UNK         0.3000 
    191 H191       -2.4943  -19.3765  -48.4526 H         1 UNK         0.0600 
    192 H192       -2.1227  -17.6884  -46.6828 H         1 UNK         0.0600 
    193 H193       -2.8696  -18.7385  -45.4802 H         1 UNK         0.0600 
    194 H194       -3.8317  -18.0781  -46.7968 H         1 UNK         0.0600 
    195 H195       -2.7848  -21.4821  -45.5719 H         1 UNK         0.3000 
    196 H196       -5.3974  -22.4812  -46.1281 H         1 UNK         0.0600 
    197 H197       -4.3362  -22.6696  -43.8992 H         1 UNK         0.0600 
    198 H198       -3.0957  -23.7399  -44.5447 H         1 UNK         0.0600 
    199 H199       -4.7746  -24.2619  -44.5002 H         1 UNK         0.0600 
    200 H200       -2.1290  -23.7392  -46.9978 H         1 UNK         0.3000 
    201 H201       -3.0066  -26.0409  -48.4057 H         1 UNK         0.0600 
    202 H202       -0.6795  -25.7310  -47.6050 H         1 UNK         0.0600 
    203 H203       -0.4395  -24.3999  -48.7342 H         1 UNK         0.0600 
    204 H204       -0.6939  -26.0327  -49.3362 H         1 UNK         0.0600 
    205 H205       -2.4354  -22.7005  -49.5118 H         1 UNK         0.3000 
    206 H206       -3.1356  -23.1483  -52.2792 H         1 UNK         0.0600 
    207 H207       -1.6661  -21.2849  -51.5421 H         1 UNK         0.0600 
    208 H208       -2.9776  -20.5942  -50.5893 H         1 UNK         0.0600 
    209 H209       -3.0894  -20.6424  -52.3411 H         1 UNK         0.0600 
    210 H210       -5.0792  -23.2570  -49.5528 H         1 UNK         0.3000 
    211 H211       -7.2239  -23.1939  -49.0616 H         1 UNK         0.0600 
    212 H212       -7.6897  -23.5397  -52.0721 H         1 UNK         0.0600 
    213 H213       -8.8407  -23.9058  -50.7960 H         1 UNK         0.0600 
    214 H214       -7.3594  -24.8399  -50.9320 H         1 UNK         0.0600 
    215 H215       -6.1217  -20.7424  -48.9888 H         1 UNK         0.3000 
    216 H216       -6.4459  -18.5588  -48.9321 H         1 UNK         0.0600 
    217 H217       -8.7161  -17.6392  -48.6805 H         1 UNK         0.0600 
    218 H218       -8.5982  -19.1484  -47.7909 H         1 UNK         0.0600 
    219 H219       -9.4356  -19.0998  -49.3417 H         1 UNK         0.0600 
    220 H220       -5.6633  -19.7101  -51.3102 H         1 UNK         0.3000 
    221 H221       -4.9888  -19.2098  -53.3182 H         1 UNK         0.0600 
    222 H222       -6.5113  -16.5625  -53.2603 H         1 UNK         0.0600 
    223 H223       -4.8806  -16.8024  -52.6312 H         1 UNK         0.0600 
    224 H224       -5.2045  -17.0097  -54.3435 H         1 UNK         0.0600 
    225 H225       -7.8565  -20.3780  -52.6822 H         1 UNK         0.3000 
    226 H226       -9.1918  -20.1401  -55.2526 H         1 UNK         0.0600 
    227 H227      -10.4163  -20.6640  -53.1212 H         1 UNK         0.0600 
    228 H228      -10.6912  -21.8617  -54.3780 H         1 UNK         0.0600 
    229 H229       -9.5997  -22.2259  -53.0520 H         1 UNK         0.0600 
    230 H230       -6.8629  -22.3947  -53.7663 H         1 UNK         0.3000 
    231 H231       -6.7333  -24.0679  -56.2251 H         1 UNK         0.0600 
    232 H232       -5.2582  -25.5081  -54.8906 H         1 UNK         0.0600 
    233 H233       -6.7541  -25.2335  -54.0107 H         1 UNK         0.0600 
    234 H234       -5.2833  -24.3833  -53.5441 H         1 UNK         0.0600 
    235 H235       -4.9401  -21.7639  -54.2555 H         1 UNK         0.3000 
    236 H236       -3.3936  -20.2529  -54.6368 H         1 UNK         0.0600 
    237 H237       -3.4527  -20.9219  -57.6218 H         1 UNK         0.0600 
    238 H238       -4.5629  -19.8118  -56.8193 H         1 UNK         0.0600 
    239 H239       -2.8483  -19.4498  -56.8834 H         1 UNK         0.0600 
    240 H240       -1.1394  -19.8288  -55.4286 H         1 UNK         0.3000 
    241 H241        0.6179  -22.0783  -54.7861 H         1 UNK         0.0600 
    242 H242        1.7742  -22.8755  -58.0503 H         1 UNK         0.3800 
    243 H243        1.7089  -23.3123  -56.3669 H         1 UNK         0.3800 
    244 H244        0.9716  -19.8694  -53.7589 H         1 UNK         0.0800 
    245 H245        1.1561  -19.1160  -55.3173 H         1 UNK         0.0800 
    246 H246        2.5927  -21.7570  -52.8555 H         1 UNK         0.0800 
    247 H247        4.3134  -21.6021  -53.0948 H         1 UNK         0.0800 
@<TRIPOS>BOND
     1    1    2 1    
     2    1  127 1    
     3    1  128 1    
     4    1  129 1    
     5    2    3 2    
     6    2    4 am   BACKBONE|DICT|INTERRES
     7    4    5 1    
     8    4  130 1    
     9    5    6 1    
    10    5   65 1    
    11    5  131 1    
    12    6    7 1    
    13    6  132 1    
    14    6  133 1    
    15    7    8 1    
    16    8    9 1    
    17    8  134 1    
    18    8  135 1    
    19    9   10 ar   
    20    9   14 ar   
    21   10   11 ar   
    22   10  136 1    
    23   11   12 ar   
    24   11  126 1    
    25   12   13 ar   
    26   12  137 1    
    27   13   14 ar   
    28   13   15 1    
    29   14  138 1    
    30   15   16 1    
    31   15  139 1    
    32   15  140 1    
    33   16   17 1    
    34   17   18 1    
    35   17  141 1    
    36   17  142 1    
    37   18   19 1    
    38   18   67 1    
    39   18  143 1    
    40   19   20 am   BACKBONE|DICT|INTERRES
    41   19  144 1    
    42   20   21 2    
    43   20   22 1    
    44   22   23 1    
    45   22   24 1    
    46   22  145 1    
    47   23  146 1    
    48   23  147 1    
    49   23  148 1    
    50   24   25 am   BACKBONE|DICT|INTERRES
    51   24  149 1    
    52   25   26 2    
    53   25   27 1    
    54   27   28 1    
    55   27   29 1    
    56   27  150 1    
    57   28  151 1    
    58   28  152 1    
    59   28  153 1    
    60   29   30 am   BACKBONE|DICT|INTERRES
    61   29  154 1    
    62   30   31 2    
    63   30   32 1    
    64   32   33 1    
    65   32   34 1    
    66   32  155 1    
    67   33  156 1    
    68   33  157 1    
    69   33  158 1    
    70   34   35 am   BACKBONE|DICT|INTERRES
    71   34  159 1    
    72   35   36 2    
    73   35   37 1    
    74   37   38 1    
    75   37   39 1    
    76   37  160 1    
    77   38  161 1    
    78   38  162 1    
    79   38  163 1    
    80   39   40 am   BACKBONE|DICT|INTERRES
    81   39  164 1    
    82   40   41 2    
    83   40   42 1    
    84   42   43 1    
    85   42   44 1    
    86   42  165 1    
    87   43  166 1    
    88   43  167 1    
    89   43  168 1    
    90   44   45 am   BACKBONE|DICT|INTERRES
    91   44  169 1    
    92   45   46 2    
    93   45   47 1    
    94   47   48 1    
    95   47   49 1    
    96   47  170 1    
    97   48  171 1    
    98   48  172 1    
    99   48  173 1    
   100   49   50 am   BACKBONE|DICT|INTERRES
   101   49  174 1    
   102   50   51 2    
   103   50   52 1    
   104   52   53 1    
   105   52   54 1    
   106   52  175 1    
   107   53  176 1    
   108   53  177 1    
   109   53  178 1    
   110   54   55 am   BACKBONE|DICT|INTERRES
   111   54  179 1    
   112   55   56 2    
   113   55   57 1    
   114   57   58 1    
   115   57   59 1    
   116   57  180 1    
   117   58  181 1    
   118   58  182 1    
   119   58  183 1    
   120   59   60 am   BACKBONE|DICT|INTERRES
   121   59  184 1    
   122   60   61 2    
   123   60   62 1    
   124   62   63 1    
   125   62   64 1    
   126   62  185 1    
   127   63  186 1    
   128   63  187 1    
   129   63  188 1    
   130   64   65 am   BACKBONE|DICT|INTERRES
   131   64  189 1    
   132   65   66 2    
   133   67   68 2    
   134   67   69 am   BACKBONE|DICT|INTERRES
   135   69   70 1    
   136   69  190 1    
   137   70   71 1    
   138   70   72 1    
   139   70  191 1    
   140   71  192 1    
   141   71  193 1    
   142   71  194 1    
   143   72   73 2    
   144   72   74 am   BACKBONE|DICT|INTERRES
   145   74   75 1    
   146   74  195 1    
   147   75   76 1    
   148   75   77 1    
   149   75  196 1    
   150   76  197 1    
   151   76  198 1    
   152   76  199 1    
   153   77   78 2    
   154   77   79 am   BACKBONE|DICT|INTERRES
   155   79   80 1    
   156   79  200 1    
   157   80   81 1    
   158   80   82 1    
   159   80  201 1    
   160   81  202 1    
   161   81  203 1    
   162   81  204 1    
   163   82   83 2    
   164   82   84 am   BACKBONE|DICT|INTERRES
   165   84   85 1    
   166   84  205 1    
   167   85   86 1    
   168   85   87 1    
   169   85  206 1    
   170   86  207 1    
   171   86  208 1    
   172   86  209 1    
   173   87   88 2    
   174   87   89 am   BACKBONE|DICT|INTERRES
   175   89   90 1    
   176   89  210 1    
   177   90   91 1    
   178   90   92 1    
   179   90  211 1    
   180   91  212 1    
   181   91  213 1    
   182   91  214 1    
   183   92   93 2    
   184   92   94 am   BACKBONE|DICT|INTERRES
   185   94   95 1    
   186   94  215 1    
   187   95   96 1    
   188   95   97 1    
   189   95  216 1    
   190   96  217 1    
   191   96  218 1    
   192   96  219 1    
   193   97   98 2    
   194   97   99 am   BACKBONE|DICT|INTERRES
   195   99  100 1    
   196   99  220 1    
   197  100  101 1    
   198  100  102 1    
   199  100  221 1    
   200  101  222 1    
   201  101  223 1    
   202  101  224 1    
   203  102  103 2    
   204  102  104 am   BACKBONE|DICT|INTERRES
   205  104  105 1    
   206  104  225 1    
   207  105  106 1    
   208  105  107 1    
   209  105  226 1    
   210  106  227 1    
   211  106  228 1    
   212  106  229 1    
   213  107  108 2    
   214  107  109 am   BACKBONE|DICT|INTERRES
   215  109  110 1    
   216  109  230 1    
   217  110  111 1    
   218  110  112 1    
   219  110  231 1    
   220  111  232 1    
   221  111  233 1    
   222  111  234 1    
   223  112  113 2    
   224  112  114 am   BACKBONE|DICT|INTERRES
   225  114  115 1    
   226  114  235 1    
   227  115  116 1    
   228  115  117 1    
   229  115  236 1    
   230  116  237 1    
   231  116  238 1    
   232  116  239 1    
   233  117  118 2    
   234  117  119 am   BACKBONE|DICT|INTERRES
   235  119  120 1    
   236  119  240 1    
   237  120  121 1    
   238  120  124 1    
   239  120  241 1    
   240  121  122 am   BACKBONE|DICT|INTERRES
   241  121  123 2    
   242  122  242 1    
   243  122  243 1    
   244  124  125 1    
   245  124  244 1    
   246  124  245 1    
   247  125  126 1    
   248  126  246 1    
   249  126  247 1    
@<TRIPOS>SUBSTRUCTURE
     1 UNK         1 GROUP             0       ****    0 ROOT    
