@<TRIPOS>MOLECULE
3R540
247   249    1
SMALL
USER_CHARGES


@<TRIPOS>ATOM
      1 CA          2.2136   -7.8903  -49.2828 C.3       0 UNK        -0.1800 
      2 C           3.1056   -9.0855  -49.5879 C.2       0 UNK         0.5000 
      3 O           3.4337   -9.3264  -50.7498 O.2       0 UNK        -0.5000 
      4 N           3.4986   -9.8320  -48.5527 N.am      1 UNK        -0.5000 
      5 CA          4.3694  -11.0013  -48.6241 C.3       1 UNK         0.1400 
      6 C6          3.6058  -12.2571  -49.1209 C.3       23 UNK        -0.0398 
      7 S7          4.6905  -13.6937  -49.4366 S.3       23 UNK        -0.2404 
      8 C8          4.0133  -14.9246  -48.2768 C.3       23 UNK        -0.0205 
      9 C9          3.0073  -15.8395  -48.9604 C.ar      23 UNK        -0.0193 
     10 C10         1.7392  -15.3677  -49.3146 C.ar      23 UNK        -0.1150 
     11 C11         0.8238  -16.2024  -49.9635 C.ar      23 UNK        -0.0193 
     12 C12         1.1794  -17.5286  -50.2323 C.ar      23 UNK        -0.1150 
     13 C13         2.4410  -18.0139  -49.8802 C.ar      23 UNK        -0.0193 
     14 C14         3.3505  -17.1642  -49.2456 C.ar      23 UNK        -0.1150 
     15 C15         2.8317  -19.4480  -50.2040 C.3       23 UNK        -0.0205 
     16 S16         2.4574  -20.5825  -48.8322 S.3       23 UNK        -0.2404 
     17 C17         0.6463  -20.7377  -48.9811 C.3       23 UNK        -0.0398 
     18 CA          0.1026  -21.9086  -48.1310 C.3       11 UNK         0.1400 
     19 N           0.1616  -21.6364  -46.6929 N.am      11 UNK        -0.5000 
     20 C          -0.0791  -22.5431  -45.7357 C.2       10 UNK         0.5000 
     21 O          -0.3361  -23.7262  -45.9620 O.2       10 UNK        -0.5000 
     22 CA         -0.0895  -22.0311  -44.2844 C.3       10 UNK         0.1400 
     23 CB          1.3394  -21.8362  -43.7559 C.3       10 UNK        -0.1800 
     24 N          -0.8498  -20.7888  -44.1379 N.am      10 UNK        -0.5000 
     25 C          -2.1677  -20.6806  -44.3603 C.2       9 UNK         0.5000 
     26 O          -2.8877  -21.6319  -44.6632 O.2       9 UNK        -0.5000 
     27 CA         -2.7804  -19.2714  -44.2709 C.3       9 UNK         0.1400 
     28 CB         -3.0493  -18.8816  -42.8099 C.3       9 UNK        -0.1800 
     29 N          -1.9462  -18.2512  -44.9028 N.am      9 UNK        -0.5000 
     30 C          -1.6458  -18.2025  -46.2077 C.2       8 UNK         0.5000 
     31 O          -2.0736  -18.9982  -47.0446 O.2       8 UNK        -0.5000 
     32 CA         -0.6485  -17.1148  -46.6408 C.3       8 UNK         0.1400 
     33 CB         -1.3350  -15.7459  -46.7696 C.3       8 UNK        -0.1800 
     34 N           0.4932  -17.0097  -45.7325 N.am      8 UNK        -0.5000 
     35 C           1.3865  -17.9867  -45.5226 C.2       7 UNK         0.5000 
     36 O           1.3445  -19.0835  -46.0753 O.2       7 UNK        -0.5000 
     37 CA          2.4783  -17.7084  -44.4756 C.3       7 UNK         0.1400 
     38 CB          3.5958  -16.8483  -45.0823 C.3       7 UNK        -0.1800 
     39 N           1.9520  -17.0603  -43.2726 N.am      7 UNK        -0.5000 
     40 C           1.0551  -17.6119  -42.4433 C.2       6 UNK         0.5000 
     41 O           0.6130  -18.7534  -42.5739 O.2       6 UNK        -0.5000 
     42 CA          0.5118  -16.7127  -41.3165 C.3       6 UNK         0.1400 
     43 CB          1.4987  -16.6385  -40.1416 C.3       6 UNK        -0.1800 
     44 N           0.1718  -15.3589  -41.7699 N.am      6 UNK        -0.5000 
     45 C          -0.7485  -15.0846  -42.7063 C.2       5 UNK         0.5000 
     46 O          -1.3848  -15.9559  -43.2959 O.2       5 UNK        -0.5000 
     47 CA         -1.0134  -13.6094  -43.0677 C.3       5 UNK         0.1400 
     48 CB         -2.4673  -13.2365  -42.7377 C.3       5 UNK        -0.1800 
     49 N          -0.1290  -12.6614  -42.3846 N.am      5 UNK        -0.5000 
     50 C           1.0988  -12.2631  -42.7451 C.2       4 UNK         0.5000 
     51 O           1.7083  -11.4257  -42.0781 O.2       4 UNK        -0.5000 
     52 CA          1.7668  -12.8357  -44.0196 C.3       4 UNK         0.1400 
     53 CB          1.4341  -11.9772  -45.2493 C.3       4 UNK        -0.1800 
     54 N           3.2197  -12.8887  -43.8563 N.am      4 UNK        -0.5000 
     55 C           3.8444  -13.7425  -43.0333 C.2       3 UNK         0.5000 
     56 O           3.2565  -14.6648  -42.4666 O.2       3 UNK        -0.5000 
     57 CA          5.3500  -13.5173  -42.7686 C.3       3 UNK         0.1400 
     58 CB          6.1089  -14.8259  -42.4622 C.3       3 UNK        -0.1800 
     59 N           6.0394  -12.7384  -43.8040 N.am      3 UNK        -0.5000 
     60 C           6.2108  -13.0777  -45.0884 C.2       2 UNK         0.5000 
     61 O           5.8149  -14.1309  -45.5902 O.2       2 UNK        -0.5000 
     62 CA          6.9504  -12.0497  -45.9631 C.3       2 UNK         0.1400 
     63 CB          8.3508  -12.5598  -46.3357 C.3       2 UNK        -0.1800 
     64 N           6.2080  -11.7492  -47.1857 N.am      2 UNK        -0.5000 
     65 C           4.9964  -11.1815  -47.2285 C.2       1 UNK         0.5000 
     66 O           4.3847  -10.7958  -46.2268 O.2       1 UNK        -0.5000 
     67 C          -1.3151  -22.3096  -48.5822 C.2       11 UNK         0.5000 
     68 O          -1.4429  -23.2529  -49.3600 O.2       11 UNK        -0.5000 
     69 N          -2.3511  -21.6324  -48.0642 N.am      12 UNK        -0.5000 
     70 CA         -3.7569  -21.9639  -48.3042 C.3       12 UNK         0.1400 
     71 CB         -4.6754  -20.9095  -47.6676 C.3       12 UNK        -0.1800 
     72 C          -4.1252  -23.3652  -47.7944 C.2       12 UNK         0.5000 
     73 O          -4.7476  -24.1278  -48.5324 O.2       12 UNK        -0.5000 
     74 N          -3.7166  -23.6858  -46.5591 N.am      13 UNK        -0.5000 
     75 CA         -3.9215  -24.9908  -45.9307 C.3       13 UNK         0.1400 
     76 CB         -3.4583  -24.9379  -44.4672 C.3       13 UNK        -0.1800 
     77 C          -3.2219  -26.1329  -46.6889 C.2       13 UNK         0.5000 
     78 O          -3.8295  -27.1861  -46.8867 O.2       13 UNK        -0.5000 
     79 N          -1.9788  -25.8896  -47.1297 N.am      14 UNK        -0.5000 
     80 CA         -1.1990  -26.8048  -47.9635 C.3       14 UNK         0.1400 
     81 CB          0.2395  -26.2825  -48.0969 C.3       14 UNK        -0.1800 
     82 C          -1.8348  -27.0249  -49.3485 C.2       14 UNK         0.5000 
     83 O          -1.9494  -28.1678  -49.7929 O.2       14 UNK        -0.5000 
     84 N          -2.2847  -25.9368  -49.9854 N.am      15 UNK        -0.5000 
     85 CA         -2.9669  -25.9232  -51.2793 C.3       15 UNK         0.1400 
     86 CB         -2.7298  -24.5604  -51.9501 C.3       15 UNK        -0.1800 
     87 C          -4.4681  -26.2616  -51.1628 C.2       15 UNK         0.5000 
     88 O          -5.3006  -25.5442  -51.7178 O.2       15 UNK        -0.5000 
     89 N          -4.7834  -27.3529  -50.4507 N.am      16 UNK        -0.5000 
     90 CA         -6.0970  -27.9963  -50.3276 C.3       16 UNK         0.1400 
     91 CB         -6.4086  -28.7804  -51.6187 C.3       16 UNK        -0.1800 
     92 C          -7.2447  -27.0480  -49.9122 C.2       16 UNK         0.5000 
     93 O          -8.3397  -27.1256  -50.4721 O.2       16 UNK        -0.5000 
     94 N          -6.9633  -26.1754  -48.9341 N.am      17 UNK        -0.5000 
     95 CA         -7.8452  -25.1332  -48.3985 C.3       17 UNK         0.1400 
     96 CB         -9.1005  -25.7386  -47.7344 C.3       17 UNK        -0.1800 
     97 C          -8.1624  -24.0503  -49.4508 C.2       17 UNK         0.5000 
     98 O          -9.3283  -23.8004  -49.7630 O.2       17 UNK        -0.5000 
     99 N          -7.0919  -23.4240  -49.9581 N.am      18 UNK        -0.5000 
    100 CA        -7.0690  -22.3094  -50.9106 C.3       18 UNK         0.1400 
    101 CB        -7.7250  -21.0516  -50.3002 C.3       18 UNK        -0.1800 
    102 C         -7.6497  -22.6728  -52.2922 C.2       18 UNK         0.5000 
    103 O         -8.3919  -21.8829  -52.8812 O.2       18 UNK        -0.5000 
    104 N         -7.2889  -23.8552  -52.8068 N.am      19 UNK        -0.5000 
    105 CA        -7.6442  -24.3269  -54.1440 C.3       19 UNK         0.1400 
    106 CB        -7.4972  -25.8574  -54.1967 C.3       19 UNK        -0.1800 
    107 C         -6.7849  -23.6123  -55.2058 C.2       19 UNK         0.5000 
    108 O         -5.7782  -24.1595  -55.6593 O.2       19 UNK        -0.5000 
    109 N         -7.1911  -22.3800  -55.5438 N.am      20 UNK        -0.5000 
    110 CA        -6.5258  -21.4373  -56.4503 C.3       20 UNK         0.1400 
    111 CB        -6.4914  -21.9814  -57.8946 C.3       20 UNK        -0.1800 
    112 C         -5.1419  -20.9968  -55.9262 C.2       20 UNK         0.5000 
    113 O         -4.1687  -20.9616  -56.6820 O.2       20 UNK        -0.5000 
    114 N         -5.0872  -20.6647  -54.6317 N.am      21 UNK        -0.5000 
    115 CA        -3.9081  -20.1694  -53.9297 C.3       21 UNK         0.1400 
    116 CB        -3.1810  -21.3460  -53.2613 C.3       21 UNK        -0.1800 
    117 C         -4.3581  -19.1468  -52.8796 C.2       21 UNK         0.5000 
    118 O         -5.4693  -19.2640  -52.3576 O.2       21 UNK        -0.5000 
    119 N         -3.4888  -18.1750  -52.5833 N.am      22 UNK        -0.5000 
    120 CA        -3.7279  -17.1222  -51.5822 C.3       22 UNK         0.1400 
    121 C         -3.5577  -17.5752  -50.1032 C.2       22 UNK         0.5000 
    122 N         -2.8612  -18.6693  -49.8210 N.am      22 UNK        -0.7600 
    123 O         -4.0521  -16.9087  -49.1992 O.2       22 UNK        -0.5000 
    124 C124       -2.8985  -15.8434  -51.8831 C.3       23 UNK        -0.0398 
    125 S125       -1.0951  -16.1285  -52.0058 S.3       23 UNK        -0.2404 
    126 C126       -0.5628  -15.6806  -50.3194 C.3       23 UNK        -0.0205 
    127 H127        2.6953   -6.9690  -49.6102 H         1 UNK         0.0600 
    128 H128        2.0029   -7.8038  -48.2165 H         1 UNK         0.0600 
    129 H129        1.2644   -7.9863  -49.8099 H         1 UNK         0.0600 
    130 H130        3.2404   -9.5823  -47.6052 H         1 UNK         0.3000 
    131 H131        5.1779  -10.7775  -49.3238 H         1 UNK         0.0600 
    132 H132        2.8129  -12.5171  -48.4196 H         1 UNK         0.0800 
    133 H133        3.1017  -12.0336  -50.0618 H         1 UNK         0.0800 
    134 H134        4.8440  -15.5090  -47.8783 H         1 UNK         0.0800 
    135 H135        3.5569  -14.4384  -47.4136 H         1 UNK         0.0800 
    136 H136        1.4665  -14.3472  -49.0898 H         1 UNK         0.1150 
    137 H137        0.4720  -18.1853  -50.7182 H         1 UNK         0.1150 
    138 H138        4.3285  -17.5371  -48.9756 H         1 UNK         0.1150 
    139 H139        2.3320  -19.7850  -51.1134 H         1 UNK         0.0800 
    140 H140        3.9012  -19.4964  -50.4137 H         1 UNK         0.0800 
    141 H141        0.4118  -20.8858  -50.0370 H         1 UNK         0.0800 
    142 H142        0.1784  -19.7973  -48.6852 H         1 UNK         0.0800 
    143 H143        0.7375  -22.7779  -48.3167 H         1 UNK         0.0600 
    144 H144        0.4246  -20.6906  -46.4244 H         1 UNK         0.3000 
    145 H145       -0.5749  -22.7916  -43.6692 H         1 UNK         0.0600 
    146 H146        1.3339  -21.5448  -42.7055 H         1 UNK         0.0600 
    147 H147        1.9137  -22.7600  -43.8351 H         1 UNK         0.0600 
    148 H148        1.8757  -21.0676  -44.3122 H         1 UNK         0.0600 
    149 H149       -0.3307  -19.9662  -43.8466 H         1 UNK         0.3000 
    150 H150       -3.7364  -19.2892  -44.7973 H         1 UNK         0.0600 
    151 H151       -3.6919  -19.6153  -42.3218 H         1 UNK         0.0600 
    152 H152       -3.5499  -17.9153  -42.7464 H         1 UNK         0.0600 
    153 H153       -2.1262  -18.8165  -42.2333 H         1 UNK         0.0600 
    154 H154       -1.5794  -17.5243  -44.2930 H         1 UNK         0.3000 
    155 H155       -0.2653  -17.4001  -47.6216 H         1 UNK         0.0600 
    156 H156       -1.7039  -15.3806  -45.8125 H         1 UNK         0.0600 
    157 H157       -2.1930  -15.8026  -47.4398 H         1 UNK         0.0600 
    158 H158       -0.6524  -14.9986  -47.1744 H         1 UNK         0.0600 
    159 H159        0.5702  -16.1643  -45.1909 H         1 UNK         0.3000 
    160 H160        2.9082  -18.6676  -44.1801 H         1 UNK         0.0600 
    161 H161        4.4295  -16.7448  -44.3895 H         1 UNK         0.0600 
    162 H162        3.2451  -15.8472  -45.3352 H         1 UNK         0.0600 
    163 H163        3.9872  -17.2998  -45.9949 H         1 UNK         0.0600 
    164 H164        2.3177  -16.1381  -43.0446 H         1 UNK         0.3000 
    165 H165       -0.4081  -17.1734  -40.9503 H         1 UNK         0.0600 
    166 H166        1.0767  -16.0780  -39.3074 H         1 UNK         0.0600 
    167 H167        1.7399  -17.6362  -39.7729 H         1 UNK         0.0600 
    168 H168        2.4359  -16.1603  -40.4267 H         1 UNK         0.0600 
    169 H169        0.6753  -14.5962  -41.3407 H         1 UNK         0.3000 
    170 H170       -0.8928  -13.5127  -44.1472 H         1 UNK         0.0600 
    171 H171       -3.1697  -13.8856  -43.2629 H         1 UNK         0.0600 
    172 H172       -2.6742  -13.3254  -41.6705 H         1 UNK         0.0600 
    173 H173       -2.6902  -12.2127  -43.0390 H         1 UNK         0.0600 
    174 H174       -0.5156  -12.2591  -41.5432 H         1 UNK         0.3000 
    175 H175        1.4212  -13.8533  -44.2029 H         1 UNK         0.0600 
    176 H176        1.7897  -10.9529  -45.1310 H         1 UNK         0.0600 
    177 H177        1.8919  -12.3879  -46.1489 H         1 UNK         0.0600 
    178 H178        0.3592  -11.9308  -45.4245 H         1 UNK         0.0600 
    179 H179        3.7524  -12.1448  -44.2870 H         1 UNK         0.3000 
    180 H180        5.3898  -12.9073  -41.8652 H         1 UNK         0.0600 
    181 H181        6.1094  -15.5064  -43.3128 H         1 UNK         0.0600 
    182 H182        5.6604  -15.3553  -41.6208 H         1 UNK         0.0600 
    183 H183        7.1467  -14.6238  -42.1978 H         1 UNK         0.0600 
    184 H184        6.3901  -11.8405  -43.4999 H         1 UNK         0.3000 
    185 H185        7.0629  -11.1183  -45.4042 H         1 UNK         0.0600 
    186 H186        8.9371  -12.7772  -45.4419 H         1 UNK         0.0600 
    187 H187        8.3012  -13.4757  -46.9263 H         1 UNK         0.0600 
    188 H188        8.9019  -11.8170  -46.9128 H         1 UNK         0.0600 
    189 H189        6.6183  -12.0810  -48.0466 H         1 UNK         0.3000 
    190 H190       -2.1684  -20.8414  -47.4528 H         1 UNK         0.3000 
    191 H191       -3.9244  -21.9516  -49.3833 H         1 UNK         0.0600 
    192 H192       -4.4443  -20.7535  -46.6154 H         1 UNK         0.0600 
    193 H193       -5.7199  -21.2151  -47.7225 H         1 UNK         0.0600 
    194 H194       -4.5942  -19.9484  -48.1722 H         1 UNK         0.0600 
    195 H195       -3.2446  -22.9805  -45.9993 H         1 UNK         0.3000 
    196 H196       -4.9939  -25.1964  -45.9393 H         1 UNK         0.0600 
    197 H197       -3.6140  -25.8973  -43.9723 H         1 UNK         0.0600 
    198 H198       -4.0151  -24.1875  -43.9056 H         1 UNK         0.0600 
    199 H199       -2.3985  -24.6942  -44.3881 H         1 UNK         0.0600 
    200 H200       -1.5361  -25.0096  -46.8811 H         1 UNK         0.3000 
    201 H201       -1.1631  -27.7709  -47.4558 H         1 UNK         0.0600 
    202 H202        0.7178  -26.1932  -47.1214 H         1 UNK         0.0600 
    203 H203        0.2705  -25.3026  -48.5739 H         1 UNK         0.0600 
    204 H204        0.8474  -26.9603  -48.6974 H         1 UNK         0.0600 
    205 H205       -2.1397  -25.0260  -49.5574 H         1 UNK         0.3000 
    206 H206       -2.5194  -26.6855  -51.9200 H         1 UNK         0.0600 
    207 H207       -1.6657  -24.3472  -52.0522 H         1 UNK         0.0600 
    208 H208       -3.1655  -24.5295  -52.9497 H         1 UNK         0.0600 
    209 H209       -3.1785  -23.7559  -51.3672 H         1 UNK         0.0600 
    210 H210       -4.0119  -27.8469  -50.0165 H         1 UNK         0.3000 
    211 H211       -6.0038  -28.7220  -49.5184 H         1 UNK         0.0600 
    212 H212       -6.5257  -28.1152  -52.4739 H         1 UNK         0.0600 
    213 H213       -7.3301  -29.3552  -51.5196 H         1 UNK         0.0600 
    214 H214       -5.6123  -29.4872  -51.8521 H         1 UNK         0.0600 
    215 H215       -6.0077  -26.1413  -48.6022 H         1 UNK         0.3000 
    216 H216       -7.2805  -24.6352  -47.6089 H         1 UNK         0.0600 
    217 H217       -9.6819  -24.9651  -47.2315 H         1 UNK         0.0600 
    218 H218       -8.8297  -26.4807  -46.9835 H         1 UNK         0.0600 
    219 H219       -9.7597  -26.2183  -48.4581 H         1 UNK         0.0600 
    220 H220       -6.1814  -23.7494  -49.6398 H         1 UNK         0.3000 
    221 H221       -6.0164  -22.0778  -51.0792 H         1 UNK         0.0600 
    222 H222       -8.7960  -21.1852  -50.1468 H         1 UNK         0.0600 
    223 H223       -7.2801  -20.7930  -49.3415 H         1 UNK         0.0600 
    224 H224       -7.5980  -20.1884  -50.9541 H         1 UNK         0.0600 
    225 H225       -6.6361  -24.4428  -52.2892 H         1 UNK         0.3000 
    226 H226       -8.6933  -24.0921  -54.3362 H         1 UNK         0.0600 
    227 H227       -8.1165  -26.3381  -53.4388 H         1 UNK         0.0600 
    228 H228       -7.8081  -26.2444  -55.1675 H         1 UNK         0.0600 
    229 H229       -6.4662  -26.1725  -54.0341 H         1 UNK         0.0600 
    230 H230       -7.9873  -22.0094  -55.0377 H         1 UNK         0.3000 
    231 H231       -7.1435  -20.5381  -56.4589 H         1 UNK         0.0600 
    232 H232       -7.4875  -22.2679  -58.2317 H         1 UNK         0.0600 
    233 H233       -5.8420  -22.8522  -57.9880 H         1 UNK         0.0600 
    234 H234       -6.1208  -21.2243  -58.5866 H         1 UNK         0.0600 
    235 H235       -5.9358  -20.6598  -54.0802 H         1 UNK         0.3000 
    236 H236       -3.2349  -19.6733  -54.6323 H         1 UNK         0.0600 
    237 H237       -2.2893  -21.0115  -52.7300 H         1 UNK         0.0600 
    238 H238       -3.8275  -21.8470  -52.5406 H         1 UNK         0.0600 
    239 H239       -2.8645  -22.0848  -53.9978 H         1 UNK         0.0600 
    240 H240       -2.5896  -18.1456  -53.0423 H         1 UNK         0.3000 
    241 H241       -4.7768  -16.8316  -51.6698 H         1 UNK         0.0600 
    242 H242       -2.7195  -18.9124  -48.8461 H         1 UNK         0.3800 
    243 H243       -2.4537  -19.2233  -50.5536 H         1 UNK         0.3800 
    244 H244       -3.2256  -15.4258  -52.8361 H         1 UNK         0.0800 
    245 H245       -3.1005  -15.0648  -51.1451 H         1 UNK         0.0800 
    246 H246       -1.2635  -16.0894  -49.5957 H         1 UNK         0.0800 
    247 H247       -0.6076  -14.5953  -50.2169 H         1 UNK         0.0800 
@<TRIPOS>BOND
     1    1    2 1    
     2    1  127 1    
     3    1  128 1    
     4    1  129 1    
     5    2    3 2    
     6    2    4 am   BACKBONE|DICT|INTERRES
     7    4    5 1    
     8    4  130 1    
     9    5    6 1    
    10    5   65 1    
    11    5  131 1    
    12    6    7 1    
    13    6  132 1    
    14    6  133 1    
    15    7    8 1    
    16    8    9 1    
    17    8  134 1    
    18    8  135 1    
    19    9   10 ar   
    20    9   14 ar   
    21   10   11 ar   
    22   10  136 1    
    23   11   12 ar   
    24   11  126 1    
    25   12   13 ar   
    26   12  137 1    
    27   13   14 ar   
    28   13   15 1    
    29   14  138 1    
    30   15   16 1    
    31   15  139 1    
    32   15  140 1    
    33   16   17 1    
    34   17   18 1    
    35   17  141 1    
    36   17  142 1    
    37   18   19 1    
    38   18   67 1    
    39   18  143 1    
    40   19   20 am   BACKBONE|DICT|INTERRES
    41   19  144 1    
    42   20   21 2    
    43   20   22 1    
    44   22   23 1    
    45   22   24 1    
    46   22  145 1    
    47   23  146 1    
    48   23  147 1    
    49   23  148 1    
    50   24   25 am   BACKBONE|DICT|INTERRES
    51   24  149 1    
    52   25   26 2    
    53   25   27 1    
    54   27   28 1    
    55   27   29 1    
    56   27  150 1    
    57   28  151 1    
    58   28  152 1    
    59   28  153 1    
    60   29   30 am   BACKBONE|DICT|INTERRES
    61   29  154 1    
    62   30   31 2    
    63   30   32 1    
    64   32   33 1    
    65   32   34 1    
    66   32  155 1    
    67   33  156 1    
    68   33  157 1    
    69   33  158 1    
    70   34   35 am   BACKBONE|DICT|INTERRES
    71   34  159 1    
    72   35   36 2    
    73   35   37 1    
    74   37   38 1    
    75   37   39 1    
    76   37  160 1    
    77   38  161 1    
    78   38  162 1    
    79   38  163 1    
    80   39   40 am   BACKBONE|DICT|INTERRES
    81   39  164 1    
    82   40   41 2    
    83   40   42 1    
    84   42   43 1    
    85   42   44 1    
    86   42  165 1    
    87   43  166 1    
    88   43  167 1    
    89   43  168 1    
    90   44   45 am   BACKBONE|DICT|INTERRES
    91   44  169 1    
    92   45   46 2    
    93   45   47 1    
    94   47   48 1    
    95   47   49 1    
    96   47  170 1    
    97   48  171 1    
    98   48  172 1    
    99   48  173 1    
   100   49   50 am   BACKBONE|DICT|INTERRES
   101   49  174 1    
   102   50   51 2    
   103   50   52 1    
   104   52   53 1    
   105   52   54 1    
   106   52  175 1    
   107   53  176 1    
   108   53  177 1    
   109   53  178 1    
   110   54   55 am   BACKBONE|DICT|INTERRES
   111   54  179 1    
   112   55   56 2    
   113   55   57 1    
   114   57   58 1    
   115   57   59 1    
   116   57  180 1    
   117   58  181 1    
   118   58  182 1    
   119   58  183 1    
   120   59   60 am   BACKBONE|DICT|INTERRES
   121   59  184 1    
   122   60   61 2    
   123   60   62 1    
   124   62   63 1    
   125   62   64 1    
   126   62  185 1    
   127   63  186 1    
   128   63  187 1    
   129   63  188 1    
   130   64   65 am   BACKBONE|DICT|INTERRES
   131   64  189 1    
   132   65   66 2    
   133   67   68 2    
   134   67   69 am   BACKBONE|DICT|INTERRES
   135   69   70 1    
   136   69  190 1    
   137   70   71 1    
   138   70   72 1    
   139   70  191 1    
   140   71  192 1    
   141   71  193 1    
   142   71  194 1    
   143   72   73 2    
   144   72   74 am   BACKBONE|DICT|INTERRES
   145   74   75 1    
   146   74  195 1    
   147   75   76 1    
   148   75   77 1    
   149   75  196 1    
   150   76  197 1    
   151   76  198 1    
   152   76  199 1    
   153   77   78 2    
   154   77   79 am   BACKBONE|DICT|INTERRES
   155   79   80 1    
   156   79  200 1    
   157   80   81 1    
   158   80   82 1    
   159   80  201 1    
   160   81  202 1    
   161   81  203 1    
   162   81  204 1    
   163   82   83 2    
   164   82   84 am   BACKBONE|DICT|INTERRES
   165   84   85 1    
   166   84  205 1    
   167   85   86 1    
   168   85   87 1    
   169   85  206 1    
   170   86  207 1    
   171   86  208 1    
   172   86  209 1    
   173   87   88 2    
   174   87   89 am   BACKBONE|DICT|INTERRES
   175   89   90 1    
   176   89  210 1    
   177   90   91 1    
   178   90   92 1    
   179   90  211 1    
   180   91  212 1    
   181   91  213 1    
   182   91  214 1    
   183   92   93 2    
   184   92   94 am   BACKBONE|DICT|INTERRES
   185   94   95 1    
   186   94  215 1    
   187   95   96 1    
   188   95   97 1    
   189   95  216 1    
   190   96  217 1    
   191   96  218 1    
   192   96  219 1    
   193   97   98 2    
   194   97   99 am   BACKBONE|DICT|INTERRES
   195   99  100 1    
   196   99  220 1    
   197  100  101 1    
   198  100  102 1    
   199  100  221 1    
   200  101  222 1    
   201  101  223 1    
   202  101  224 1    
   203  102  103 2    
   204  102  104 am   BACKBONE|DICT|INTERRES
   205  104  105 1    
   206  104  225 1    
   207  105  106 1    
   208  105  107 1    
   209  105  226 1    
   210  106  227 1    
   211  106  228 1    
   212  106  229 1    
   213  107  108 2    
   214  107  109 am   BACKBONE|DICT|INTERRES
   215  109  110 1    
   216  109  230 1    
   217  110  111 1    
   218  110  112 1    
   219  110  231 1    
   220  111  232 1    
   221  111  233 1    
   222  111  234 1    
   223  112  113 2    
   224  112  114 am   BACKBONE|DICT|INTERRES
   225  114  115 1    
   226  114  235 1    
   227  115  116 1    
   228  115  117 1    
   229  115  236 1    
   230  116  237 1    
   231  116  238 1    
   232  116  239 1    
   233  117  118 2    
   234  117  119 am   BACKBONE|DICT|INTERRES
   235  119  120 1    
   236  119  240 1    
   237  120  121 1    
   238  120  124 1    
   239  120  241 1    
   240  121  122 am   BACKBONE|DICT|INTERRES
   241  121  123 2    
   242  122  242 1    
   243  122  243 1    
   244  124  125 1    
   245  124  244 1    
   246  124  245 1    
   247  125  126 1    
   248  126  246 1    
   249  126  247 1    
@<TRIPOS>SUBSTRUCTURE
     1 UNK         1 GROUP             0       ****    0 ROOT    
