@<TRIPOS>MOLECULE
3R540
247   249    1
SMALL
USER_CHARGES


@<TRIPOS>ATOM
      1 CA          1.8783  -10.7322  -46.5279 C.3       0 UNK        -0.1800 
      2 C           3.2805  -11.2998  -46.6907 C.2       0 UNK         0.5000 
      3 O           4.1698  -10.9814  -45.9019 O.2       0 UNK        -0.5000 
      4 N           3.4785  -12.1555  -47.7010 N.am      1 UNK        -0.5000 
      5 CA          4.7512  -12.8180  -48.0253 C.3       1 UNK         0.1400 
      6 C6          4.6962  -13.5238  -49.4019 C.3       23 UNK        -0.0398 
      7 S7          3.3035  -14.6963  -49.5741 S.3       23 UNK        -0.2404 
      8 C8          4.1804  -16.2968  -49.6397 C.3       23 UNK        -0.0205 
      9 C9          3.2754  -17.4893  -49.9451 C.ar      23 UNK        -0.0193 
     10 C10         2.1573  -17.3626  -50.7777 C.ar      23 UNK        -0.1150 
     11 C11         1.3562  -18.4651  -51.0750 C.ar      23 UNK        -0.0193 
     12 C12         1.6808  -19.7148  -50.5401 C.ar      23 UNK        -0.1150 
     13 C13         2.8107  -19.8695  -49.7297 C.ar      23 UNK        -0.0193 
     14 C14         3.5997  -18.7514  -49.4342 C.ar      23 UNK        -0.1150 
     15 C15         3.1975  -21.2574  -49.2246 C.3       23 UNK        -0.0205 
     16 S16         3.4283  -21.3645  -47.4158 S.3       23 UNK        -0.2404 
     17 C17         1.8301  -20.7627  -46.7797 C.3       23 UNK        -0.0398 
     18 CA          0.8092  -21.8731  -46.4288 C.3       11 UNK         0.1400 
     19 N          -0.2745  -21.3474  -45.5938 N.am      11 UNK        -0.5000 
     20 C          -1.2594  -22.0665  -45.0394 C.2       10 UNK         0.5000 
     21 O          -1.3212  -23.2937  -45.0954 O.2       10 UNK        -0.5000 
     22 CA         -2.3897  -21.2819  -44.3449 C.3       10 UNK         0.1400 
     23 CB         -2.0075  -20.9340  -42.8991 C.3       10 UNK        -0.1800 
     24 N          -2.7616  -20.0629  -45.0680 N.am      10 UNK        -0.5000 
     25 C          -3.3236  -20.0489  -46.2860 C.2       9 UNK         0.5000 
     26 O          -3.6435  -21.0686  -46.8959 O.2       9 UNK        -0.5000 
     27 CA         -3.5106  -18.6742  -46.9591 C.3       9 UNK         0.1400 
     28 CB         -4.7713  -17.9683  -46.4390 C.3       9 UNK        -0.1800 
     29 N          -2.3500  -17.7987  -46.7855 N.am      9 UNK        -0.5000 
     30 C          -1.1223  -18.0711  -47.2501 C.2       8 UNK         0.5000 
     31 O          -0.8591  -19.0690  -47.9187 O.2       8 UNK        -0.5000 
     32 CA          0.0128  -17.1183  -46.8259 C.3       8 UNK         0.1400 
     33 CB          0.0551  -15.8603  -47.7051 C.3       8 UNK        -0.1800 
     34 N          -0.0888  -16.7383  -45.4143 N.am      8 UNK        -0.5000 
     35 C           0.0519  -17.5989  -44.3949 C.2       7 UNK         0.5000 
     36 O           0.3440  -18.7830  -44.5429 O.2       7 UNK        -0.5000 
     37 CA         -0.2323  -17.0727  -42.9783 C.3       7 UNK         0.1400 
     38 CB          1.0062  -16.4027  -42.3681 C.3       7 UNK        -0.1800 
     39 N          -1.3646  -16.1494  -42.9575 N.am      7 UNK        -0.5000 
     40 C          -2.6374  -16.5218  -43.1543 C.2       6 UNK         0.5000 
     41 O          -2.9893  -17.6901  -43.3135 O.2       6 UNK        -0.5000 
     42 CA         -3.6824  -15.3938  -43.2320 C.3       6 UNK         0.1400 
     43 CB         -4.1822  -15.0226  -41.8282 C.3       6 UNK        -0.1800 
     44 N          -3.1607  -14.1964  -43.8933 N.am      6 UNK        -0.5000 
     45 C          -2.8134  -14.1334  -45.1873 C.2       5 UNK         0.5000 
     46 O          -2.9554  -15.0658  -45.9768 O.2       5 UNK        -0.5000 
     47 CA         -2.1383  -12.8310  -45.6564 C.3       5 UNK         0.1400 
     48 CB         -3.1889  -11.8019  -46.0978 C.3       5 UNK        -0.1800 
     49 N          -1.2848  -12.2451  -44.6185 N.am      5 UNK        -0.5000 
     50 C          -0.1452  -12.7987  -44.1872 C.2       4 UNK         0.5000 
     51 O           0.3389  -13.8301  -44.6622 O.2       4 UNK        -0.5000 
     52 CA          0.5373  -12.1164  -42.9964 C.3       4 UNK         0.1400 
     53 CB         -0.0656  -12.6141  -41.6692 C.3       4 UNK        -0.1800 
     54 N           1.9638  -12.4088  -43.0517 N.am      4 UNK        -0.5000 
     55 C           2.9289  -11.7453  -42.4054 C.2       3 UNK         0.5000 
     56 O           2.7037  -10.8224  -41.6208 O.2       3 UNK        -0.5000 
     57 CA          4.3923  -12.1261  -42.7110 C.3       3 UNK         0.1400 
     58 CB          5.1840  -12.4847  -41.4364 C.3       3 UNK        -0.1800 
     59 N           4.5421  -13.1353  -43.7685 N.am      3 UNK        -0.5000 
     60 C           4.3733  -14.4656  -43.7074 C.2       2 UNK         0.5000 
     61 O           4.0927  -15.0719  -42.6745 O.2       2 UNK        -0.5000 
     62 CA          4.5084  -15.2442  -45.0356 C.3       2 UNK         0.1400 
     63 CB          3.5154  -16.4137  -45.1237 C.3       2 UNK        -0.1800 
     64 N           4.2857  -14.3765  -46.1918 N.am      2 UNK        -0.5000 
     65 C           5.2377  -13.7800  -46.9192 C.2       1 UNK         0.5000 
     66 O           6.4443  -13.9327  -46.7285 O.2       1 UNK        -0.5000 
     67 C           0.2542  -22.5712  -47.6884 C.2       11 UNK         0.5000 
     68 O           0.6433  -23.7022  -47.9798 O.2       11 UNK        -0.5000 
     69 N          -0.6835  -21.9098  -48.3808 N.am      12 UNK        -0.5000 
     70 CA         -1.4088  -22.4582  -49.5252 C.3       12 UNK         0.1400 
     71 CB         -2.2697  -21.3639  -50.1630 C.3       12 UNK        -0.1800 
     72 C          -2.2526  -23.6931  -49.1668 C.2       12 UNK         0.5000 
     73 O          -2.2090  -24.6785  -49.9016 O.2       12 UNK        -0.5000 
     74 N          -2.9570  -23.6473  -48.0268 N.am      13 UNK        -0.5000 
     75 CA         -3.7260  -24.7712  -47.4874 C.3       13 UNK         0.1400 
     76 CB         -4.5073  -24.3250  -46.2421 C.3       13 UNK        -0.1800 
     77 C          -2.8455  -25.9943  -47.1670 C.2       13 UNK         0.5000 
     78 O          -3.2127  -27.1139  -47.5233 O.2       13 UNK        -0.5000 
     79 N          -1.6781  -25.7580  -46.5505 N.am      14 UNK        -0.5000 
     80 CA         -0.6620  -26.7741  -46.2614 C.3       14 UNK         0.1400 
     81 CB          0.4229  -26.1706  -45.3568 C.3       14 UNK        -0.1800 
     82 C          -0.0386  -27.3842  -47.5328 C.2       14 UNK         0.5000 
     83 O           0.2675  -28.5767  -47.5476 O.2       14 UNK        -0.5000 
     84 N           0.0959  -26.5696  -48.5877 N.am      15 UNK        -0.5000 
     85 CA          0.5260  -26.9777  -49.9274 C.3       15 UNK         0.1400 
     86 CB          1.0666  -25.7438  -50.6695 C.3       15 UNK        -0.1800 
     87 C          -0.5829  -27.6744  -50.7495 C.2       15 UNK         0.5000 
     88 O          -0.3088  -28.1104  -51.8684 O.2       15 UNK        -0.5000 
     89 N          -1.8015  -27.7658  -50.1945 N.am      16 UNK        -0.5000 
     90 CA         -3.0177  -28.3473  -50.7720 C.3       16 UNK         0.1400 
     91 CB         -2.8356  -29.8512  -51.0675 C.3       16 UNK        -0.1800 
     92 C          -3.5781  -27.5542  -51.9722 C.2       16 UNK         0.5000 
     93 O          -4.2613  -28.1287  -52.8226 O.2       16 UNK        -0.5000 
     94 N          -3.3097  -26.2441  -52.0070 N.am      17 UNK        -0.5000 
     95 CA         -3.9144  -25.2877  -52.9293 C.3       17 UNK         0.1400 
     96 CB         -2.8689  -24.2153  -53.2783 C.3       17 UNK        -0.1800 
     97 C          -5.1592  -24.6512  -52.2837 C.2       17 UNK         0.5000 
     98 O          -5.3658  -24.7707  -51.0725 O.2       17 UNK        -0.5000 
     99 N          -5.9691  -23.9703  -53.1041 N.am      18 UNK        -0.5000 
    100 CA        -7.1238  -23.1899  -52.6613 C.3       18 UNK         0.1400 
    101 CB        -7.9746  -22.8037  -53.8819 C.3       18 UNK        -0.1800 
    102 C         -6.6560  -21.9442  -51.8895 C.2       18 UNK         0.5000 
    103 O         -6.0932  -21.0328  -52.4968 O.2       18 UNK        -0.5000 
    104 N         -6.8767  -21.9365  -50.5695 N.am      19 UNK        -0.5000 
    105 CA        -6.3634  -20.9403  -49.6236 C.3       19 UNK         0.1400 
    106 CB        -6.8087  -21.3348  -48.2087 C.3       19 UNK        -0.1800 
    107 C         -6.7709  -19.4861  -49.9290 C.2       19 UNK         0.5000 
    108 O         -5.9874  -18.5724  -49.6745 O.2       19 UNK        -0.5000 
    109 N         -7.9773  -19.3025  -50.4830 N.am      20 UNK        -0.5000 
    110 CA        -8.5161  -18.0009  -50.8811 C.3       20 UNK         0.1400 
    111 CB       -10.0336  -18.1287  -51.0842 C.3       20 UNK        -0.1800 
    112 C         -7.8500  -17.4289  -52.1479 C.2       20 UNK         0.5000 
    113 O         -7.7401  -16.2085  -52.2725 O.2       20 UNK        -0.5000 
    114 N         -7.4260  -18.3112  -53.0626 N.am      21 UNK        -0.5000 
    115 CA        -6.7391  -17.9506  -54.3050 C.3       21 UNK         0.1400 
    116 CB        -7.1009  -18.9779  -55.3885 C.3       21 UNK        -0.1800 
    117 C         -5.2121  -17.8899  -54.1233 C.2       21 UNK         0.5000 
    118 O         -4.5373  -17.1761  -54.8667 O.2       21 UNK        -0.5000 
    119 N         -4.6952  -18.6596  -53.1589 N.am      22 UNK        -0.5000 
    120 CA        -3.2803  -18.8848  -52.8368 C.3       22 UNK         0.1400 
    121 C         -2.5456  -19.7553  -53.8956 C.2       22 UNK         0.5000 
    122 N         -2.6289  -19.4221  -55.1768 N.am      22 UNK        -0.7600 
    123 O         -1.9102  -20.7482  -53.5567 O.2       22 UNK        -0.5000 
    124 C124       -2.5043  -17.5776  -52.5045 C.3       23 UNK        -0.0398 
    125 S125       -1.3230  -17.7685  -51.1280 S.3       23 UNK        -0.2404 
    126 C126        0.1715  -18.3045  -52.0137 C.3       23 UNK        -0.0205 
    127 H127        1.8033   -9.7689  -47.0319 H         1 UNK         0.0600 
    128 H128        1.6506  -10.5818  -45.4730 H         1 UNK         0.0600 
    129 H129        1.1252  -11.4014  -46.9451 H         1 UNK         0.0600 
    130 H130        2.7088  -12.3872  -48.3137 H         1 UNK         0.3000 
    131 H131        5.5054  -12.0312  -48.0967 H         1 UNK         0.0600 
    132 H132        4.5842  -12.7710  -50.1832 H         1 UNK         0.0800 
    133 H133        5.6417  -14.0239  -49.6195 H         1 UNK         0.0800 
    134 H134        4.6902  -16.4495  -48.6870 H         1 UNK         0.0800 
    135 H135        4.9525  -16.2514  -50.4087 H         1 UNK         0.0800 
    136 H136        1.9060  -16.4051  -51.2104 H         1 UNK         0.1150 
    137 H137        1.0648  -20.5709  -50.7773 H         1 UNK         0.1150 
    138 H138        4.4779  -18.8703  -48.8151 H         1 UNK         0.1150 
    139 H139        2.4579  -21.9989  -49.5292 H         1 UNK         0.0800 
    140 H140        4.1302  -21.5509  -49.7078 H         1 UNK         0.0800 
    141 H141        1.4063  -20.0373  -47.4704 H         1 UNK         0.0800 
    142 H142        2.0690  -20.1973  -45.8788 H         1 UNK         0.0800 
    143 H143        1.3229  -22.6307  -45.8334 H         1 UNK         0.0600 
    144 H144       -0.2627  -20.3449  -45.4278 H         1 UNK         0.3000 
    145 H145       -3.2691  -21.9278  -44.3123 H         1 UNK         0.0600 
    146 H146       -2.8252  -20.4273  -42.3861 H         1 UNK         0.0600 
    147 H147       -1.7749  -21.8352  -42.3307 H         1 UNK         0.0600 
    148 H148       -1.1330  -20.2855  -42.8565 H         1 UNK         0.0600 
    149 H149       -2.5825  -19.1804  -44.6003 H         1 UNK         0.3000 
    150 H150       -3.6367  -18.8445  -48.0304 H         1 UNK         0.0600 
    151 H151       -5.6582  -18.5805  -46.6012 H         1 UNK         0.0600 
    152 H152       -4.9331  -17.0230  -46.9574 H         1 UNK         0.0600 
    153 H153       -4.7085  -17.7589  -45.3718 H         1 UNK         0.0600 
    154 H154       -2.5028  -16.9248  -46.2909 H         1 UNK         0.3000 
    155 H155        0.9589  -17.6467  -46.9615 H         1 UNK         0.0600 
    156 H156       -0.8704  -15.2890  -47.6432 H         1 UNK         0.0600 
    157 H157        0.8762  -15.2042  -47.4155 H         1 UNK         0.0600 
    158 H158        0.2059  -16.1270  -48.7519 H         1 UNK         0.0600 
    159 H159       -0.2786  -15.7639  -45.2114 H         1 UNK         0.3000 
    160 H160       -0.4843  -17.9314  -42.3526 H         1 UNK         0.0600 
    161 H161        1.3038  -15.5124  -42.9198 H         1 UNK         0.0600 
    162 H162        1.8577  -17.0843  -42.3689 H         1 UNK         0.0600 
    163 H163        0.8278  -16.1112  -41.3332 H         1 UNK         0.0600 
    164 H164       -1.1527  -15.1680  -42.8711 H         1 UNK         0.3000 
    165 H165       -4.5306  -15.7623  -43.8127 H         1 UNK         0.0600 
    166 H166       -4.9732  -14.2739  -41.8766 H         1 UNK         0.0600 
    167 H167       -4.5928  -15.8948  -41.3177 H         1 UNK         0.0600 
    168 H168       -3.3801  -14.6247  -41.2052 H         1 UNK         0.0600 
    169 H169       -3.0241  -13.3798  -43.3168 H         1 UNK         0.3000 
    170 H170       -1.5129  -13.0717  -46.5189 H         1 UNK         0.0600 
    171 H171       -3.8255  -12.2084  -46.8849 H         1 UNK         0.0600 
    172 H172       -3.8366  -11.5050  -45.2720 H         1 UNK         0.0600 
    173 H173       -2.7169  -10.9031  -46.4951 H         1 UNK         0.0600 
    174 H174       -1.6178  -11.3947  -44.1868 H         1 UNK         0.3000 
    175 H175        0.3927  -11.0376  -43.0848 H         1 UNK         0.0600 
    176 H176        0.1053  -13.6806  -41.5238 H         1 UNK         0.0600 
    177 H177        0.3670  -12.0914  -40.8162 H         1 UNK         0.0600 
    178 H178       -1.1422  -12.4440  -41.6350 H         1 UNK         0.0600 
    179 H179        2.2134  -13.1521  -43.6902 H         1 UNK         0.3000 
    180 H180        4.8459  -11.2226  -43.1208 H         1 UNK         0.0600 
    181 H181        4.7268  -13.3090  -40.8889 H         1 UNK         0.0600 
    182 H182        5.2267  -11.6338  -40.7558 H         1 UNK         0.0600 
    183 H183        6.2112  -12.7624  -41.6724 H         1 UNK         0.0600 
    184 H184        4.7331  -12.7380  -44.6805 H         1 UNK         0.3000 
    185 H185        5.5187  -15.6569  -45.0647 H         1 UNK         0.0600 
    186 H186        2.4905  -16.0522  -45.0693 H         1 UNK         0.0600 
    187 H187        3.6274  -16.9610  -46.0601 H         1 UNK         0.0600 
    188 H188        3.6616  -17.1269  -44.3117 H         1 UNK         0.0600 
    189 H189        3.3229  -14.1803  -46.4257 H         1 UNK         0.3000 
    190 H190       -0.9154  -20.9578  -48.1059 H         1 UNK         0.3000 
    191 H191       -0.6703  -22.7728  -50.2650 H         1 UNK         0.0600 
    192 H192       -2.9147  -20.8755  -49.4344 H         1 UNK         0.0600 
    193 H193       -2.9049  -21.7642  -50.9540 H         1 UNK         0.0600 
    194 H194       -1.6350  -20.6005  -50.6091 H         1 UNK         0.0600 
    195 H195       -2.9880  -22.7760  -47.5045 H         1 UNK         0.3000 
    196 H196       -4.4465  -25.0682  -48.2526 H         1 UNK         0.0600 
    197 H197       -5.1656  -25.1210  -45.8924 H         1 UNK         0.0600 
    198 H198       -5.1291  -23.4559  -46.4500 H         1 UNK         0.0600 
    199 H199       -3.8434  -24.0668  -45.4180 H         1 UNK         0.0600 
    200 H200       -1.4723  -24.8102  -46.2442 H         1 UNK         0.3000 
    201 H201       -1.1487  -27.5832  -45.7130 H         1 UNK         0.0600 
    202 H202       -0.0025  -25.8049  -44.4221 H         1 UNK         0.0600 
    203 H203        0.9327  -25.3367  -45.8397 H         1 UNK         0.0600 
    204 H204        1.1783  -26.9149  -45.1020 H         1 UNK         0.0600 
    205 H205       -0.1229  -25.5862  -48.4671 H         1 UNK         0.3000 
    206 H206        1.3450  -27.6920  -49.8234 H         1 UNK         0.0600 
    207 H207        1.8660  -25.2622  -50.1061 H         1 UNK         0.0600 
    208 H208        1.4757  -26.0186  -51.6423 H         1 UNK         0.0600 
    209 H209        0.2859  -25.0032  -50.8414 H         1 UNK         0.0600 
    210 H210       -1.9282  -27.3485  -49.2806 H         1 UNK         0.3000 
    211 H211       -3.7766  -28.2649  -49.9930 H         1 UNK         0.0600 
    212 H212       -2.1554  -30.0229  -51.9019 H         1 UNK         0.0600 
    213 H213       -3.7877  -30.3168  -51.3241 H         1 UNK         0.0600 
    214 H214       -2.4426  -30.3789  -50.1984 H         1 UNK         0.0600 
    215 H215       -2.8128  -25.8296  -51.2207 H         1 UNK         0.3000 
    216 H216       -4.2181  -25.7907  -53.8495 H         1 UNK         0.0600 
    217 H217       -3.2649  -23.4909  -53.9910 H         1 UNK         0.0600 
    218 H218       -1.9832  -24.6625  -53.7297 H         1 UNK         0.0600 
    219 H219       -2.5470  -23.6606  -52.3975 H         1 UNK         0.0600 
    220 H220       -5.7239  -23.8894  -54.0800 H         1 UNK         0.3000 
    221 H221       -7.7370  -23.8103  -52.0041 H         1 UNK         0.0600 
    222 H222       -7.3977  -22.2419  -54.6169 H         1 UNK         0.0600 
    223 H223       -8.3733  -23.6888  -54.3781 H         1 UNK         0.0600 
    224 H224       -8.8240  -22.1859  -53.5878 H         1 UNK         0.0600 
    225 H225       -7.3257  -22.7421  -50.1580 H         1 UNK         0.3000 
    226 H226       -5.2741  -20.9887  -49.6629 H         1 UNK         0.0600 
    227 H227       -6.4764  -22.3422  -47.9618 H         1 UNK         0.0600 
    228 H228       -6.3858  -20.6637  -47.4616 H         1 UNK         0.0600 
    229 H229       -7.8938  -21.3042  -48.1035 H         1 UNK         0.0600 
    230 H230       -8.5578  -20.1108  -50.6514 H         1 UNK         0.3000 
    231 H231       -8.3411  -17.2934  -50.0676 H         1 UNK         0.0600 
    232 H232      -10.4730  -17.1686  -51.3585 H         1 UNK         0.0600 
    233 H233      -10.5273  -18.4612  -50.1709 H         1 UNK         0.0600 
    234 H234      -10.2763  -18.8387  -51.8759 H         1 UNK         0.0600 
    235 H235       -7.5043  -19.2985  -52.8601 H         1 UNK         0.3000 
    236 H236       -7.0770  -16.9686  -54.6427 H         1 UNK         0.0600 
    237 H237       -8.1789  -19.0278  -55.5426 H         1 UNK         0.0600 
    238 H238       -6.6472  -18.7125  -56.3442 H         1 UNK         0.0600 
    239 H239       -6.7511  -19.9770  -55.1269 H         1 UNK         0.0600 
    240 H240       -5.3302  -19.3036  -52.6974 H         1 UNK         0.3000 
    241 H241       -3.3313  -19.4827  -51.9277 H         1 UNK         0.0600 
    242 H242       -3.1668  -18.6070  -55.4458 H         1 UNK         0.3800 
    243 H243       -2.1650  -19.9817  -55.8744 H         1 UNK         0.3800 
    244 H244       -2.0031  -17.1642  -53.3816 H         1 UNK         0.0800 
    245 H245       -3.2049  -16.8052  -52.1844 H         1 UNK         0.0800 
    246 H246       -0.0191  -19.2495  -52.5208 H         1 UNK         0.0800 
    247 H247        0.4128  -17.5798  -52.7927 H         1 UNK         0.0800 
@<TRIPOS>BOND
     1    1    2 1    
     2    1  127 1    
     3    1  128 1    
     4    1  129 1    
     5    2    3 2    
     6    2    4 am   BACKBONE|DICT|INTERRES
     7    4    5 1    
     8    4  130 1    
     9    5    6 1    
    10    5   65 1    
    11    5  131 1    
    12    6    7 1    
    13    6  132 1    
    14    6  133 1    
    15    7    8 1    
    16    8    9 1    
    17    8  134 1    
    18    8  135 1    
    19    9   10 ar   
    20    9   14 ar   
    21   10   11 ar   
    22   10  136 1    
    23   11   12 ar   
    24   11  126 1    
    25   12   13 ar   
    26   12  137 1    
    27   13   14 ar   
    28   13   15 1    
    29   14  138 1    
    30   15   16 1    
    31   15  139 1    
    32   15  140 1    
    33   16   17 1    
    34   17   18 1    
    35   17  141 1    
    36   17  142 1    
    37   18   19 1    
    38   18   67 1    
    39   18  143 1    
    40   19   20 am   BACKBONE|DICT|INTERRES
    41   19  144 1    
    42   20   21 2    
    43   20   22 1    
    44   22   23 1    
    45   22   24 1    
    46   22  145 1    
    47   23  146 1    
    48   23  147 1    
    49   23  148 1    
    50   24   25 am   BACKBONE|DICT|INTERRES
    51   24  149 1    
    52   25   26 2    
    53   25   27 1    
    54   27   28 1    
    55   27   29 1    
    56   27  150 1    
    57   28  151 1    
    58   28  152 1    
    59   28  153 1    
    60   29   30 am   BACKBONE|DICT|INTERRES
    61   29  154 1    
    62   30   31 2    
    63   30   32 1    
    64   32   33 1    
    65   32   34 1    
    66   32  155 1    
    67   33  156 1    
    68   33  157 1    
    69   33  158 1    
    70   34   35 am   BACKBONE|DICT|INTERRES
    71   34  159 1    
    72   35   36 2    
    73   35   37 1    
    74   37   38 1    
    75   37   39 1    
    76   37  160 1    
    77   38  161 1    
    78   38  162 1    
    79   38  163 1    
    80   39   40 am   BACKBONE|DICT|INTERRES
    81   39  164 1    
    82   40   41 2    
    83   40   42 1    
    84   42   43 1    
    85   42   44 1    
    86   42  165 1    
    87   43  166 1    
    88   43  167 1    
    89   43  168 1    
    90   44   45 am   BACKBONE|DICT|INTERRES
    91   44  169 1    
    92   45   46 2    
    93   45   47 1    
    94   47   48 1    
    95   47   49 1    
    96   47  170 1    
    97   48  171 1    
    98   48  172 1    
    99   48  173 1    
   100   49   50 am   BACKBONE|DICT|INTERRES
   101   49  174 1    
   102   50   51 2    
   103   50   52 1    
   104   52   53 1    
   105   52   54 1    
   106   52  175 1    
   107   53  176 1    
   108   53  177 1    
   109   53  178 1    
   110   54   55 am   BACKBONE|DICT|INTERRES
   111   54  179 1    
   112   55   56 2    
   113   55   57 1    
   114   57   58 1    
   115   57   59 1    
   116   57  180 1    
   117   58  181 1    
   118   58  182 1    
   119   58  183 1    
   120   59   60 am   BACKBONE|DICT|INTERRES
   121   59  184 1    
   122   60   61 2    
   123   60   62 1    
   124   62   63 1    
   125   62   64 1    
   126   62  185 1    
   127   63  186 1    
   128   63  187 1    
   129   63  188 1    
   130   64   65 am   BACKBONE|DICT|INTERRES
   131   64  189 1    
   132   65   66 2    
   133   67   68 2    
   134   67   69 am   BACKBONE|DICT|INTERRES
   135   69   70 1    
   136   69  190 1    
   137   70   71 1    
   138   70   72 1    
   139   70  191 1    
   140   71  192 1    
   141   71  193 1    
   142   71  194 1    
   143   72   73 2    
   144   72   74 am   BACKBONE|DICT|INTERRES
   145   74   75 1    
   146   74  195 1    
   147   75   76 1    
   148   75   77 1    
   149   75  196 1    
   150   76  197 1    
   151   76  198 1    
   152   76  199 1    
   153   77   78 2    
   154   77   79 am   BACKBONE|DICT|INTERRES
   155   79   80 1    
   156   79  200 1    
   157   80   81 1    
   158   80   82 1    
   159   80  201 1    
   160   81  202 1    
   161   81  203 1    
   162   81  204 1    
   163   82   83 2    
   164   82   84 am   BACKBONE|DICT|INTERRES
   165   84   85 1    
   166   84  205 1    
   167   85   86 1    
   168   85   87 1    
   169   85  206 1    
   170   86  207 1    
   171   86  208 1    
   172   86  209 1    
   173   87   88 2    
   174   87   89 am   BACKBONE|DICT|INTERRES
   175   89   90 1    
   176   89  210 1    
   177   90   91 1    
   178   90   92 1    
   179   90  211 1    
   180   91  212 1    
   181   91  213 1    
   182   91  214 1    
   183   92   93 2    
   184   92   94 am   BACKBONE|DICT|INTERRES
   185   94   95 1    
   186   94  215 1    
   187   95   96 1    
   188   95   97 1    
   189   95  216 1    
   190   96  217 1    
   191   96  218 1    
   192   96  219 1    
   193   97   98 2    
   194   97   99 am   BACKBONE|DICT|INTERRES
   195   99  100 1    
   196   99  220 1    
   197  100  101 1    
   198  100  102 1    
   199  100  221 1    
   200  101  222 1    
   201  101  223 1    
   202  101  224 1    
   203  102  103 2    
   204  102  104 am   BACKBONE|DICT|INTERRES
   205  104  105 1    
   206  104  225 1    
   207  105  106 1    
   208  105  107 1    
   209  105  226 1    
   210  106  227 1    
   211  106  228 1    
   212  106  229 1    
   213  107  108 2    
   214  107  109 am   BACKBONE|DICT|INTERRES
   215  109  110 1    
   216  109  230 1    
   217  110  111 1    
   218  110  112 1    
   219  110  231 1    
   220  111  232 1    
   221  111  233 1    
   222  111  234 1    
   223  112  113 2    
   224  112  114 am   BACKBONE|DICT|INTERRES
   225  114  115 1    
   226  114  235 1    
   227  115  116 1    
   228  115  117 1    
   229  115  236 1    
   230  116  237 1    
   231  116  238 1    
   232  116  239 1    
   233  117  118 2    
   234  117  119 am   BACKBONE|DICT|INTERRES
   235  119  120 1    
   236  119  240 1    
   237  120  121 1    
   238  120  124 1    
   239  120  241 1    
   240  121  122 am   BACKBONE|DICT|INTERRES
   241  121  123 2    
   242  122  242 1    
   243  122  243 1    
   244  124  125 1    
   245  124  244 1    
   246  124  245 1    
   247  125  126 1    
   248  126  246 1    
   249  126  247 1    
@<TRIPOS>SUBSTRUCTURE
     1 UNK         1 GROUP             0       ****    0 ROOT    
