@<TRIPOS>MOLECULE
3R540
247   249    1
SMALL
USER_CHARGES


@<TRIPOS>ATOM
      1 CA          2.3406  -12.2476  -47.1889 C.3       0 UNK        -0.1800 
      2 C           1.1294  -12.1908  -46.2714 C.2       0 UNK         0.5000 
      3 O           1.2759  -12.2998  -45.0544 O.2       0 UNK        -0.5000 
      4 N          -0.0679  -12.0126  -46.8440 N.am      1 UNK        -0.5000 
      5 CA         -1.3445  -11.9493  -46.1182 C.3       1 UNK         0.1400 
      6 C6         -2.5610  -12.0492  -47.0704 C.3       23 UNK        -0.0398 
      7 S7         -2.7631  -13.7280  -47.7518 S.3       23 UNK        -0.2404 
      8 C8         -1.9779  -13.5787  -49.3840 C.3       23 UNK        -0.0205 
      9 C9         -2.0386  -14.9036  -50.1256 C.ar      23 UNK        -0.0193 
     10 C10        -3.1102  -15.1826  -50.9775 C.ar      23 UNK        -0.1150 
     11 C11        -3.1845  -16.4103  -51.6393 C.ar      23 UNK        -0.0193 
     12 C12        -2.1679  -17.3526  -51.4638 C.ar      23 UNK        -0.1150 
     13 C13        -1.1030  -17.0986  -50.5922 C.ar      23 UNK        -0.0193 
     14 C14        -1.0397  -15.8639  -49.9374 C.ar      23 UNK        -0.1150 
     15 C15        -0.0173  -18.1418  -50.3348 C.3       23 UNK        -0.0205 
     16 S16        -0.6164  -19.8665  -50.2255 S.3       23 UNK        -0.2404 
     17 C17        -2.0319  -19.7352  -49.0810 C.3       23 UNK        -0.0398 
     18 CA         -2.2619  -21.0462  -48.2947 C.3       11 UNK         0.1400 
     19 N          -1.2332  -21.2753  -47.2721 N.am      11 UNK        -0.5000 
     20 C          -1.1189  -22.3949  -46.5447 C.2       10 UNK         0.5000 
     21 O          -1.8411  -23.3784  -46.6927 O.2       10 UNK        -0.5000 
     22 CA         -0.0645  -22.4084  -45.4242 C.3       10 UNK         0.1400 
     23 CB          1.3404  -22.6721  -45.9859 C.3       10 UNK        -0.1800 
     24 N          -0.0726  -21.1777  -44.6325 N.am      10 UNK        -0.5000 
     25 C          -1.1051  -20.7707  -43.8792 C.2       9 UNK         0.5000 
     26 O          -2.1386  -21.4220  -43.7330 O.2       9 UNK        -0.5000 
     27 CA         -0.9932  -19.3811  -43.2235 C.3       9 UNK         0.1400 
     28 CB         -0.1554  -19.4401  -41.9382 C.3       9 UNK        -0.1800 
     29 N          -0.4379  -18.3779  -44.1315 N.am      9 UNK        -0.5000 
     30 C          -1.0128  -17.9977  -45.2813 C.2       8 UNK         0.5000 
     31 O          -2.1104  -18.4002  -45.6657 O.2       8 UNK        -0.5000 
     32 CA         -0.1950  -17.0586  -46.1823 C.3       8 UNK         0.1400 
     33 CB         -0.3515  -15.5957  -45.7487 C.3       8 UNK        -0.1800 
     34 N           1.2234  -17.4162  -46.2161 N.am      8 UNK        -0.5000 
     35 C           1.7005  -18.5557  -46.7363 C.2       7 UNK         0.5000 
     36 O           0.9940  -19.4103  -47.2663 O.2       7 UNK        -0.5000 
     37 CA          3.2129  -18.8000  -46.5970 C.3       7 UNK         0.1400 
     38 CB          3.9931  -17.9745  -47.6312 C.3       7 UNK        -0.1800 
     39 N           3.7005  -18.4892  -45.2531 N.am      7 UNK        -0.5000 
     40 C           3.3438  -19.1548  -44.1448 C.2       6 UNK         0.5000 
     41 O           2.6187  -20.1484  -44.1493 O.2       6 UNK        -0.5000 
     42 CA          3.8391  -18.5849  -42.8013 C.3       6 UNK         0.1400 
     43 CB          5.1975  -19.1944  -42.4253 C.3       6 UNK        -0.1800 
     44 N           3.9437  -17.1224  -42.7939 N.am      6 UNK        -0.5000 
     45 C           2.9173  -16.2831  -42.9863 C.2       5 UNK         0.5000 
     46 O           1.7602  -16.6573  -43.1929 O.2       5 UNK        -0.5000 
     47 CA          3.2743  -14.7861  -43.0335 C.3       5 UNK         0.1400 
     48 CB          3.8707  -14.4325  -44.4055 C.3       5 UNK        -0.1800 
     49 N           2.1287  -13.9113  -42.7951 N.am      5 UNK        -0.5000 
     50 C           1.4478  -13.8063  -41.6460 C.2       4 UNK         0.5000 
     51 O           1.7061  -14.4558  -40.6303 O.2       4 UNK        -0.5000 
     52 CA          0.3209  -12.7508  -41.6405 C.3       4 UNK         0.1400 
     53 CB         -0.3109  -12.5261  -40.2510 C.3       4 UNK        -0.1800 
     54 N           0.7715  -11.4865  -42.2325 N.am      4 UNK        -0.5000 
     55 C           1.7700  -10.6949  -41.8095 C.2       3 UNK         0.5000 
     56 O           2.3636  -10.8421  -40.7406 O.2       3 UNK        -0.5000 
     57 CA          2.2126   -9.5638  -42.7580 C.3       3 UNK         0.1400 
     58 CB          3.5459   -9.9309  -43.4302 C.3       3 UNK        -0.1800 
     59 N           1.2293   -9.2864  -43.8056 N.am      3 UNK        -0.5000 
     60 C           0.1994   -8.4382  -43.6855 C.2       2 UNK         0.5000 
     61 O          -0.0180   -7.7614  -42.6800 O.2       2 UNK        -0.5000 
     62 CA         -0.7537   -8.3363  -44.8930 C.3       2 UNK         0.1400 
     63 CB         -0.3139   -7.2020  -45.8311 C.3       2 UNK        -0.1800 
     64 N          -0.8383   -9.5838  -45.6572 N.am      2 UNK        -0.5000 
     65 C          -1.4479  -10.6967  -45.2237 C.2       1 UNK         0.5000 
     66 O          -2.0395  -10.7725  -44.1468 O.2       1 UNK        -0.5000 
     67 C          -3.6907  -21.0983  -47.7125 C.2       11 UNK         0.5000 
     68 O          -4.5785  -21.6770  -48.3390 O.2       11 UNK        -0.5000 
     69 N          -3.8936  -20.5358  -46.5145 N.am      12 UNK        -0.5000 
     70 CA         -5.1660  -20.5992  -45.7964 C.3       12 UNK         0.1400 
     71 CB         -5.1383  -19.6166  -44.6156 C.3       12 UNK        -0.1800 
     72 C          -5.5164  -22.0232  -45.3198 C.2       12 UNK         0.5000 
     73 O          -6.6739  -22.4297  -45.4289 O.2       12 UNK        -0.5000 
     74 N          -4.5211  -22.7457  -44.7897 N.am      13 UNK        -0.5000 
     75 CA         -4.6907  -24.0711  -44.1983 C.3       13 UNK         0.1400 
     76 CB         -3.5466  -24.3315  -43.2051 C.3       13 UNK        -0.1800 
     77 C          -4.7699  -25.2057  -45.2348 C.2       13 UNK         0.5000 
     78 O          -5.6842  -26.0280  -45.1607 O.2       13 UNK        -0.5000 
     79 N          -3.7897  -25.2638  -46.1443 N.am      14 UNK        -0.5000 
     80 CA         -3.5461  -26.4052  -47.0296 C.3       14 UNK         0.1400 
     81 CB         -2.0420  -26.7215  -47.0077 C.3       14 UNK        -0.1800 
     82 C          -4.0230  -26.1704  -48.4729 C.2       14 UNK         0.5000 
     83 O          -4.1267  -27.1401  -49.2268 O.2       14 UNK        -0.5000 
     84 N          -4.3046  -24.9100  -48.8361 N.am      15 UNK        -0.5000 
     85 CA         -4.7874  -24.4605  -50.1455 C.3       15 UNK         0.1400 
     86 CB         -6.2729  -24.8435  -50.3257 C.3       15 UNK        -0.1800 
     87 C          -3.8655  -24.9074  -51.2969 C.2       15 UNK         0.5000 
     88 O          -2.6856  -24.5552  -51.2820 O.2       15 UNK        -0.5000 
     89 N          -4.4016  -25.6953  -52.2415 N.am      16 UNK        -0.5000 
     90 CA         -3.7445  -26.1893  -53.4565 C.3       16 UNK         0.1400 
     91 CB         -4.7189  -27.1114  -54.2048 C.3       16 UNK        -0.1800 
     92 C          -2.3965  -26.9043  -53.2361 C.2       16 UNK         0.5000 
     93 O          -1.5500  -26.8811  -54.1303 O.2       16 UNK        -0.5000 
     94 N          -2.2130  -27.5121  -52.0560 N.am      17 UNK        -0.5000 
     95 CA         -0.9640  -28.1511  -51.6438 C.3       17 UNK         0.1400 
     96 CB         -1.2492  -29.0851  -50.4593 C.3       17 UNK        -0.1800 
     97 C           0.1536  -27.1457  -51.2950 C.2       17 UNK         0.5000 
     98 O           1.3271  -27.5103  -51.3792 O.2       17 UNK        -0.5000 
     99 N          -0.2132  -25.9127  -50.9177 N.am      18 UNK        -0.5000 
    100 CA         0.7171  -24.8172  -50.6512 C.3       18 UNK         0.1400 
    101 CB         0.1910  -23.9552  -49.4943 C.3       18 UNK        -0.1800 
    102 C          0.9389  -23.9730  -51.9157 C.2       18 UNK         0.5000 
    103 O          2.0900  -23.7267  -52.2789 O.2       18 UNK        -0.5000 
    104 N         -0.1516  -23.5718  -52.5814 N.am      19 UNK        -0.5000 
    105 CA        -0.1308  -22.8236  -53.8353 C.3       19 UNK         0.1400 
    106 CB         0.1517  -21.3328  -53.5742 C.3       19 UNK        -0.1800 
    107 C         -1.4774  -22.9893  -54.5454 C.2       19 UNK         0.5000 
    108 O         -2.5155  -23.0320  -53.8881 O.2       19 UNK        -0.5000 
    109 N         -1.4505  -23.0308  -55.8821 N.am      20 UNK        -0.5000 
    110 CA        -2.6391  -23.1878  -56.7268 C.3       20 UNK         0.1400 
    111 CB        -2.1857  -23.5424  -58.1518 C.3       20 UNK        -0.1800 
    112 C         -3.5720  -21.9572  -56.7459 C.2       20 UNK         0.5000 
    113 O         -4.7126  -22.0792  -57.1941 O.2       20 UNK        -0.5000 
    114 N         -3.0720  -20.7996  -56.2888 N.am      21 UNK        -0.5000 
    115 CA        -3.7854  -19.5237  -56.2493 C.3       21 UNK         0.1400 
    116 CB        -2.8059  -18.4066  -55.8518 C.3       21 UNK        -0.1800 
    117 C         -5.0124  -19.5405  -55.3187 C.2       21 UNK         0.5000 
    118 O         -6.1117  -19.2073  -55.7631 O.2       21 UNK        -0.5000 
    119 N         -4.8027  -19.9290  -54.0560 N.am      22 UNK        -0.5000 
    120 CA        -5.8144  -20.0221  -52.9947 C.3       22 UNK         0.1400 
    121 C         -5.2371  -20.7585  -51.7512 C.2       22 UNK         0.5000 
    122 N         -6.0540  -21.0345  -50.7436 N.am      22 UNK        -0.7600 
    123 O         -4.0483  -21.0569  -51.6748 O.2       22 UNK        -0.5000 
    124 C124       -6.4986  -18.6529  -52.6622 C.3       23 UNK        -0.0398 
    125 S125       -5.6403  -17.5778  -51.4584 S.3       23 UNK        -0.2404 
    126 C126       -4.3931  -16.7530  -52.4904 C.3       23 UNK        -0.0205 
    127 H127        3.1236  -11.5865  -46.8174 H         1 UNK         0.0600 
    128 H128        2.7367  -13.2621  -47.2231 H         1 UNK         0.0600 
    129 H129        2.0921  -11.9433  -48.2057 H         1 UNK         0.0600 
    130 H130       -0.1257  -11.9217  -47.8471 H         1 UNK         0.3000 
    131 H131       -1.3770  -12.8047  -45.4397 H         1 UNK         0.0600 
    132 H132       -2.4928  -11.3182  -47.8778 H         1 UNK         0.0800 
    133 H133       -3.4858  -11.8215  -46.5365 H         1 UNK         0.0800 
    134 H134       -2.4772  -12.7992  -49.9618 H         1 UNK         0.0800 
    135 H135       -0.9391  -13.2683  -49.2701 H         1 UNK         0.0800 
    136 H136       -3.9016  -14.4568  -51.1018 H         1 UNK         0.1150 
    137 H137       -2.2345  -18.3053  -51.9705 H         1 UNK         0.1150 
    138 H138       -0.2206  -15.6528  -49.2640 H         1 UNK         0.1150 
    139 H139        0.7194  -18.0819  -51.1364 H         1 UNK         0.0800 
    140 H140        0.5147  -17.9073  -49.4134 H         1 UNK         0.0800 
    141 H141       -1.8819  -18.8979  -48.3986 H         1 UNK         0.0800 
    142 H142       -2.9074  -19.4876  -49.6845 H         1 UNK         0.0800 
    143 H143       -2.2032  -21.8730  -49.0048 H         1 UNK         0.0600 
    144 H144       -0.5541  -20.5306  -47.1373 H         1 UNK         0.3000 
    145 H145       -0.3123  -23.2318  -44.7510 H         1 UNK         0.0600 
    146 H146        2.0785  -22.7354  -45.1864 H         1 UNK         0.0600 
    147 H147        1.3701  -23.6163  -46.5304 H         1 UNK         0.0600 
    148 H148        1.6584  -21.8885  -46.6728 H         1 UNK         0.0600 
    149 H149        0.7694  -20.6113  -44.6629 H         1 UNK         0.3000 
    150 H150       -2.0012  -19.0587  -42.9549 H         1 UNK         0.0600 
    151 H151       -0.6022  -20.1237  -41.2153 H         1 UNK         0.0600 
    152 H152       -0.0888  -18.4605  -41.4641 H         1 UNK         0.0600 
    153 H153        0.8585  -19.7878  -42.1323 H         1 UNK         0.0600 
    154 H154        0.4454  -17.9512  -43.8671 H         1 UNK         0.3000 
    155 H155       -0.5926  -17.1518  -47.1946 H         1 UNK         0.0600 
    156 H156        0.0787  -14.9271  -46.4927 H         1 UNK         0.0600 
    157 H157        0.1291  -15.3917  -44.7925 H         1 UNK         0.0600 
    158 H158       -1.4044  -15.3332  -45.6444 H         1 UNK         0.0600 
    159 H159        1.8573  -16.7979  -45.7337 H         1 UNK         0.3000 
    160 H160        3.4001  -19.8583  -46.7911 H         1 UNK         0.0600 
    161 H161        3.8731  -16.9025  -47.4693 H         1 UNK         0.0600 
    162 H162        3.6500  -18.1941  -48.6432 H         1 UNK         0.0600 
    163 H163        5.0585  -18.2023  -47.5939 H         1 UNK         0.0600 
    164 H164        4.3082  -17.6896  -45.1589 H         1 UNK         0.3000 
    165 H165        3.1147  -18.8686  -42.0355 H         1 UNK         0.0600 
    166 H166        5.9747  -18.9202  -43.1398 H         1 UNK         0.0600 
    167 H167        5.5179  -18.8654  -41.4366 H         1 UNK         0.0600 
    168 H168        5.1430  -20.2837  -42.4015 H         1 UNK         0.0600 
    169 H169        4.8664  -16.7408  -42.6420 H         1 UNK         0.3000 
    170 H170        4.0175  -14.5826  -42.2600 H         1 UNK         0.0600 
    171 H171        4.7783  -15.0036  -44.6042 H         1 UNK         0.0600 
    172 H172        3.1667  -14.6417  -45.2117 H         1 UNK         0.0600 
    173 H173        4.1360  -13.3764  -44.4608 H         1 UNK         0.0600 
    174 H174        1.8332  -13.3372  -43.5808 H         1 UNK         0.3000 
    175 H175       -0.4600  -13.1346  -42.2988 H         1 UNK         0.0600 
    176 H176       -1.1034  -11.7791  -40.2961 H         1 UNK         0.0600 
    177 H177       -0.7544  -13.4479  -39.8732 H         1 UNK         0.0600 
    178 H178        0.4228  -12.1934  -39.5165 H         1 UNK         0.0600 
    179 H179        0.3929  -11.2873  -43.1481 H         1 UNK         0.3000 
    180 H180        2.3691   -8.6662  -42.1559 H         1 UNK         0.0600 
    181 H181        3.8979   -9.1256  -44.0751 H         1 UNK         0.0600 
    182 H182        4.3224  -10.1132  -42.6862 H         1 UNK         0.0600 
    183 H183        3.4565  -10.8329  -44.0371 H         1 UNK         0.0600 
    184 H184        1.3204   -9.8194  -44.6582 H         1 UNK         0.3000 
    185 H185       -1.7487   -8.0970  -44.5112 H         1 UNK         0.0600 
    186 H186       -1.0182   -7.0747  -46.6534 H         1 UNK         0.0600 
    187 H187       -0.2640   -6.2517  -45.2977 H         1 UNK         0.0600 
    188 H188        0.6718   -7.3907  -46.2582 H         1 UNK         0.0600 
    189 H189       -0.3701   -9.6045  -46.5516 H         1 UNK         0.3000 
    190 H190       -3.1387  -20.0180  -46.0740 H         1 UNK         0.3000 
    191 H191       -5.9535  -20.2764  -46.4806 H         1 UNK         0.0600 
    192 H192       -6.0888  -19.6221  -44.0808 H         1 UNK         0.0600 
    193 H193       -4.9621  -18.5963  -44.9568 H         1 UNK         0.0600 
    194 H194       -4.3566  -19.8676  -43.8985 H         1 UNK         0.0600 
    195 H195       -3.6060  -22.3165  -44.6889 H         1 UNK         0.3000 
    196 H196       -5.6238  -24.0780  -43.6304 H         1 UNK         0.0600 
    197 H197       -3.6455  -25.3134  -42.7406 H         1 UNK         0.0600 
    198 H198       -3.5456  -23.5916  -42.4045 H         1 UNK         0.0600 
    199 H199       -2.5717  -24.2942  -43.6932 H         1 UNK         0.0600 
    200 H200       -3.0920  -24.5208  -46.1807 H         1 UNK         0.3000 
    201 H201       -4.0730  -27.2850  -46.6547 H         1 UNK         0.0600 
    202 H202       -1.6737  -26.8257  -45.9870 H         1 UNK         0.0600 
    203 H203       -1.4583  -25.9416  -47.4965 H         1 UNK         0.0600 
    204 H204       -1.8332  -27.6595  -47.5201 H         1 UNK         0.0600 
    205 H205       -4.1541  -24.1782  -48.1551 H         1 UNK         0.3000 
    206 H206       -4.7258  -23.3760  -50.1484 H         1 UNK         0.0600 
    207 H207       -6.8777  -24.4243  -49.5214 H         1 UNK         0.0600 
    208 H208       -6.6724  -24.4474  -51.2603 H         1 UNK         0.0600 
    209 H209       -6.4247  -25.9234  -50.3220 H         1 UNK         0.0600 
    210 H210       -5.3702  -25.9564  -52.1313 H         1 UNK         0.3000 
    211 H211       -3.5523  -25.3282  -54.0949 H         1 UNK         0.0600 
    212 H212       -4.9917  -27.9795  -53.6034 H         1 UNK         0.0600 
    213 H213       -4.2764  -27.4796  -55.1315 H         1 UNK         0.0600 
    214 H214       -5.6353  -26.5850  -54.4725 H         1 UNK         0.0600 
    215 H215       -2.9528  -27.4662  -51.3668 H         1 UNK         0.3000 
    216 H216       -0.6017  -28.7631  -52.4726 H         1 UNK         0.0600 
    217 H217       -0.3373  -29.5741  -50.1141 H         1 UNK         0.0600 
    218 H218       -1.9537  -29.8692  -50.7372 H         1 UNK         0.0600 
    219 H219       -1.6721  -28.5408  -49.6165 H         1 UNK         0.0600 
    220 H220       -1.1972  -25.6587  -50.9448 H         1 UNK         0.3000 
    221 H221        1.6851  -25.2184  -50.3433 H         1 UNK         0.0600 
    222 H222       -0.8043  -23.5647  -49.7013 H         1 UNK         0.0600 
    223 H223        0.1378  -24.5309  -48.5714 H         1 UNK         0.0600 
    224 H224        0.8445  -23.1017  -49.3087 H         1 UNK         0.0600 
    225 H225       -1.0794  -23.8106  -52.2360 H         1 UNK         0.3000 
    226 H226        0.6529  -23.2344  -54.4755 H         1 UNK         0.0600 
    227 H227        1.0848  -21.1869  -53.0301 H         1 UNK         0.0600 
    228 H228        0.2332  -20.7804  -54.5108 H         1 UNK         0.0600 
    229 H229       -0.6496  -20.8742  -52.9939 H         1 UNK         0.0600 
    230 H230       -0.5634  -22.9719  -56.3617 H         1 UNK         0.3000 
    231 H231       -3.2219  -24.0261  -56.3391 H         1 UNK         0.0600 
    232 H232       -3.0425  -23.7061  -58.8069 H         1 UNK         0.0600 
    233 H233       -1.5935  -24.4576  -58.1616 H         1 UNK         0.0600 
    234 H234       -1.5838  -22.7463  -58.5920 H         1 UNK         0.0600 
    235 H235       -2.1251  -20.8012  -55.9423 H         1 UNK         0.3000 
    236 H236       -4.1416  -19.3132  -57.2599 H         1 UNK         0.0600 
    237 H237       -2.3608  -18.5849  -54.8720 H         1 UNK         0.0600 
    238 H238       -1.9953  -18.3185  -56.5754 H         1 UNK         0.0600 
    239 H239       -3.3103  -17.4402  -55.8133 H         1 UNK         0.0600 
    240 H240       -3.8866  -20.2524  -53.7699 H         1 UNK         0.3000 
    241 H241       -6.5833  -20.6879  -53.3905 H         1 UNK         0.0600 
    242 H242       -5.6460  -21.4242  -49.8989 H         1 UNK         0.3800 
    243 H243       -7.0293  -20.7848  -50.7586 H         1 UNK         0.3800 
    244 H244       -7.4817  -18.8573  -52.2368 H         1 UNK         0.0800 
    245 H245       -6.7063  -18.0722  -53.5600 H         1 UNK         0.0800 
    246 H246       -4.0894  -17.3995  -53.3122 H         1 UNK         0.0800 
    247 H247       -4.8211  -15.8558  -52.9397 H         1 UNK         0.0800 
@<TRIPOS>BOND
     1    1    2 1    
     2    1  127 1    
     3    1  128 1    
     4    1  129 1    
     5    2    3 2    
     6    2    4 am   BACKBONE|DICT|INTERRES
     7    4    5 1    
     8    4  130 1    
     9    5    6 1    
    10    5   65 1    
    11    5  131 1    
    12    6    7 1    
    13    6  132 1    
    14    6  133 1    
    15    7    8 1    
    16    8    9 1    
    17    8  134 1    
    18    8  135 1    
    19    9   10 ar   
    20    9   14 ar   
    21   10   11 ar   
    22   10  136 1    
    23   11   12 ar   
    24   11  126 1    
    25   12   13 ar   
    26   12  137 1    
    27   13   14 ar   
    28   13   15 1    
    29   14  138 1    
    30   15   16 1    
    31   15  139 1    
    32   15  140 1    
    33   16   17 1    
    34   17   18 1    
    35   17  141 1    
    36   17  142 1    
    37   18   19 1    
    38   18   67 1    
    39   18  143 1    
    40   19   20 am   BACKBONE|DICT|INTERRES
    41   19  144 1    
    42   20   21 2    
    43   20   22 1    
    44   22   23 1    
    45   22   24 1    
    46   22  145 1    
    47   23  146 1    
    48   23  147 1    
    49   23  148 1    
    50   24   25 am   BACKBONE|DICT|INTERRES
    51   24  149 1    
    52   25   26 2    
    53   25   27 1    
    54   27   28 1    
    55   27   29 1    
    56   27  150 1    
    57   28  151 1    
    58   28  152 1    
    59   28  153 1    
    60   29   30 am   BACKBONE|DICT|INTERRES
    61   29  154 1    
    62   30   31 2    
    63   30   32 1    
    64   32   33 1    
    65   32   34 1    
    66   32  155 1    
    67   33  156 1    
    68   33  157 1    
    69   33  158 1    
    70   34   35 am   BACKBONE|DICT|INTERRES
    71   34  159 1    
    72   35   36 2    
    73   35   37 1    
    74   37   38 1    
    75   37   39 1    
    76   37  160 1    
    77   38  161 1    
    78   38  162 1    
    79   38  163 1    
    80   39   40 am   BACKBONE|DICT|INTERRES
    81   39  164 1    
    82   40   41 2    
    83   40   42 1    
    84   42   43 1    
    85   42   44 1    
    86   42  165 1    
    87   43  166 1    
    88   43  167 1    
    89   43  168 1    
    90   44   45 am   BACKBONE|DICT|INTERRES
    91   44  169 1    
    92   45   46 2    
    93   45   47 1    
    94   47   48 1    
    95   47   49 1    
    96   47  170 1    
    97   48  171 1    
    98   48  172 1    
    99   48  173 1    
   100   49   50 am   BACKBONE|DICT|INTERRES
   101   49  174 1    
   102   50   51 2    
   103   50   52 1    
   104   52   53 1    
   105   52   54 1    
   106   52  175 1    
   107   53  176 1    
   108   53  177 1    
   109   53  178 1    
   110   54   55 am   BACKBONE|DICT|INTERRES
   111   54  179 1    
   112   55   56 2    
   113   55   57 1    
   114   57   58 1    
   115   57   59 1    
   116   57  180 1    
   117   58  181 1    
   118   58  182 1    
   119   58  183 1    
   120   59   60 am   BACKBONE|DICT|INTERRES
   121   59  184 1    
   122   60   61 2    
   123   60   62 1    
   124   62   63 1    
   125   62   64 1    
   126   62  185 1    
   127   63  186 1    
   128   63  187 1    
   129   63  188 1    
   130   64   65 am   BACKBONE|DICT|INTERRES
   131   64  189 1    
   132   65   66 2    
   133   67   68 2    
   134   67   69 am   BACKBONE|DICT|INTERRES
   135   69   70 1    
   136   69  190 1    
   137   70   71 1    
   138   70   72 1    
   139   70  191 1    
   140   71  192 1    
   141   71  193 1    
   142   71  194 1    
   143   72   73 2    
   144   72   74 am   BACKBONE|DICT|INTERRES
   145   74   75 1    
   146   74  195 1    
   147   75   76 1    
   148   75   77 1    
   149   75  196 1    
   150   76  197 1    
   151   76  198 1    
   152   76  199 1    
   153   77   78 2    
   154   77   79 am   BACKBONE|DICT|INTERRES
   155   79   80 1    
   156   79  200 1    
   157   80   81 1    
   158   80   82 1    
   159   80  201 1    
   160   81  202 1    
   161   81  203 1    
   162   81  204 1    
   163   82   83 2    
   164   82   84 am   BACKBONE|DICT|INTERRES
   165   84   85 1    
   166   84  205 1    
   167   85   86 1    
   168   85   87 1    
   169   85  206 1    
   170   86  207 1    
   171   86  208 1    
   172   86  209 1    
   173   87   88 2    
   174   87   89 am   BACKBONE|DICT|INTERRES
   175   89   90 1    
   176   89  210 1    
   177   90   91 1    
   178   90   92 1    
   179   90  211 1    
   180   91  212 1    
   181   91  213 1    
   182   91  214 1    
   183   92   93 2    
   184   92   94 am   BACKBONE|DICT|INTERRES
   185   94   95 1    
   186   94  215 1    
   187   95   96 1    
   188   95   97 1    
   189   95  216 1    
   190   96  217 1    
   191   96  218 1    
   192   96  219 1    
   193   97   98 2    
   194   97   99 am   BACKBONE|DICT|INTERRES
   195   99  100 1    
   196   99  220 1    
   197  100  101 1    
   198  100  102 1    
   199  100  221 1    
   200  101  222 1    
   201  101  223 1    
   202  101  224 1    
   203  102  103 2    
   204  102  104 am   BACKBONE|DICT|INTERRES
   205  104  105 1    
   206  104  225 1    
   207  105  106 1    
   208  105  107 1    
   209  105  226 1    
   210  106  227 1    
   211  106  228 1    
   212  106  229 1    
   213  107  108 2    
   214  107  109 am   BACKBONE|DICT|INTERRES
   215  109  110 1    
   216  109  230 1    
   217  110  111 1    
   218  110  112 1    
   219  110  231 1    
   220  111  232 1    
   221  111  233 1    
   222  111  234 1    
   223  112  113 2    
   224  112  114 am   BACKBONE|DICT|INTERRES
   225  114  115 1    
   226  114  235 1    
   227  115  116 1    
   228  115  117 1    
   229  115  236 1    
   230  116  237 1    
   231  116  238 1    
   232  116  239 1    
   233  117  118 2    
   234  117  119 am   BACKBONE|DICT|INTERRES
   235  119  120 1    
   236  119  240 1    
   237  120  121 1    
   238  120  124 1    
   239  120  241 1    
   240  121  122 am   BACKBONE|DICT|INTERRES
   241  121  123 2    
   242  122  242 1    
   243  122  243 1    
   244  124  125 1    
   245  124  244 1    
   246  124  245 1    
   247  125  126 1    
   248  126  246 1    
   249  126  247 1    
@<TRIPOS>SUBSTRUCTURE
     1 UNK         1 GROUP             0       ****    0 ROOT    
