@<TRIPOS>MOLECULE
3R540
247   249    1
SMALL
USER_CHARGES


@<TRIPOS>ATOM
      1 CA          3.0233  -21.3009  -43.7986 C.3       0 UNK        -0.1800 
      2 C           2.7621  -19.8389  -44.1317 C.2       0 UNK         0.5000 
      3 O           1.6111  -19.4055  -44.1082 O.2       0 UNK        -0.5000 
      4 N           3.8207  -19.0890  -44.4687 N.am      1 UNK        -0.5000 
      5 CA          3.7605  -17.6635  -44.8041 C.3       1 UNK         0.1400 
      6 C6          5.0866  -17.1649  -45.4306 C.3       23 UNK        -0.0398 
      7 S7          4.8915  -15.5727  -46.3126 S.3       23 UNK        -0.2404 
      8 C8          5.7305  -15.8863  -47.8978 C.3       23 UNK        -0.0205 
      9 C9          4.9190  -16.7924  -48.8110 C.ar      23 UNK        -0.0193 
     10 C10         3.8516  -16.2736  -49.5505 C.ar      23 UNK        -0.1150 
     11 C11         3.1094  -17.0987  -50.4013 C.ar      23 UNK        -0.0193 
     12 C12         3.4408  -18.4535  -50.5032 C.ar      23 UNK        -0.1150 
     13 C13         4.4959  -18.9872  -49.7568 C.ar      23 UNK        -0.0193 
     14 C14         5.2427  -18.1468  -48.9274 C.ar      23 UNK        -0.1150 
     15 C15         4.8075  -20.4773  -49.8223 C.3       23 UNK        -0.0205 
     16 S16         4.5768  -21.3087  -48.2125 S.3       23 UNK        -0.2404 
     17 C17         2.8412  -20.8962  -47.8266 C.3       23 UNK        -0.0398 
     18 CA          1.8631  -22.0914  -47.8798 C.3       11 UNK         0.1400 
     19 N           0.5954  -21.7331  -47.2437 N.am      11 UNK        -0.5000 
     20 C          -0.3304  -22.6040  -46.8227 C.2       10 UNK         0.5000 
     21 O          -0.1546  -23.8206  -46.8029 O.2       10 UNK        -0.5000 
     22 CA         -1.6870  -22.0326  -46.3558 C.3       10 UNK         0.1400 
     23 CB         -1.7627  -21.9904  -44.8227 C.3       10 UNK        -0.1800 
     24 N          -1.9892  -20.6989  -46.8823 N.am      10 UNK        -0.5000 
     25 C          -2.1602  -20.4126  -48.1802 C.2       9 UNK         0.5000 
     26 O          -2.1672  -21.2667  -49.0651 O.2       9 UNK        -0.5000 
     27 CA         -2.2855  -18.9286  -48.5776 C.3       9 UNK         0.1400 
     28 CB         -3.7590  -18.5366  -48.7395 C.3       9 UNK        -0.1800 
     29 N          -1.6471  -17.9648  -47.6778 N.am      9 UNK        -0.5000 
     30 C          -0.3967  -17.9994  -47.1958 C.2       8 UNK         0.5000 
     31 O           0.4005  -18.9056  -47.4311 O.2       8 UNK        -0.5000 
     32 CA          0.0420  -16.8365  -46.2873 C.3       8 UNK         0.1400 
     33 CB          1.0184  -15.9195  -47.0418 C.3       8 UNK        -0.1800 
     34 N          -1.0630  -16.0279  -45.7681 N.am      8 UNK        -0.5000 
     35 C          -1.9908  -16.4345  -44.8890 C.2       7 UNK         0.5000 
     36 O          -2.0321  -17.5694  -44.4146 O.2       7 UNK        -0.5000 
     37 CA         -3.0702  -15.4088  -44.5013 C.3       7 UNK         0.1400 
     38 CB         -2.5591  -14.4423  -43.4218 C.3       7 UNK        -0.1800 
     39 N          -3.4999  -14.6342  -45.6638 N.am      7 UNK        -0.5000 
     40 C          -4.5744  -14.9191  -46.4110 C.2       6 UNK         0.5000 
     41 O          -5.3466  -15.8464  -46.1714 O.2       6 UNK        -0.5000 
     42 CA         -4.8400  -14.0191  -47.6347 C.3       6 UNK         0.1400 
     43 CB         -5.8452  -12.9134  -47.2786 C.3       6 UNK        -0.1800 
     44 N          -3.6327  -13.4023  -48.1874 N.am      6 UNK        -0.5000 
     45 C          -2.6365  -14.0791  -48.7738 C.2       5 UNK         0.5000 
     46 O          -2.6276  -15.3007  -48.9059 O.2       5 UNK        -0.5000 
     47 CA         -1.4228  -13.2547  -49.2416 C.3       5 UNK         0.1400 
     48 CB         -1.6666  -12.6958  -50.6515 C.3       5 UNK        -0.1800 
     49 N          -1.0554  -12.1541  -48.3413 N.am      5 UNK        -0.5000 
     50 C          -0.7682  -12.2823  -47.0390 C.2       4 UNK         0.5000 
     51 O          -0.8782  -13.3368  -46.4120 O.2       4 UNK        -0.5000 
     52 CA         -0.3091  -11.0219  -46.2931 C.3       4 UNK         0.1400 
     53 CB         -1.4044  -10.5407  -45.3294 C.3       4 UNK        -0.1800 
     54 N           0.9039  -11.3100  -45.5328 N.am      4 UNK        -0.5000 
     55 C           2.1243  -11.4483  -46.0614 C.2       3 UNK         0.5000 
     56 O           2.3731  -11.2639  -47.2535 O.2       3 UNK        -0.5000 
     57 CA          3.2629  -11.8601  -45.1079 C.3       3 UNK         0.1400 
     58 CB          3.6529  -10.7051  -44.1652 C.3       3 UNK        -0.1800 
     59 N           3.0226  -13.1047  -44.3644 N.am      3 UNK        -0.5000 
     60 C           2.1080  -13.3692  -43.4175 C.2       2 UNK         0.5000 
     61 O           1.2669  -12.5572  -43.0292 O.2       2 UNK        -0.5000 
     62 CA          2.1486  -14.7869  -42.8142 C.3       2 UNK         0.1400 
     63 CB          0.8036  -15.2437  -42.2249 C.3       2 UNK        -0.1800 
     64 N           2.5930  -15.7567  -43.8131 N.am      2 UNK        -0.5000 
     65 C           3.3730  -16.8147  -43.5724 C.2       1 UNK         0.5000 
     66 O           3.8113  -17.1091  -42.4574 O.2       1 UNK        -0.5000 
     67 C           1.6392  -22.5576  -49.3344 C.2       11 UNK         0.5000 
     68 O           2.2653  -23.5239  -49.7716 O.2       11 UNK        -0.5000 
     69 N           0.7644  -21.8470  -50.0599 N.am      12 UNK        -0.5000 
     70 CA          0.4773  -22.0841  -51.4727 C.3       12 UNK         0.1400 
     71 CB         -0.1019  -20.8016  -52.0891 C.3       12 UNK        -0.1800 
     72 C          -0.4659  -23.2777  -51.6992 C.2       12 UNK         0.5000 
     73 O          -0.2611  -24.0387  -52.6460 O.2       12 UNK        -0.5000 
     74 N          -1.4869  -23.4129  -50.8441 N.am      13 UNK        -0.5000 
     75 CA         -2.4875  -24.4739  -50.9098 C.3       13 UNK         0.1400 
     76 CB         -3.6385  -24.1294  -49.9565 C.3       13 UNK        -0.1800 
     77 C          -1.9074  -25.8461  -50.5299 C.2       13 UNK         0.5000 
     78 O          -1.2532  -25.9695  -49.4925 O.2       13 UNK        -0.5000 
     79 N          -2.2396  -26.8728  -51.3234 N.am      14 UNK        -0.5000 
     80 CA         -1.9170  -28.2770  -51.0431 C.3       14 UNK         0.1400 
     81 CB         -2.1971  -29.1154  -52.2996 C.3       14 UNK        -0.1800 
     82 C          -2.6870  -28.8440  -49.8313 C.2       14 UNK         0.5000 
     83 O          -2.2334  -29.8096  -49.2171 O.2       14 UNK        -0.5000 
     84 N          -3.8258  -28.2185  -49.5002 N.am      15 UNK        -0.5000 
     85 CA         -4.6609  -28.5213  -48.3373 C.3       15 UNK         0.1400 
     86 CB         -6.0324  -27.8557  -48.5400 C.3       15 UNK        -0.1800 
     87 C          -4.0480  -28.0699  -46.9948 C.2       15 UNK         0.5000 
     88 O          -4.5369  -28.4969  -45.9485 O.2       15 UNK        -0.5000 
     89 N          -3.0192  -27.2065  -47.0428 N.am      16 UNK        -0.5000 
     90 CA         -2.3329  -26.5843  -45.9031 C.3       16 UNK         0.1400 
     91 CB         -1.5748  -27.6381  -45.0691 C.3       16 UNK        -0.1800 
     92 C          -3.2623  -25.6884  -45.0528 C.2       16 UNK         0.5000 
     93 O          -3.1129  -25.6118  -43.8321 O.2       16 UNK        -0.5000 
     94 N          -4.2068  -25.0237  -45.7250 N.am      17 UNK        -0.5000 
     95 CA         -5.1755  -24.0851  -45.1716 C.3       17 UNK         0.1400 
     96 CB         -6.5082  -24.8137  -44.9365 C.3       17 UNK        -0.1800 
     97 C          -5.3419  -22.9421  -46.1802 C.2       17 UNK         0.5000 
     98 O          -5.0062  -23.1177  -47.3531 O.2       17 UNK        -0.5000 
     99 N          -5.8491  -21.7906  -45.7274 N.am      18 UNK        -0.5000 
    100 CA        -5.9523  -20.5465  -46.4994 C.3       18 UNK         0.1400 
    101 CB        -6.1037  -19.3716  -45.5178 C.3       18 UNK        -0.1800 
    102 C         -7.0413  -20.5566  -47.6012 C.2       18 UNK         0.5000 
    103 O         -7.8805  -19.6564  -47.6555 O.2       18 UNK        -0.5000 
    104 N         -7.0133  -21.5847  -48.4547 N.am      19 UNK        -0.5000 
    105 CA        -7.9296  -21.7926  -49.5750 C.3       19 UNK         0.1400 
    106 CB        -8.1355  -23.3051  -49.7562 C.3       19 UNK        -0.1800 
    107 C         -7.4176  -21.1660  -50.8860 C.2       19 UNK         0.5000 
    108 O         -8.2274  -20.8540  -51.7604 O.2       19 UNK        -0.5000 
    109 N         -6.0925  -21.0163  -51.0154 N.am      20 UNK        -0.5000 
    110 CA        -5.4272  -20.4535  -52.1916 C.3       20 UNK         0.1400 
    111 CB        -3.9644  -20.9292  -52.2028 C.3       20 UNK        -0.1800 
    112 C         -5.4926  -18.9144  -52.2280 C.2       20 UNK         0.5000 
    113 O         -5.7879  -18.2760  -51.2166 O.2       20 UNK        -0.5000 
    114 N         -5.1709  -18.3453  -53.3961 N.am      21 UNK        -0.5000 
    115 CA        -5.0224  -16.9004  -53.5989 C.3       21 UNK         0.1400 
    116 CB        -5.4330  -16.5638  -55.0416 C.3       21 UNK        -0.1800 
    117 C         -3.5872  -16.4034  -53.3210 C.2       21 UNK         0.5000 
    118 O         -3.3813  -15.1943  -53.2145 O.2       21 UNK        -0.5000 
    119 N         -2.6227  -17.3325  -53.2332 N.am      22 UNK        -0.5000 
    120 CA        -1.1757  -17.0825  -53.0833 C.3       22 UNK         0.1400 
    121 C         -0.4894  -16.4780  -54.3497 C.2       22 UNK         0.5000 
    122 N         -1.1032  -16.5379  -55.5255 N.am      22 UNK        -0.7600 
    123 O          0.6254  -15.9694  -54.2819 O.2       22 UNK        -0.5000 
    124 C124       -0.8159  -16.3284  -51.7645 C.3       23 UNK        -0.0398 
    125 S125        0.3634  -17.2387  -50.7128 S.3       23 UNK        -0.2404 
    126 C126        1.9588  -16.5293  -51.2194 C.3       23 UNK        -0.0205 
    127 H127        4.0750  -21.5628  -43.9170 H         1 UNK         0.0600 
    128 H128        2.4376  -21.9439  -44.4562 H         1 UNK         0.0600 
    129 H129        2.7327  -21.5088  -42.7689 H         1 UNK         0.0600 
    130 H130        4.7439  -19.4968  -44.4386 H         1 UNK         0.3000 
    131 H131        2.9768  -17.5639  -45.5566 H         1 UNK         0.0600 
    132 H132        5.8665  -17.0593  -44.6741 H         1 UNK         0.0800 
    133 H133        5.4584  -17.9100  -46.1330 H         1 UNK         0.0800 
    134 H134        6.7196  -16.3075  -47.7111 H         1 UNK         0.0800 
    135 H135        5.8989  -14.9317  -48.3984 H         1 UNK         0.0800 
    136 H136        3.6006  -15.2259  -49.4608 H         1 UNK         0.1150 
    137 H137        2.8586  -19.0951  -51.1496 H         1 UNK         0.1150 
    138 H138        6.0639  -18.5573  -48.3571 H         1 UNK         0.1150 
    139 H139        4.1829  -20.9724  -50.5677 H         1 UNK         0.0800 
    140 H140        5.8399  -20.6123  -50.1469 H         1 UNK         0.0800 
    141 H141        2.4846  -20.0893  -48.4656 H         1 UNK         0.0800 
    142 H142        2.8443  -20.4744  -46.8248 H         1 UNK         0.0800 
    143 H143        2.3009  -22.9207  -47.3198 H         1 UNK         0.0600 
    144 H144        0.3857  -20.7372  -47.2114 H         1 UNK         0.3000 
    145 H145       -2.4534  -22.7166  -46.7208 H         1 UNK         0.0600 
    146 H146       -2.7487  -21.6710  -44.4848 H         1 UNK         0.0600 
    147 H147       -1.5764  -22.9759  -44.3938 H         1 UNK         0.0600 
    148 H148       -1.0246  -21.3041  -44.4048 H         1 UNK         0.0600 
    149 H149       -1.9629  -19.9329  -46.2238 H         1 UNK         0.3000 
    150 H150       -1.8050  -18.8320  -49.5517 H         1 UNK         0.0600 
    151 H151       -4.3301  -19.3213  -49.2358 H         1 UNK         0.0600 
    152 H152       -3.8565  -17.6365  -49.3461 H         1 UNK         0.0600 
    153 H153       -4.2331  -18.3363  -47.7788 H         1 UNK         0.0600 
    154 H154       -2.1828  -17.1285  -47.4880 H         1 UNK         0.3000 
    155 H155        0.5599  -17.2729  -45.4323 H         1 UNK         0.0600 
    156 H156        0.5474  -15.4800  -47.9207 H         1 UNK         0.0600 
    157 H157        1.3760  -15.1032  -46.4151 H         1 UNK         0.0600 
    158 H158        1.8891  -16.4755  -47.3910 H         1 UNK         0.0600 
    159 H159       -1.0830  -15.0580  -46.0793 H         1 UNK         0.3000 
    160 H160       -3.9168  -15.9567  -44.0819 H         1 UNK         0.0600 
    161 H161       -3.3340  -13.7318  -43.1337 H         1 UNK         0.0600 
    162 H162       -2.2675  -14.9833  -42.5212 H         1 UNK         0.0600 
    163 H163       -1.6951  -13.8702  -43.7630 H         1 UNK         0.0600 
    164 H164       -2.8824  -13.8896  -45.9619 H         1 UNK         0.3000 
    165 H165       -5.2818  -14.6471  -48.4115 H         1 UNK         0.0600 
    166 H166       -6.1068  -12.3200  -48.1549 H         1 UNK         0.0600 
    167 H167       -6.7708  -13.3380  -46.8876 H         1 UNK         0.0600 
    168 H168       -5.4479  -12.2377  -46.5201 H         1 UNK         0.0600 
    169 H169       -3.5529  -12.3994  -48.1071 H         1 UNK         0.3000 
    170 H170       -0.5708  -13.9347  -49.2932 H         1 UNK         0.0600 
    171 H171       -1.9728  -13.4839  -51.3407 H         1 UNK         0.0600 
    172 H172       -2.4524  -11.9395  -50.6542 H         1 UNK         0.0600 
    173 H173       -0.7622  -12.2435  -51.0586 H         1 UNK         0.0600 
    174 H174       -0.9476  -11.2473  -48.7725 H         1 UNK         0.3000 
    175 H175       -0.0997  -10.2263  -47.0111 H         1 UNK         0.0600 
    176 H176       -1.6400  -11.2953  -44.5773 H         1 UNK         0.0600 
    177 H177       -1.0981   -9.6340  -44.8075 H         1 UNK         0.0600 
    178 H178       -2.3258  -10.3120  -45.8663 H         1 UNK         0.0600 
    179 H179        0.7882  -11.5678  -44.5562 H         1 UNK         0.3000 
    180 H180        4.1309  -12.0651  -45.7369 H         1 UNK         0.0600 
    181 H181        2.8401  -10.4305  -43.4925 H         1 UNK         0.0600 
    182 H182        3.9182   -9.8131  -44.7339 H         1 UNK         0.0600 
    183 H183        4.5167  -10.9700  -43.5555 H         1 UNK         0.0600 
    184 H184        3.6601  -13.8528  -44.6005 H         1 UNK         0.3000 
    185 H185        2.8764  -14.7376  -42.0017 H         1 UNK         0.0600 
    186 H186        0.0621  -15.3737  -43.0100 H         1 UNK         0.0600 
    187 H187        0.9062  -16.1973  -41.7068 H         1 UNK         0.0600 
    188 H188        0.4120  -14.5243  -41.5049 H         1 UNK         0.0600 
    189 H189        2.2915  -15.5742  -44.7594 H         1 UNK         0.3000 
    190 H190        0.2498  -21.1034  -49.6112 H         1 UNK         0.3000 
    191 H191        1.4157  -22.3050  -51.9861 H         1 UNK         0.0600 
    192 H192       -0.9931  -20.4645  -51.5599 H         1 UNK         0.0600 
    193 H193       -0.3757  -20.9551  -53.1337 H         1 UNK         0.0600 
    194 H194        0.6288  -19.9936  -52.0615 H         1 UNK         0.0600 
    195 H195       -1.6036  -22.7259  -50.1036 H         1 UNK         0.3000 
    196 H196       -2.8789  -24.5121  -51.9285 H         1 UNK         0.0600 
    197 H197       -4.4395  -24.8670  -50.0130 H         1 UNK         0.0600 
    198 H198       -4.0744  -23.1570  -50.1802 H         1 UNK         0.0600 
    199 H199       -3.2851  -24.1020  -48.9257 H         1 UNK         0.0600 
    200 H200       -2.7778  -26.6952  -52.1597 H         1 UNK         0.3000 
    201 H201       -0.8508  -28.3441  -50.8161 H         1 UNK         0.0600 
    202 H202       -1.6059  -28.7668  -53.1467 H         1 UNK         0.0600 
    203 H203       -3.2494  -29.0762  -52.5842 H         1 UNK         0.0600 
    204 H204       -1.9404  -30.1629  -52.1355 H         1 UNK         0.0600 
    205 H205       -4.1279  -27.4515  -50.0814 H         1 UNK         0.3000 
    206 H206       -4.8045  -29.6026  -48.2868 H         1 UNK         0.0600 
    207 H207       -6.5113  -28.2071  -49.4541 H         1 UNK         0.0600 
    208 H208       -6.7062  -28.0867  -47.7138 H         1 UNK         0.0600 
    209 H209       -5.9490  -26.7695  -48.5993 H         1 UNK         0.0600 
    210 H210       -2.6714  -26.9316  -47.9527 H         1 UNK         0.3000 
    211 H211       -1.5872  -25.9192  -46.3367 H         1 UNK         0.0600 
    212 H212       -2.2555  -28.3066  -44.5414 H         1 UNK         0.0600 
    213 H213       -0.9414  -27.1605  -44.3209 H         1 UNK         0.0600 
    214 H214       -0.9270  -28.2471  -45.6997 H         1 UNK         0.0600 
    215 H215       -4.2235  -25.0803  -46.7348 H         1 UNK         0.3000 
    216 H216       -4.8058  -23.6685  -44.2324 H         1 UNK         0.0600 
    217 H217       -7.2571  -24.1407  -44.5178 H         1 UNK         0.0600 
    218 H218       -6.3851  -25.6399  -44.2359 H         1 UNK         0.0600 
    219 H219       -6.9120  -25.2214  -45.8644 H         1 UNK         0.0600 
    220 H220       -6.1484  -21.7367  -44.7645 H         1 UNK         0.3000 
    221 H221       -5.0021  -20.4140  -47.0162 H         1 UNK         0.0600 
    222 H222       -7.0154  -19.4570  -44.9257 H         1 UNK         0.0600 
    223 H223       -5.2579  -19.3182  -44.8317 H         1 UNK         0.0600 
    224 H224       -6.1447  -18.4198  -46.0480 H         1 UNK         0.0600 
    225 H225       -6.2984  -22.2932  -48.2996 H         1 UNK         0.3000 
    226 H226       -8.8973  -21.3420  -49.3448 H         1 UNK         0.0600 
    227 H227       -8.5526  -23.7561  -48.8555 H         1 UNK         0.0600 
    228 H228       -8.8278  -23.5113  -50.5734 H         1 UNK         0.0600 
    229 H229       -7.1978  -23.8150  -49.9817 H         1 UNK         0.0600 
    230 H230       -5.5042  -21.2586  -50.2335 H         1 UNK         0.3000 
    231 H231       -5.9202  -20.8349  -53.0884 H         1 UNK         0.0600 
    232 H232       -3.4253  -20.5514  -53.0717 H         1 UNK         0.0600 
    233 H233       -3.9049  -22.0161  -52.2462 H         1 UNK         0.0600 
    234 H234       -3.4287  -20.5967  -51.3142 H         1 UNK         0.0600 
    235 H235       -4.9736  -18.9336  -54.1933 H         1 UNK         0.3000 
    236 H236       -5.6913  -16.3621  -52.9241 H         1 UNK         0.0600 
    237 H237       -6.4652  -16.8566  -55.2350 H         1 UNK         0.0600 
    238 H238       -5.3613  -15.4916  -55.2294 H         1 UNK         0.0600 
    239 H239       -4.7986  -17.0680  -55.7714 H         1 UNK         0.0600 
    240 H240       -2.8894  -18.2990  -53.3356 H         1 UNK         0.3000 
    241 H241       -0.7501  -18.0838  -53.0234 H         1 UNK         0.0600 
    242 H242       -2.0131  -16.9590  -55.6139 H         1 UNK         0.3800 
    243 H243       -0.6484  -16.1527  -56.3385 H         1 UNK         0.3800 
    244 H244       -0.4458  -15.3192  -51.9502 H         1 UNK         0.0800 
    245 H245       -1.7081  -16.1916  -51.1547 H         1 UNK         0.0800 
    246 H246        2.1355  -16.7472  -52.2727 H         1 UNK         0.0800 
    247 H247        1.9169  -15.4432  -51.1250 H         1 UNK         0.0800 
@<TRIPOS>BOND
     1    1    2 1    
     2    1  127 1    
     3    1  128 1    
     4    1  129 1    
     5    2    3 2    
     6    2    4 am   BACKBONE|DICT|INTERRES
     7    4    5 1    
     8    4  130 1    
     9    5    6 1    
    10    5   65 1    
    11    5  131 1    
    12    6    7 1    
    13    6  132 1    
    14    6  133 1    
    15    7    8 1    
    16    8    9 1    
    17    8  134 1    
    18    8  135 1    
    19    9   10 ar   
    20    9   14 ar   
    21   10   11 ar   
    22   10  136 1    
    23   11   12 ar   
    24   11  126 1    
    25   12   13 ar   
    26   12  137 1    
    27   13   14 ar   
    28   13   15 1    
    29   14  138 1    
    30   15   16 1    
    31   15  139 1    
    32   15  140 1    
    33   16   17 1    
    34   17   18 1    
    35   17  141 1    
    36   17  142 1    
    37   18   19 1    
    38   18   67 1    
    39   18  143 1    
    40   19   20 am   BACKBONE|DICT|INTERRES
    41   19  144 1    
    42   20   21 2    
    43   20   22 1    
    44   22   23 1    
    45   22   24 1    
    46   22  145 1    
    47   23  146 1    
    48   23  147 1    
    49   23  148 1    
    50   24   25 am   BACKBONE|DICT|INTERRES
    51   24  149 1    
    52   25   26 2    
    53   25   27 1    
    54   27   28 1    
    55   27   29 1    
    56   27  150 1    
    57   28  151 1    
    58   28  152 1    
    59   28  153 1    
    60   29   30 am   BACKBONE|DICT|INTERRES
    61   29  154 1    
    62   30   31 2    
    63   30   32 1    
    64   32   33 1    
    65   32   34 1    
    66   32  155 1    
    67   33  156 1    
    68   33  157 1    
    69   33  158 1    
    70   34   35 am   BACKBONE|DICT|INTERRES
    71   34  159 1    
    72   35   36 2    
    73   35   37 1    
    74   37   38 1    
    75   37   39 1    
    76   37  160 1    
    77   38  161 1    
    78   38  162 1    
    79   38  163 1    
    80   39   40 am   BACKBONE|DICT|INTERRES
    81   39  164 1    
    82   40   41 2    
    83   40   42 1    
    84   42   43 1    
    85   42   44 1    
    86   42  165 1    
    87   43  166 1    
    88   43  167 1    
    89   43  168 1    
    90   44   45 am   BACKBONE|DICT|INTERRES
    91   44  169 1    
    92   45   46 2    
    93   45   47 1    
    94   47   48 1    
    95   47   49 1    
    96   47  170 1    
    97   48  171 1    
    98   48  172 1    
    99   48  173 1    
   100   49   50 am   BACKBONE|DICT|INTERRES
   101   49  174 1    
   102   50   51 2    
   103   50   52 1    
   104   52   53 1    
   105   52   54 1    
   106   52  175 1    
   107   53  176 1    
   108   53  177 1    
   109   53  178 1    
   110   54   55 am   BACKBONE|DICT|INTERRES
   111   54  179 1    
   112   55   56 2    
   113   55   57 1    
   114   57   58 1    
   115   57   59 1    
   116   57  180 1    
   117   58  181 1    
   118   58  182 1    
   119   58  183 1    
   120   59   60 am   BACKBONE|DICT|INTERRES
   121   59  184 1    
   122   60   61 2    
   123   60   62 1    
   124   62   63 1    
   125   62   64 1    
   126   62  185 1    
   127   63  186 1    
   128   63  187 1    
   129   63  188 1    
   130   64   65 am   BACKBONE|DICT|INTERRES
   131   64  189 1    
   132   65   66 2    
   133   67   68 2    
   134   67   69 am   BACKBONE|DICT|INTERRES
   135   69   70 1    
   136   69  190 1    
   137   70   71 1    
   138   70   72 1    
   139   70  191 1    
   140   71  192 1    
   141   71  193 1    
   142   71  194 1    
   143   72   73 2    
   144   72   74 am   BACKBONE|DICT|INTERRES
   145   74   75 1    
   146   74  195 1    
   147   75   76 1    
   148   75   77 1    
   149   75  196 1    
   150   76  197 1    
   151   76  198 1    
   152   76  199 1    
   153   77   78 2    
   154   77   79 am   BACKBONE|DICT|INTERRES
   155   79   80 1    
   156   79  200 1    
   157   80   81 1    
   158   80   82 1    
   159   80  201 1    
   160   81  202 1    
   161   81  203 1    
   162   81  204 1    
   163   82   83 2    
   164   82   84 am   BACKBONE|DICT|INTERRES
   165   84   85 1    
   166   84  205 1    
   167   85   86 1    
   168   85   87 1    
   169   85  206 1    
   170   86  207 1    
   171   86  208 1    
   172   86  209 1    
   173   87   88 2    
   174   87   89 am   BACKBONE|DICT|INTERRES
   175   89   90 1    
   176   89  210 1    
   177   90   91 1    
   178   90   92 1    
   179   90  211 1    
   180   91  212 1    
   181   91  213 1    
   182   91  214 1    
   183   92   93 2    
   184   92   94 am   BACKBONE|DICT|INTERRES
   185   94   95 1    
   186   94  215 1    
   187   95   96 1    
   188   95   97 1    
   189   95  216 1    
   190   96  217 1    
   191   96  218 1    
   192   96  219 1    
   193   97   98 2    
   194   97   99 am   BACKBONE|DICT|INTERRES
   195   99  100 1    
   196   99  220 1    
   197  100  101 1    
   198  100  102 1    
   199  100  221 1    
   200  101  222 1    
   201  101  223 1    
   202  101  224 1    
   203  102  103 2    
   204  102  104 am   BACKBONE|DICT|INTERRES
   205  104  105 1    
   206  104  225 1    
   207  105  106 1    
   208  105  107 1    
   209  105  226 1    
   210  106  227 1    
   211  106  228 1    
   212  106  229 1    
   213  107  108 2    
   214  107  109 am   BACKBONE|DICT|INTERRES
   215  109  110 1    
   216  109  230 1    
   217  110  111 1    
   218  110  112 1    
   219  110  231 1    
   220  111  232 1    
   221  111  233 1    
   222  111  234 1    
   223  112  113 2    
   224  112  114 am   BACKBONE|DICT|INTERRES
   225  114  115 1    
   226  114  235 1    
   227  115  116 1    
   228  115  117 1    
   229  115  236 1    
   230  116  237 1    
   231  116  238 1    
   232  116  239 1    
   233  117  118 2    
   234  117  119 am   BACKBONE|DICT|INTERRES
   235  119  120 1    
   236  119  240 1    
   237  120  121 1    
   238  120  124 1    
   239  120  241 1    
   240  121  122 am   BACKBONE|DICT|INTERRES
   241  121  123 2    
   242  122  242 1    
   243  122  243 1    
   244  124  125 1    
   245  124  244 1    
   246  124  245 1    
   247  125  126 1    
   248  126  246 1    
   249  126  247 1    
@<TRIPOS>SUBSTRUCTURE
     1 UNK         1 GROUP             0       ****    0 ROOT    
