@<TRIPOS>MOLECULE
3R540
247   249    1
SMALL
USER_CHARGES


@<TRIPOS>ATOM
      1 CA          1.1579  -15.2291  -50.1194 C.3       0 UNK        -0.1800 
      2 C           0.6626  -14.5478  -48.8537 C.2       0 UNK         0.5000 
      3 O           0.8910  -15.0557  -47.7568 O.2       0 UNK        -0.5000 
      4 N           0.0000  -13.3905  -48.9942 N.am      1 UNK        -0.5000 
      5 CA         -0.6073  -12.6247  -47.8964 C.3       1 UNK         0.1400 
      6 C6         -1.3963  -11.3857  -48.3937 C.3       23 UNK        -0.0398 
      7 S7         -2.5929  -11.6130  -49.7599 S.3       23 UNK        -0.2404 
      8 C8         -3.4338  -13.2040  -49.4389 C.3       23 UNK        -0.0205 
      9 C9         -2.8649  -14.3758  -50.2367 C.ar      23 UNK        -0.0193 
     10 C10        -2.4870  -14.2261  -51.5768 C.ar      23 UNK        -0.1150 
     11 C11        -1.9839  -15.3078  -52.3046 C.ar      23 UNK        -0.0193 
     12 C12        -1.8600  -16.5534  -51.6835 C.ar      23 UNK        -0.1150 
     13 C13        -2.2569  -16.7262  -50.3554 C.ar      23 UNK        -0.0193 
     14 C14        -2.7603  -15.6358  -49.6406 C.ar      23 UNK        -0.1150 
     15 C15        -2.1401  -18.0881  -49.6926 C.3       23 UNK        -0.0205 
     16 S16        -3.6837  -19.0375  -49.8665 S.3       23 UNK        -0.2404 
     17 C17        -4.0659  -19.5205  -48.1450 C.3       23 UNK        -0.0398 
     18 CA         -3.9018  -21.0409  -47.9022 C.3       11 UNK         0.1400 
     19 N          -2.5358  -21.4955  -48.1844 N.am      11 UNK        -0.5000 
     20 C          -2.0515  -22.7379  -48.0451 C.2       10 UNK         0.5000 
     21 O          -2.7250  -23.7085  -47.6946 O.2       10 UNK        -0.5000 
     22 CA         -0.5332  -22.9034  -48.2548 C.3       10 UNK         0.1400 
     23 CB         -0.2449  -23.3264  -49.7020 C.3       10 UNK        -0.1800 
     24 N           0.2728  -21.7149  -47.9384 N.am      10 UNK        -0.5000 
     25 C           0.2615  -21.0257  -46.7875 C.2       9 UNK         0.5000 
     26 O          -0.5129  -21.2589  -45.8559 O.2       9 UNK        -0.5000 
     27 CA          1.2492  -19.8528  -46.6919 C.3       9 UNK         0.1400 
     28 CB          0.7123  -18.6410  -47.4680 C.3       9 UNK        -0.1800 
     29 N           1.4661  -19.4800  -45.2946 N.am      9 UNK        -0.5000 
     30 C           2.4268  -19.9946  -44.5145 C.2       8 UNK         0.5000 
     31 O           3.2962  -20.7616  -44.9309 O.2       8 UNK        -0.5000 
     32 CA          2.4292  -19.6077  -43.0214 C.3       8 UNK         0.1400 
     33 CB          3.7194  -18.8670  -42.6320 C.3       8 UNK        -0.1800 
     34 N           1.2815  -18.7795  -42.6513 N.am      8 UNK        -0.5000 
     35 C           0.1565  -19.2463  -42.0939 C.2       7 UNK         0.5000 
     36 O          -0.0262  -20.4287  -41.8037 O.2       7 UNK        -0.5000 
     37 CA         -0.9593  -18.2224  -41.8124 C.3       7 UNK         0.1400 
     38 CB         -0.8332  -17.6832  -40.3810 C.3       7 UNK        -0.1800 
     39 N          -0.9862  -17.1084  -42.7641 N.am      7 UNK        -0.5000 
     40 C          -1.2784  -17.2340  -44.0679 C.2       6 UNK         0.5000 
     41 O          -1.5273  -18.3180  -44.5949 O.2       6 UNK        -0.5000 
     42 CA         -1.2604  -15.9732  -44.9568 C.3       6 UNK         0.1400 
     43 CB         -2.5019  -15.9103  -45.8677 C.3       6 UNK        -0.1800 
     44 N          -1.0621  -14.7109  -44.2385 N.am      6 UNK        -0.5000 
     45 C          -1.8932  -14.0853  -43.3927 C.2       5 UNK         0.5000 
     46 O          -3.0241  -14.4829  -43.1097 O.2       5 UNK        -0.5000 
     47 CA         -1.3200  -12.8113  -42.7323 C.3       5 UNK         0.1400 
     48 CB         -2.1491  -12.3250  -41.5243 C.3       5 UNK        -0.1800 
     49 N           0.0992  -12.9670  -42.3762 N.am      5 UNK        -0.5000 
     50 C           0.6061  -13.8633  -41.5152 C.2       4 UNK         0.5000 
     51 O          -0.0849  -14.6432  -40.8610 O.2       4 UNK        -0.5000 
     52 CA          2.1441  -13.9263  -41.4218 C.3       4 UNK         0.1400 
     53 CB          2.6450  -15.0166  -40.4499 C.3       4 UNK        -0.1800 
     54 N           2.7727  -14.0878  -42.7372 N.am      4 UNK        -0.5000 
     55 C           2.5953  -15.0902  -43.6091 C.2       3 UNK         0.5000 
     56 O           1.8293  -16.0371  -43.4210 O.2       3 UNK        -0.5000 
     57 CA          3.3949  -14.9910  -44.9244 C.3       3 UNK         0.1400 
     58 CB          3.2666  -16.2572  -45.7862 C.3       3 UNK        -0.1800 
     59 N           2.9713  -13.8402  -45.7229 N.am      3 UNK        -0.5000 
     60 C           3.3214  -12.5664  -45.4912 C.2       2 UNK         0.5000 
     61 O           4.0435  -12.2277  -44.5518 O.2       2 UNK        -0.5000 
     62 CA          2.7858  -11.4825  -46.4481 C.3       2 UNK         0.1400 
     63 CB          3.9086  -10.9796  -47.3685 C.3       2 UNK        -0.1800 
     64 N           1.6613  -11.9159  -47.2773 N.am      2 UNK        -0.5000 
     65 C           0.4230  -12.1751  -46.8352 C.2       1 UNK         0.5000 
     66 O           0.0893  -12.0867  -45.6538 O.2       1 UNK        -0.5000 
     67 C          -4.3974  -21.4110  -46.4843 C.2       11 UNK         0.5000 
     68 O          -5.6002  -21.6057  -46.3091 O.2       11 UNK        -0.5000 
     69 N          -3.4756  -21.5269  -45.5181 N.am      12 UNK        -0.5000 
     70 CA         -3.7496  -21.9888  -44.1600 C.3       12 UNK         0.1400 
     71 CB         -3.4947  -20.8393  -43.1769 C.3       12 UNK        -0.1800 
     72 C          -2.8811  -23.2047  -43.8021 C.2       12 UNK         0.5000 
     73 O          -3.4083  -24.1931  -43.2909 O.2       12 UNK        -0.5000 
     74 N          -1.5720  -23.1275  -44.0815 N.am      13 UNK        -0.5000 
     75 CA         -0.5606  -24.0951  -43.6453 C.3       13 UNK         0.1400 
     76 CB          0.8382  -23.5155  -43.9053 C.3       13 UNK        -0.1800 
     77 C          -0.6887  -25.4868  -44.2895 C.2       13 UNK         0.5000 
     78 O          -0.2588  -26.4690  -43.6837 O.2       13 UNK        -0.5000 
     79 N          -1.2843  -25.5501  -45.4865 N.am      14 UNK        -0.5000 
     80 CA         -1.5735  -26.7877  -46.2122 C.3       14 UNK         0.1400 
     81 CB         -0.9590  -26.6998  -47.6201 C.3       14 UNK        -0.1800 
     82 C          -3.0889  -27.0591  -46.2642 C.2       14 UNK         0.5000 
     83 O          -3.5332  -27.8357  -47.1089 O.2       14 UNK        -0.5000 
     84 N          -3.8672  -26.4029  -45.3869 N.am      15 UNK        -0.5000 
     85 CA         -5.3301  -26.4802  -45.2800 C.3       15 UNK         0.1400 
     86 CB         -5.7616  -27.8625  -44.7475 C.3       15 UNK        -0.1800 
     87 C          -6.0543  -26.0837  -46.5859 C.2       15 UNK         0.5000 
     88 O          -7.0906  -26.6595  -46.9208 O.2       15 UNK        -0.5000 
     89 N          -5.4709  -25.1114  -47.3006 N.am      16 UNK        -0.5000 
     90 CA         -5.8964  -24.5606  -48.5877 C.3       16 UNK         0.1400 
     91 CB         -7.3266  -23.9843  -48.5283 C.3       16 UNK        -0.1800 
     92 C          -5.6718  -25.4920  -49.7959 C.2       16 UNK         0.5000 
     93 O          -6.1526  -25.1798  -50.8873 O.2       16 UNK        -0.5000 
     94 N          -4.9062  -26.5808  -49.6271 N.am      17 UNK        -0.5000 
     95 CA         -4.3924  -27.3780  -50.7404 C.3       17 UNK         0.1400 
     96 CB         -3.8550  -28.7214  -50.2239 C.3       17 UNK        -0.1800 
     97 C          -3.2959  -26.5764  -51.4632 C.2       17 UNK         0.5000 
     98 O          -2.2963  -26.2253  -50.8359 O.2       17 UNK        -0.5000 
     99 N          -3.5276  -26.2694  -52.7465 N.am      18 UNK        -0.5000 
    100 CA        -2.7103  -25.3899  -53.5921 C.3       18 UNK         0.1400 
    101 CB        -1.3085  -25.9895  -53.8369 C.3       18 UNK        -0.1800 
    102 C         -2.6716  -23.9316  -53.0791 C.2       18 UNK         0.5000 
    103 O         -1.6219  -23.2870  -53.1156 O.2       18 UNK        -0.5000 
    104 N         -3.8304  -23.4353  -52.6198 N.am      19 UNK        -0.5000 
    105 CA        -4.0620  -22.0341  -52.2603 C.3       19 UNK         0.1400 
    106 CB        -5.4487  -21.9136  -51.6085 C.3       19 UNK        -0.1800 
    107 C         -3.9658  -21.0876  -53.4751 C.2       19 UNK         0.5000 
    108 O         -4.0918  -21.5336  -54.6192 O.2       19 UNK        -0.5000 
    109 N         -3.7811  -19.7911  -53.1901 N.am      20 UNK        -0.5000 
    110 CA        -3.5668  -18.7041  -54.1497 C.3       20 UNK         0.1400 
    111 CB        -4.8241  -18.4672  -55.0179 C.3       20 UNK        -0.1800 
    112 C         -2.2593  -18.9201  -54.9443 C.2       20 UNK         0.5000 
    113 O         -1.2258  -19.1776  -54.3249 O.2       20 UNK        -0.5000 
    114 N         -2.3243  -18.8138  -56.2798 N.am      21 UNK        -0.5000 
    115 CA        -1.2496  -19.0935  -57.2411 C.3       21 UNK         0.1400 
    116 CB        -0.8833  -20.5936  -57.2219 C.3       21 UNK        -0.1800 
    117 C         -0.0176  -18.1703  -57.1043 C.2       21 UNK         0.5000 
    118 O          1.1093  -18.6068  -57.3479 O.2       21 UNK        -0.5000 
    119 N         -0.2537  -16.9009  -56.7456 N.am      22 UNK        -0.5000 
    120 CA         0.7821  -15.8526  -56.6705 C.3       22 UNK         0.1400 
    121 C          1.2405  -15.3025  -58.0555 C.2       22 UNK         0.5000 
    122 N          0.5609  -15.6022  -59.1562 N.am      22 UNK        -0.7600 
    123 O          2.2403  -14.5938  -58.1340 O.2       22 UNK        -0.5000 
    124 C124        0.3676  -14.6880  -55.7349 C.3       23 UNK        -0.0398 
    125 S125        0.2069  -15.1955  -53.9896 S.3       23 UNK        -0.2404 
    126 C126       -1.5951  -15.1317  -53.7648 C.3       23 UNK        -0.0205 
    127 H127        2.2468  -15.2694  -50.1233 H         1 UNK         0.0600 
    128 H128        0.8300  -14.7012  -51.0148 H         1 UNK         0.0600 
    129 H129        0.7773  -16.2491  -50.1681 H         1 UNK         0.0600 
    130 H130       -0.1801  -13.0340  -49.9221 H         1 UNK         0.3000 
    131 H131       -1.3027  -13.2929  -47.3894 H         1 UNK         0.0600 
    132 H132       -1.9459  -10.9458  -47.5593 H         1 UNK         0.0800 
    133 H133       -0.7018  -10.6118  -48.7268 H         1 UNK         0.0800 
    134 H134       -4.4819  -13.0932  -49.7190 H         1 UNK         0.0800 
    135 H135       -3.4306  -13.4137  -48.3689 H         1 UNK         0.0800 
    136 H136       -2.5897  -13.2643  -52.0587 H         1 UNK         0.1150 
    137 H137       -1.4587  -17.3902  -52.2376 H         1 UNK         0.1150 
    138 H138       -3.0807  -15.7731  -48.6198 H         1 UNK         0.1150 
    139 H139       -1.3247  -18.6552  -50.1435 H         1 UNK         0.0800 
    140 H140       -1.8772  -17.9532  -48.6447 H         1 UNK         0.0800 
    141 H141       -5.0979  -19.2197  -47.9547 H         1 UNK         0.0800 
    142 H142       -3.4578  -18.9516  -47.4403 H         1 UNK         0.0800 
    143 H143       -4.5539  -21.5568  -48.6069 H         1 UNK         0.0600 
    144 H144       -1.8878  -20.7763  -48.4654 H         1 UNK         0.3000 
    145 H145       -0.2006  -23.7028  -47.5906 H         1 UNK         0.0600 
    146 H146       -0.8116  -24.2180  -49.9702 H         1 UNK         0.0600 
    147 H147        0.8098  -23.5618  -49.8444 H         1 UNK         0.0600 
    148 H148       -0.5156  -22.5445  -50.4129 H         1 UNK         0.0600 
    149 H149        0.9334  -21.4392  -48.6507 H         1 UNK         0.3000 
    150 H150        2.1923  -20.1606  -47.1481 H         1 UNK         0.0600 
    151 H151        0.4535  -18.9119  -48.4912 H         1 UNK         0.0600 
    152 H152        1.4615  -17.8557  -47.5417 H         1 UNK         0.0600 
    153 H153       -0.1762  -18.2194  -46.9986 H         1 UNK         0.0600 
    154 H154        0.7217  -18.9564  -44.8543 H         1 UNK         0.3000 
    155 H155        2.4094  -20.5426  -42.4578 H         1 UNK         0.0600 
    156 H156        3.8098  -17.9095  -43.1416 H         1 UNK         0.0600 
    157 H157        4.6029  -19.4565  -42.8797 H         1 UNK         0.0600 
    158 H158        3.7500  -18.6739  -41.5596 H         1 UNK         0.0600 
    159 H159        1.3529  -17.7866  -42.8665 H         1 UNK         0.3000 
    160 H160       -1.9173  -18.7379  -41.8847 H         1 UNK         0.0600 
    161 H161        0.1313  -17.2019  -40.2173 H         1 UNK         0.0600 
    162 H162       -0.9216  -18.4902  -39.6527 H         1 UNK         0.0600 
    163 H163       -1.6156  -16.9571  -40.1594 H         1 UNK         0.0600 
    164 H164       -0.7448  -16.1951  -42.4001 H         1 UNK         0.3000 
    165 H165       -0.3862  -16.0792  -45.5999 H         1 UNK         0.0600 
    166 H166       -2.5038  -15.0075  -46.4747 H         1 UNK         0.0600 
    167 H167       -3.4287  -15.9296  -45.2941 H         1 UNK         0.0600 
    168 H168       -2.5258  -16.7629  -46.5460 H         1 UNK         0.0600 
    169 H169       -0.1569  -14.2837  -44.3769 H         1 UNK         0.3000 
    170 H170       -1.3678  -12.0270  -43.4879 H         1 UNK         0.0600 
    171 H171       -3.1661  -12.0736  -41.8273 H         1 UNK         0.0600 
    172 H172       -2.2214  -13.0839  -40.7449 H         1 UNK         0.0600 
    173 H173       -1.7128  -11.4296  -41.0817 H         1 UNK         0.0600 
    174 H174        0.7420  -12.3868  -42.8975 H         1 UNK         0.3000 
    175 H175        2.4708  -12.9609  -41.0331 H         1 UNK         0.0600 
    176 H176        2.3407  -16.0155  -40.7645 H         1 UNK         0.0600 
    177 H177        3.7323  -15.0075  -40.3755 H         1 UNK         0.0600 
    178 H178        2.2497  -14.8563  -39.4463 H         1 UNK         0.0600 
    179 H179        3.3834  -13.3320  -43.0334 H         1 UNK         0.3000 
    180 H180        4.4490  -14.8719  -44.6653 H         1 UNK         0.0600 
    181 H181        2.2212  -16.4972  -45.9716 H         1 UNK         0.0600 
    182 H182        3.7180  -17.1185  -45.2961 H         1 UNK         0.0600 
    183 H183        3.7607  -16.1380  -46.7505 H         1 UNK         0.0600 
    184 H184        2.3379  -14.0420  -46.4882 H         1 UNK         0.3000 
    185 H185        2.4486  -10.6464  -45.8319 H         1 UNK         0.0600 
    186 H186        4.7561  -10.6115  -46.7887 H         1 UNK         0.0600 
    187 H187        4.2773  -11.7712  -48.0222 H         1 UNK         0.0600 
    188 H188        3.5661  -10.1567  -47.9963 H         1 UNK         0.0600 
    189 H189        1.8479  -12.0389  -48.2620 H         1 UNK         0.3000 
    190 H190       -2.5024  -21.3483  -45.7460 H         1 UNK         0.3000 
    191 H191       -4.7921  -22.2973  -44.0578 H         1 UNK         0.0600 
    192 H192       -3.6815  -21.1487  -42.1479 H         1 UNK         0.0600 
    193 H193       -4.1396  -19.9863  -43.3884 H         1 UNK         0.0600 
    194 H194       -2.4615  -20.5003  -43.2396 H         1 UNK         0.0600 
    195 H195       -1.2110  -22.3023  -44.5556 H         1 UNK         0.3000 
    196 H196       -0.6761  -24.2242  -42.5672 H         1 UNK         0.0600 
    197 H197        1.0308  -23.3890  -44.9710 H         1 UNK         0.0600 
    198 H198        0.9575  -22.5448  -43.4245 H         1 UNK         0.0600 
    199 H199        1.6137  -24.1717  -43.5087 H         1 UNK         0.0600 
    200 H200       -1.6395  -24.6985  -45.9013 H         1 UNK         0.3000 
    201 H201       -1.1230  -27.6444  -45.7077 H         1 UNK         0.0600 
    202 H202       -1.4564  -25.9482  -48.2315 H         1 UNK         0.0600 
    203 H203       -1.0459  -27.6512  -48.1458 H         1 UNK         0.0600 
    204 H204        0.1013  -26.4511  -47.5762 H         1 UNK         0.0600 
    205 H205       -3.4212  -25.7823  -44.7209 H         1 UNK         0.3000 
    206 H206       -5.6203  -25.7360  -44.5369 H         1 UNK         0.0600 
    207 H207       -5.2441  -28.1060  -43.8197 H         1 UNK         0.0600 
    208 H208       -6.8312  -27.8842  -44.5358 H         1 UNK         0.0600 
    209 H209       -5.5544  -28.6562  -45.4659 H         1 UNK         0.0600 
    210 H210       -4.5898  -24.7426  -46.9636 H         1 UNK         0.3000 
    211 H211       -5.2238  -23.7230  -48.7573 H         1 UNK         0.0600 
    212 H212       -7.5526  -23.4056  -49.4244 H         1 UNK         0.0600 
    213 H213       -7.4477  -23.3166  -47.6753 H         1 UNK         0.0600 
    214 H214       -8.0796  -24.7687  -48.4532 H         1 UNK         0.0600 
    215 H215       -4.5177  -26.7816  -48.7130 H         1 UNK         0.3000 
    216 H216       -5.2124  -27.5873  -51.4307 H         1 UNK         0.0600 
    217 H217       -2.9816  -28.5901  -49.5846 H         1 UNK         0.0600 
    218 H218       -3.5564  -29.3629  -51.0536 H         1 UNK         0.0600 
    219 H219       -4.6120  -29.2571  -49.6510 H         1 UNK         0.0600 
    220 H220       -4.3886  -26.5934  -53.1653 H         1 UNK         0.3000 
    221 H221       -3.2146  -25.3491  -54.5586 H         1 UNK         0.0600 
    222 H222       -1.3756  -27.0143  -54.2017 H         1 UNK         0.0600 
    223 H223       -0.7021  -25.9940  -52.9309 H         1 UNK         0.0600 
    224 H224       -0.7654  -25.4137  -54.5872 H         1 UNK         0.0600 
    225 H225       -4.6412  -24.0380  -52.6083 H         1 UNK         0.3000 
    226 H226       -3.3021  -21.7404  -51.5329 H         1 UNK         0.0600 
    227 H227       -6.2383  -22.2627  -52.2751 H         1 UNK         0.0600 
    228 H228       -5.5029  -22.4963  -50.6928 H         1 UNK         0.0600 
    229 H229       -5.6780  -20.8811  -51.3429 H         1 UNK         0.0600 
    230 H230       -3.6906  -19.5257  -52.2177 H         1 UNK         0.3000 
    231 H231       -3.4229  -17.8030  -53.5563 H         1 UNK         0.0600 
    232 H232       -5.0283  -19.2998  -55.6917 H         1 UNK         0.0600 
    233 H233       -4.7210  -17.5656  -55.6227 H         1 UNK         0.0600 
    234 H234       -5.7057  -18.3285  -54.3920 H         1 UNK         0.0600 
    235 H235       -3.2219  -18.5919  -56.6875 H         1 UNK         0.3000 
    236 H236       -1.6675  -18.8788  -58.2255 H         1 UNK         0.0600 
    237 H237       -1.7695  -21.2173  -57.3398 H         1 UNK         0.0600 
    238 H238       -0.2025  -20.8426  -58.0367 H         1 UNK         0.0600 
    239 H239       -0.3956  -20.8797  -56.2895 H         1 UNK         0.0600 
    240 H240       -1.2037  -16.6150  -56.5657 H         1 UNK         0.3000 
    241 H241        1.6744  -16.3070  -56.2351 H         1 UNK         0.0600 
    242 H242       -0.2629  -16.1798  -59.1135 H         1 UNK         0.3800 
    243 H243        0.8737  -15.2423  -60.0446 H         1 UNK         0.3800 
    244 H244        1.1184  -13.8959  -55.7553 H         1 UNK         0.0800 
    245 H245       -0.5581  -14.2280  -56.0841 H         1 UNK         0.0800 
    246 H246       -1.9721  -14.1796  -54.1414 H         1 UNK         0.0800 
    247 H247       -2.0638  -15.9090  -54.3674 H         1 UNK         0.0800 
@<TRIPOS>BOND
     1    1    2 1    
     2    1  127 1    
     3    1  128 1    
     4    1  129 1    
     5    2    3 2    
     6    2    4 am   BACKBONE|DICT|INTERRES
     7    4    5 1    
     8    4  130 1    
     9    5    6 1    
    10    5   65 1    
    11    5  131 1    
    12    6    7 1    
    13    6  132 1    
    14    6  133 1    
    15    7    8 1    
    16    8    9 1    
    17    8  134 1    
    18    8  135 1    
    19    9   10 ar   
    20    9   14 ar   
    21   10   11 ar   
    22   10  136 1    
    23   11   12 ar   
    24   11  126 1    
    25   12   13 ar   
    26   12  137 1    
    27   13   14 ar   
    28   13   15 1    
    29   14  138 1    
    30   15   16 1    
    31   15  139 1    
    32   15  140 1    
    33   16   17 1    
    34   17   18 1    
    35   17  141 1    
    36   17  142 1    
    37   18   19 1    
    38   18   67 1    
    39   18  143 1    
    40   19   20 am   BACKBONE|DICT|INTERRES
    41   19  144 1    
    42   20   21 2    
    43   20   22 1    
    44   22   23 1    
    45   22   24 1    
    46   22  145 1    
    47   23  146 1    
    48   23  147 1    
    49   23  148 1    
    50   24   25 am   BACKBONE|DICT|INTERRES
    51   24  149 1    
    52   25   26 2    
    53   25   27 1    
    54   27   28 1    
    55   27   29 1    
    56   27  150 1    
    57   28  151 1    
    58   28  152 1    
    59   28  153 1    
    60   29   30 am   BACKBONE|DICT|INTERRES
    61   29  154 1    
    62   30   31 2    
    63   30   32 1    
    64   32   33 1    
    65   32   34 1    
    66   32  155 1    
    67   33  156 1    
    68   33  157 1    
    69   33  158 1    
    70   34   35 am   BACKBONE|DICT|INTERRES
    71   34  159 1    
    72   35   36 2    
    73   35   37 1    
    74   37   38 1    
    75   37   39 1    
    76   37  160 1    
    77   38  161 1    
    78   38  162 1    
    79   38  163 1    
    80   39   40 am   BACKBONE|DICT|INTERRES
    81   39  164 1    
    82   40   41 2    
    83   40   42 1    
    84   42   43 1    
    85   42   44 1    
    86   42  165 1    
    87   43  166 1    
    88   43  167 1    
    89   43  168 1    
    90   44   45 am   BACKBONE|DICT|INTERRES
    91   44  169 1    
    92   45   46 2    
    93   45   47 1    
    94   47   48 1    
    95   47   49 1    
    96   47  170 1    
    97   48  171 1    
    98   48  172 1    
    99   48  173 1    
   100   49   50 am   BACKBONE|DICT|INTERRES
   101   49  174 1    
   102   50   51 2    
   103   50   52 1    
   104   52   53 1    
   105   52   54 1    
   106   52  175 1    
   107   53  176 1    
   108   53  177 1    
   109   53  178 1    
   110   54   55 am   BACKBONE|DICT|INTERRES
   111   54  179 1    
   112   55   56 2    
   113   55   57 1    
   114   57   58 1    
   115   57   59 1    
   116   57  180 1    
   117   58  181 1    
   118   58  182 1    
   119   58  183 1    
   120   59   60 am   BACKBONE|DICT|INTERRES
   121   59  184 1    
   122   60   61 2    
   123   60   62 1    
   124   62   63 1    
   125   62   64 1    
   126   62  185 1    
   127   63  186 1    
   128   63  187 1    
   129   63  188 1    
   130   64   65 am   BACKBONE|DICT|INTERRES
   131   64  189 1    
   132   65   66 2    
   133   67   68 2    
   134   67   69 am   BACKBONE|DICT|INTERRES
   135   69   70 1    
   136   69  190 1    
   137   70   71 1    
   138   70   72 1    
   139   70  191 1    
   140   71  192 1    
   141   71  193 1    
   142   71  194 1    
   143   72   73 2    
   144   72   74 am   BACKBONE|DICT|INTERRES
   145   74   75 1    
   146   74  195 1    
   147   75   76 1    
   148   75   77 1    
   149   75  196 1    
   150   76  197 1    
   151   76  198 1    
   152   76  199 1    
   153   77   78 2    
   154   77   79 am   BACKBONE|DICT|INTERRES
   155   79   80 1    
   156   79  200 1    
   157   80   81 1    
   158   80   82 1    
   159   80  201 1    
   160   81  202 1    
   161   81  203 1    
   162   81  204 1    
   163   82   83 2    
   164   82   84 am   BACKBONE|DICT|INTERRES
   165   84   85 1    
   166   84  205 1    
   167   85   86 1    
   168   85   87 1    
   169   85  206 1    
   170   86  207 1    
   171   86  208 1    
   172   86  209 1    
   173   87   88 2    
   174   87   89 am   BACKBONE|DICT|INTERRES
   175   89   90 1    
   176   89  210 1    
   177   90   91 1    
   178   90   92 1    
   179   90  211 1    
   180   91  212 1    
   181   91  213 1    
   182   91  214 1    
   183   92   93 2    
   184   92   94 am   BACKBONE|DICT|INTERRES
   185   94   95 1    
   186   94  215 1    
   187   95   96 1    
   188   95   97 1    
   189   95  216 1    
   190   96  217 1    
   191   96  218 1    
   192   96  219 1    
   193   97   98 2    
   194   97   99 am   BACKBONE|DICT|INTERRES
   195   99  100 1    
   196   99  220 1    
   197  100  101 1    
   198  100  102 1    
   199  100  221 1    
   200  101  222 1    
   201  101  223 1    
   202  101  224 1    
   203  102  103 2    
   204  102  104 am   BACKBONE|DICT|INTERRES
   205  104  105 1    
   206  104  225 1    
   207  105  106 1    
   208  105  107 1    
   209  105  226 1    
   210  106  227 1    
   211  106  228 1    
   212  106  229 1    
   213  107  108 2    
   214  107  109 am   BACKBONE|DICT|INTERRES
   215  109  110 1    
   216  109  230 1    
   217  110  111 1    
   218  110  112 1    
   219  110  231 1    
   220  111  232 1    
   221  111  233 1    
   222  111  234 1    
   223  112  113 2    
   224  112  114 am   BACKBONE|DICT|INTERRES
   225  114  115 1    
   226  114  235 1    
   227  115  116 1    
   228  115  117 1    
   229  115  236 1    
   230  116  237 1    
   231  116  238 1    
   232  116  239 1    
   233  117  118 2    
   234  117  119 am   BACKBONE|DICT|INTERRES
   235  119  120 1    
   236  119  240 1    
   237  120  121 1    
   238  120  124 1    
   239  120  241 1    
   240  121  122 am   BACKBONE|DICT|INTERRES
   241  121  123 2    
   242  122  242 1    
   243  122  243 1    
   244  124  125 1    
   245  124  244 1    
   246  124  245 1    
   247  125  126 1    
   248  126  246 1    
   249  126  247 1    
@<TRIPOS>SUBSTRUCTURE
     1 UNK         1 GROUP             0       ****    0 ROOT    
