@<TRIPOS>MOLECULE
3R540
247   249    1
SMALL
USER_CHARGES


@<TRIPOS>ATOM
      1 CA          7.7513  -12.7870  -50.3755 C.3       0 UNK        -0.1800 
      2 C           7.4063  -14.2457  -50.0783 C.2       0 UNK         0.5000 
      3 O           8.1231  -15.1371  -50.5297 O.2       0 UNK        -0.5000 
      4 N           6.3438  -14.5448  -49.3186 N.am      1 UNK        -0.5000 
      5 CA          5.3333  -13.6230  -48.7898 C.3       1 UNK         0.1400 
      6 C6          4.4736  -14.2844  -47.6752 C.3       23 UNK        -0.0398 
      7 S7          3.7694  -15.9196  -48.1126 S.3       23 UNK        -0.2404 
      8 C8          1.9793  -15.5961  -48.2139 C.3       23 UNK        -0.0205 
      9 C9          1.3976  -16.1757  -49.4945 C.ar      23 UNK        -0.0193 
     10 C10         1.1797  -15.3493  -50.5958 C.ar      23 UNK        -0.1150 
     11 C11         0.6710  -15.8676  -51.7870 C.ar      23 UNK        -0.0193 
     12 C12         0.3820  -17.2338  -51.8725 C.ar      23 UNK        -0.1150 
     13 C13         0.5876  -18.0836  -50.7773 C.ar      23 UNK        -0.0193 
     14 C14         1.0905  -17.5359  -49.5875 C.ar      23 UNK        -0.1150 
     15 C15         0.2238  -19.5683  -50.9098 C.3       23 UNK        -0.0205 
     16 S16         1.3869  -20.7336  -50.1211 S.3       23 UNK        -0.2404 
     17 C17         0.8363  -20.6843  -48.3833 C.3       23 UNK        -0.0398 
     18 CA          0.5266  -22.0611  -47.7553 C.3       11 UNK         0.1400 
     19 N           0.5571  -21.9673  -46.2947 N.am      11 UNK        -0.5000 
     20 C           0.5099  -22.9964  -45.4411 C.2       10 UNK         0.5000 
     21 O           0.4572  -24.1747  -45.7915 O.2       10 UNK        -0.5000 
     22 CA          0.4782  -22.6409  -43.9426 C.3       10 UNK         0.1400 
     23 CB          1.8866  -22.3144  -43.4241 C.3       10 UNK        -0.1800 
     24 N          -0.4208  -21.5223  -43.6517 N.am      10 UNK        -0.5000 
     25 C          -1.7522  -21.5693  -43.8024 C.2       9 UNK         0.5000 
     26 O          -2.3637  -22.5730  -44.1685 O.2       9 UNK        -0.5000 
     27 CA         -2.5263  -20.2624  -43.5501 C.3       9 UNK         0.1400 
     28 CB         -2.7029  -20.0138  -42.0448 C.3       9 UNK        -0.1800 
     29 N          -1.8958  -19.0980  -44.1749 N.am      9 UNK        -0.5000 
     30 C          -1.6927  -18.9683  -45.4940 C.2       8 UNK         0.5000 
     31 O          -2.0442  -19.8038  -46.3222 O.2       8 UNK        -0.5000 
     32 CA         -0.9119  -17.7356  -45.9721 C.3       8 UNK         0.1400 
     33 CB         -1.8281  -16.5074  -46.0660 C.3       8 UNK        -0.1800 
     34 N           0.2390  -17.4379  -45.1259 N.am      8 UNK        -0.5000 
     35 C           1.2817  -18.2544  -44.9235 C.2       7 UNK         0.5000 
     36 O           1.3992  -19.3598  -45.4493 O.2       7 UNK        -0.5000 
     37 CA          2.3445  -17.7750  -43.9238 C.3       7 UNK         0.1400 
     38 CB          3.2819  -16.7439  -44.5666 C.3       7 UNK        -0.1800 
     39 N           1.7323  -17.2036  -42.7268 N.am      7 UNK        -0.5000 
     40 C           1.0868  -17.9210  -41.7975 C.2       6 UNK         0.5000 
     41 O           0.9634  -19.1463  -41.8378 O.2       6 UNK        -0.5000 
     42 CA          0.4481  -17.1244  -40.6458 C.3       6 UNK         0.1400 
     43 CB          1.4885  -16.8095  -39.5605 C.3       6 UNK        -0.1800 
     44 N          -0.1768  -15.8784  -41.0971 N.am      6 UNK        -0.5000 
     45 C          -1.2724  -15.8290  -41.8664 C.2       5 UNK         0.5000 
     46 O          -1.8523  -16.8261  -42.2959 O.2       5 UNK        -0.5000 
     47 CA         -1.7934  -14.4301  -42.2431 C.3       5 UNK         0.1400 
     48 CB         -2.5584  -13.8027  -41.0675 C.3       5 UNK        -0.1800 
     49 N          -0.7685  -13.4910  -42.7150 N.am      5 UNK        -0.5000 
     50 C           0.0563  -13.7115  -43.7462 C.2       4 UNK         0.5000 
     51 O           0.1823  -14.7981  -44.3091 O.2       4 UNK        -0.5000 
     52 CA          0.8512  -12.5217  -44.2858 C.3       4 UNK         0.1400 
     53 CB          2.3575  -12.6902  -44.0114 C.3       4 UNK        -0.1800 
     54 N           0.5798  -12.4749  -45.7194 N.am      4 UNK        -0.5000 
     55 C           0.8475  -11.4550  -46.5361 C.2       3 UNK         0.5000 
     56 O           1.4227  -10.4234  -46.1812 O.2       3 UNK        -0.5000 
     57 CA          0.4165  -11.6080  -48.0012 C.3       3 UNK         0.1400 
     58 CB         -0.7886  -10.7021  -48.3178 C.3       3 UNK        -0.1800 
     59 N           1.5769  -11.2580  -48.8080 N.am      3 UNK        -0.5000 
     60 C           1.7222  -11.3802  -50.1321 C.2       2 UNK         0.5000 
     61 O           0.8358  -11.7505  -50.9004 O.2       2 UNK        -0.5000 
     62 CA          3.1353  -11.0913  -50.6687 C.3       2 UNK         0.1400 
     63 CB          3.4090   -9.5800  -50.7233 C.3       2 UNK        -0.1800 
     64 N           4.1393  -11.7447  -49.8239 N.am      2 UNK        -0.5000 
     65 C           4.4537  -13.0433  -49.9182 C.2       1 UNK         0.5000 
     66 O           4.0735  -13.7710  -50.8367 O.2       1 UNK        -0.5000 
     67 C          -0.8007  -22.6649  -48.2647 C.2       11 UNK         0.5000 
     68 O          -0.7755  -23.5668  -49.1020 O.2       11 UNK        -0.5000 
     69 N          -1.9321  -22.2076  -47.7078 N.am      12 UNK        -0.5000 
     70 CA         -3.2664  -22.7468  -47.9672 C.3       12 UNK         0.1400 
     71 CB         -4.3333  -21.8698  -47.2955 C.3       12 UNK        -0.1800 
     72 C          -3.4073  -24.2079  -47.5120 C.2       12 UNK         0.5000 
     73 O          -3.9601  -25.0133  -48.2585 O.2       12 UNK        -0.5000 
     74 N          -2.8788  -24.5387  -46.3244 N.am      13 UNK        -0.5000 
     75 CA         -2.8518  -25.9008  -45.7865 C.3       13 UNK         0.1400 
     76 CB         -2.3484  -25.8850  -44.3357 C.3       13 UNK        -0.1800 
     77 C          -2.0179  -26.8640  -46.6509 C.2       13 UNK         0.5000 
     78 O          -2.4743  -27.9732  -46.9296 O.2       13 UNK        -0.5000 
     79 N          -0.8445  -26.4071  -47.1119 N.am      14 UNK        -0.5000 
     80 CA          0.0234  -27.1286  -48.0479 C.3       14 UNK         0.1400 
     81 CB          1.3533  -26.3746  -48.1973 C.3       14 UNK        -0.1800 
     82 C          -0.6330  -27.3583  -49.4244 C.2       14 UNK         0.5000 
     83 O          -0.4157  -28.4041  -50.0366 O.2       14 UNK        -0.5000 
     84 N          -1.4591  -26.3989  -49.8606 N.am      15 UNK        -0.5000 
     85 CA         -2.2855  -26.4684  -51.0664 C.3       15 UNK         0.1400 
     86 CB         -2.5642  -25.0362  -51.5519 C.3       15 UNK        -0.1800 
     87 C          -3.6075  -27.2421  -50.8664 C.2       15 UNK         0.5000 
     88 O          -4.4210  -27.2720  -51.7896 O.2       15 UNK        -0.5000 
     89 N          -3.8308  -27.8213  -49.6756 N.am      16 UNK        -0.5000 
     90 CA         -5.0229  -28.5749  -49.2650 C.3       16 UNK         0.1400 
     91 CB         -5.1106  -29.9091  -50.0347 C.3       16 UNK        -0.1800 
     92 C          -6.3255  -27.7472  -49.3427 C.2       16 UNK         0.5000 
     93 O          -7.3828  -28.2832  -49.6788 O.2       16 UNK        -0.5000 
     94 N          -6.2091  -26.4451  -49.0450 N.am      17 UNK        -0.5000 
     95 CA         -7.2414  -25.4052  -49.0772 C.3       17 UNK         0.1400 
     96 CB         -8.3798  -25.7192  -48.0845 C.3       17 UNK        -0.1800 
     97 C          -7.7612  -25.0621  -50.4902 C.2       17 UNK         0.5000 
     98 O          -8.7702  -24.3639  -50.6034 O.2       17 UNK        -0.5000 
     99 N          -7.0708  -25.5218  -51.5457 N.am      18 UNK        -0.5000 
    100 CA        -7.4060  -25.2069  -52.9369 C.3       18 UNK         0.1400 
    101 CB        -6.7549  -26.2398  -53.8686 C.3       18 UNK        -0.1800 
    102 C         -6.9821  -23.7808  -53.3357 C.2       18 UNK         0.5000 
    103 O         -7.6252  -23.1761  -54.1948 O.2       18 UNK        -0.5000 
    104 N         -5.9139  -23.2714  -52.7088 N.am      19 UNK        -0.5000 
    105 CA        -5.4103  -21.9145  -52.8979 C.3       19 UNK         0.1400 
    106 CB        -3.8842  -21.9140  -52.7089 C.3       19 UNK        -0.1800 
    107 C         -6.0633  -20.9569  -51.8897 C.2       19 UNK         0.5000 
    108 O         -6.2467  -21.3246  -50.7270 O.2       19 UNK        -0.5000 
    109 N         -6.3412  -19.7264  -52.3400 N.am      20 UNK        -0.5000 
    110 CA        -6.7985  -18.6168  -51.4951 C.3       20 UNK         0.1400 
    111 CB        -7.4731  -17.5600  -52.3836 C.3       20 UNK        -0.1800 
    112 C         -5.6538  -17.9801  -50.6787 C.2       20 UNK         0.5000 
    113 O         -5.9210  -17.2882  -49.6957 O.2       20 UNK        -0.5000 
    114 N         -4.4068  -18.2209  -51.1129 N.am      21 UNK        -0.5000 
    115 CA        -3.1447  -17.8186  -50.4853 C.3       21 UNK         0.1400 
    116 CB        -2.9396  -18.5690  -49.1575 C.3       21 UNK        -0.1800 
    117 C         -2.9477  -16.2938  -50.3632 C.2       21 UNK         0.5000 
    118 O         -2.2944  -15.8251  -49.4311 O.2       21 UNK        -0.5000 
    119 N         -3.5044  -15.5560  -51.3324 N.am      22 UNK        -0.5000 
    120 CA        -3.3334  -14.1056  -51.5323 C.3       22 UNK         0.1400 
    121 C         -3.9306  -13.2021  -50.4091 C.2       22 UNK         0.5000 
    122 N         -4.7777  -13.7175  -49.5260 N.am      22 UNK        -0.7600 
    123 O         -3.6607  -12.0053  -50.3604 O.2       22 UNK        -0.5000 
    124 C124       -1.8724  -13.7220  -51.9081 C.3       23 UNK        -0.0398 
    125 S125       -1.2804  -14.6444  -53.3747 S.3       23 UNK        -0.2404 
    126 C126        0.4730  -14.9487  -52.9852 C.3       23 UNK        -0.0205 
    127 H127        7.7452  -12.1812  -49.4700 H         1 UNK         0.0600 
    128 H128        7.0486  -12.3618  -51.0918 H         1 UNK         0.0600 
    129 H129        8.7493  -12.7146  -50.8083 H         1 UNK         0.0600 
    130 H130        6.1248  -15.5192  -49.1667 H         1 UNK         0.3000 
    131 H131        5.8620  -12.7917  -48.3204 H         1 UNK         0.0600 
    132 H132        3.6877  -13.6085  -47.3344 H         1 UNK         0.0800 
    133 H133        5.1035  -14.4427  -46.7988 H         1 UNK         0.0800 
    134 H134        1.7794  -14.5257  -48.1696 H         1 UNK         0.0800 
    135 H135        1.4840  -16.0351  -47.3472 H         1 UNK         0.0800 
    136 H136        1.4215  -14.2994  -50.5300 H         1 UNK         0.1150 
    137 H137       -0.0098  -17.6314  -52.7982 H         1 UNK         0.1150 
    138 H138        1.2674  -18.1539  -48.7241 H         1 UNK         0.1150 
    139 H139       -0.7751  -19.7426  -50.5141 H         1 UNK         0.0800 
    140 H140        0.1748  -19.8358  -51.9664 H         1 UNK         0.0800 
    141 H141       -0.0153  -20.0132  -48.2651 H         1 UNK         0.0800 
    142 H142        1.6609  -20.2243  -47.8389 H         1 UNK         0.0800 
    143 H143        1.3260  -22.7489  -48.0391 H         1 UNK         0.0600 
    144 H144        0.6477  -21.0302  -45.9100 H         1 UNK         0.3000 
    145 H145        0.1126  -23.5160  -43.4014 H         1 UNK         0.0600 
    146 H146        1.8770  -22.1292  -42.3498 H         1 UNK         0.0600 
    147 H147        2.3027  -21.4314  -43.9099 H         1 UNK         0.0600 
    148 H148        2.5713  -23.1436  -43.6062 H         1 UNK         0.0600 
    149 H149        0.0070  -20.6570  -43.3461 H         1 UNK         0.3000 
    150 H150       -3.5178  -20.3773  -43.9929 H         1 UNK         0.0600 
    151 H151       -3.1639  -20.8736  -41.5572 H         1 UNK         0.0600 
    152 H152       -3.3465  -19.1533  -41.8617 H         1 UNK         0.0600 
    153 H153       -1.7482  -19.8275  -41.5519 H         1 UNK         0.0600 
    154 H154       -1.6195  -18.3413  -43.5563 H         1 UNK         0.3000 
    155 H155       -0.5301  -17.9489  -46.9709 H         1 UNK         0.0600 
    156 H156       -2.1860  -16.1950  -45.0849 H         1 UNK         0.0600 
    157 H157       -2.7017  -16.7156  -46.6844 H         1 UNK         0.0600 
    158 H158       -1.3077  -15.6643  -46.5204 H         1 UNK         0.0600 
    159 H159        0.2332  -16.5257  -44.6717 H         1 UNK         0.3000 
    160 H160        2.9425  -18.6386  -43.6247 H         1 UNK         0.0600 
    161 H161        2.7339  -15.8862  -44.9570 H         1 UNK         0.0600 
    162 H162        3.8287  -17.1903  -45.3974 H         1 UNK         0.0600 
    163 H163        4.0200  -16.3771  -43.8532 H         1 UNK         0.0600 
    164 H164        1.7349  -16.1977  -42.6473 H         1 UNK         0.3000 
    165 H165       -0.3275  -17.7517  -40.2009 H         1 UNK         0.0600 
    166 H166        1.0275  -16.3177  -38.7037 H         1 UNK         0.0600 
    167 H167        1.9592  -17.7231  -39.1949 H         1 UNK         0.0600 
    168 H168        2.2801  -16.1596  -39.9354 H         1 UNK         0.0600 
    169 H169        0.2467  -15.0125  -40.7975 H         1 UNK         0.3000 
    170 H170       -2.5004  -14.5661  -43.0640 H         1 UNK         0.0600 
    171 H171       -3.3363  -14.4754  -40.7032 H         1 UNK         0.0600 
    172 H172       -1.8979  -13.5797  -40.2288 H         1 UNK         0.0600 
    173 H173       -3.0480  -12.8753  -41.3651 H         1 UNK         0.0600 
    174 H174       -0.7931  -12.5687  -42.3044 H         1 UNK         0.3000 
    175 H175        0.4933  -11.6016  -43.8194 H         1 UNK         0.0600 
    176 H176        2.7674  -13.5560  -44.5311 H         1 UNK         0.0600 
    177 H177        2.9208  -11.8141  -44.3324 H         1 UNK         0.0600 
    178 H178        2.5485  -12.8232  -42.9460 H         1 UNK         0.0600 
    179 H179        0.1082  -13.2988  -46.0701 H         1 UNK         0.3000 
    180 H180        0.1494  -12.6476  -48.2014 H         1 UNK         0.0600 
    181 H181       -1.1425  -10.8463  -49.3386 H         1 UNK         0.0600 
    182 H182       -0.5419   -9.6470  -48.1940 H         1 UNK         0.0600 
    183 H183       -1.6268  -10.9251  -47.6566 H         1 UNK         0.0600 
    184 H184        2.3541  -10.9109  -48.2625 H         1 UNK         0.3000 
    185 H185        3.2011  -11.4833  -51.6863 H         1 UNK         0.0600 
    186 H186        3.3679   -9.1211  -49.7347 H         1 UNK         0.0600 
    187 H187        4.3922   -9.3745  -51.1471 H         1 UNK         0.0600 
    188 H188        2.6734   -9.0747  -51.3504 H         1 UNK         0.0600 
    189 H189        4.5240  -11.1929  -49.0707 H         1 UNK         0.3000 
    190 H190       -1.8848  -21.4271  -47.0544 H         1 UNK         0.3000 
    191 H191       -3.4344  -22.7149  -49.0455 H         1 UNK         0.0600 
    192 H192       -4.3068  -20.8499  -47.6773 H         1 UNK         0.0600 
    193 H193       -4.1959  -21.8244  -46.2146 H         1 UNK         0.0600 
    194 H194       -5.3346  -22.2584  -47.4861 H         1 UNK         0.0600 
    195 H195       -2.4819  -23.8097  -45.7396 H         1 UNK         0.3000 
    196 H196       -3.8789  -26.2717  -45.7804 H         1 UNK         0.0600 
    197 H197       -2.9926  -25.2746  -43.7028 H         1 UNK         0.0600 
    198 H198       -1.3360  -25.4887  -44.2623 H         1 UNK         0.0600 
    199 H199       -2.3386  -26.8911  -43.9148 H         1 UNK         0.0600 
    200 H200       -0.5152  -25.4989  -46.7943 H         1 UNK         0.3000 
    201 H201        0.2350  -28.1088  -47.6160 H         1 UNK         0.0600 
    202 H202        1.8588  -26.2736  -47.2367 H         1 UNK         0.0600 
    203 H203        1.2056  -25.3737  -48.6033 H         1 UNK         0.0600 
    204 H204        2.0305  -26.9050  -48.8677 H         1 UNK         0.0600 
    205 H205       -1.5331  -25.5457  -49.3176 H         1 UNK         0.3000 
    206 H206       -1.7257  -26.9860  -51.8476 H         1 UNK         0.0600 
    207 H207       -3.1563  -24.4778  -50.8273 H         1 UNK         0.0600 
    208 H208       -1.6370  -24.4875  -51.7185 H         1 UNK         0.0600 
    209 H209       -3.1121  -25.0379  -52.4949 H         1 UNK         0.0600 
    210 H210       -3.1275  -27.7102  -48.9552 H         1 UNK         0.3000 
    211 H211       -4.8817  -28.8129  -48.2100 H         1 UNK         0.0600 
    212 H212       -5.3116  -29.7528  -51.0950 H         1 UNK         0.0600 
    213 H213       -5.9096  -30.5375  -49.6396 H         1 UNK         0.0600 
    214 H214       -4.1828  -30.4746  -49.9487 H         1 UNK         0.0600 
    215 H215       -5.2832  -26.0984  -48.7944 H         1 UNK         0.3000 
    216 H216       -6.7480  -24.4986  -48.7238 H         1 UNK         0.0600 
    217 H217       -9.0526  -24.8675  -47.9783 H         1 UNK         0.0600 
    218 H218       -7.9872  -25.9446  -47.0929 H         1 UNK         0.0600 
    219 H219       -8.9807  -26.5684  -48.4101 H         1 UNK         0.0600 
    220 H220       -6.2634  -26.1147  -51.3931 H         1 UNK         0.3000 
    221 H221       -8.4887  -25.2815  -53.0590 H         1 UNK         0.0600 
    222 H222       -5.6671  -26.1654  -53.8560 H         1 UNK         0.0600 
    223 H223       -7.0259  -27.2570  -53.5848 H         1 UNK         0.0600 
    224 H224       -7.0790  -26.0911  -54.8994 H         1 UNK         0.0600 
    225 H225       -5.4880  -23.8128  -51.9723 H         1 UNK         0.3000 
    226 H226       -5.6298  -21.5781  -53.9136 H         1 UNK         0.0600 
    227 H227       -3.4009  -22.6085  -53.3962 H         1 UNK         0.0600 
    228 H228       -3.4660  -20.9257  -52.9025 H         1 UNK         0.0600 
    229 H229       -3.6012  -22.1935  -51.6932 H         1 UNK         0.0600 
    230 H230       -6.1828  -19.5117  -53.3144 H         1 UNK         0.3000 
    231 H231       -7.5398  -18.9933  -50.7869 H         1 UNK         0.0600 
    232 H232       -7.8511  -16.7298  -51.7853 H         1 UNK         0.0600 
    233 H233       -8.3216  -17.9819  -52.9226 H         1 UNK         0.0600 
    234 H234       -6.7802  -17.1466  -53.1175 H         1 UNK         0.0600 
    235 H235       -4.3152  -18.7773  -51.9495 H         1 UNK         0.3000 
    236 H236       -2.3658  -18.1484  -51.1716 H         1 UNK         0.0600 
    237 H237       -3.6710  -18.2748  -48.4047 H         1 UNK         0.0600 
    238 H238       -3.0155  -19.6469  -49.2983 H         1 UNK         0.0600 
    239 H239       -1.9496  -18.3688  -48.7511 H         1 UNK         0.0600 
    240 H240       -4.0384  -16.0338  -52.0426 H         1 UNK         0.3000 
    241 H241       -3.9484  -13.8725  -52.4021 H         1 UNK         0.0600 
    242 H242       -5.1727  -13.1266  -48.8120 H         1 UNK         0.3800 
    243 H243       -5.0036  -14.7007  -49.5500 H         1 UNK         0.3800 
    244 H244       -1.2081  -13.8921  -51.0606 H         1 UNK         0.0800 
    245 H245       -1.7979  -12.6578  -52.1375 H         1 UNK         0.0800 
    246 H246        0.9529  -15.3963  -53.8564 H         1 UNK         0.0800 
    247 H247        0.9707  -13.9906  -52.8241 H         1 UNK         0.0800 
@<TRIPOS>BOND
     1    1    2 1    
     2    1  127 1    
     3    1  128 1    
     4    1  129 1    
     5    2    3 2    
     6    2    4 am   BACKBONE|DICT|INTERRES
     7    4    5 1    
     8    4  130 1    
     9    5    6 1    
    10    5   65 1    
    11    5  131 1    
    12    6    7 1    
    13    6  132 1    
    14    6  133 1    
    15    7    8 1    
    16    8    9 1    
    17    8  134 1    
    18    8  135 1    
    19    9   10 ar   
    20    9   14 ar   
    21   10   11 ar   
    22   10  136 1    
    23   11   12 ar   
    24   11  126 1    
    25   12   13 ar   
    26   12  137 1    
    27   13   14 ar   
    28   13   15 1    
    29   14  138 1    
    30   15   16 1    
    31   15  139 1    
    32   15  140 1    
    33   16   17 1    
    34   17   18 1    
    35   17  141 1    
    36   17  142 1    
    37   18   19 1    
    38   18   67 1    
    39   18  143 1    
    40   19   20 am   BACKBONE|DICT|INTERRES
    41   19  144 1    
    42   20   21 2    
    43   20   22 1    
    44   22   23 1    
    45   22   24 1    
    46   22  145 1    
    47   23  146 1    
    48   23  147 1    
    49   23  148 1    
    50   24   25 am   BACKBONE|DICT|INTERRES
    51   24  149 1    
    52   25   26 2    
    53   25   27 1    
    54   27   28 1    
    55   27   29 1    
    56   27  150 1    
    57   28  151 1    
    58   28  152 1    
    59   28  153 1    
    60   29   30 am   BACKBONE|DICT|INTERRES
    61   29  154 1    
    62   30   31 2    
    63   30   32 1    
    64   32   33 1    
    65   32   34 1    
    66   32  155 1    
    67   33  156 1    
    68   33  157 1    
    69   33  158 1    
    70   34   35 am   BACKBONE|DICT|INTERRES
    71   34  159 1    
    72   35   36 2    
    73   35   37 1    
    74   37   38 1    
    75   37   39 1    
    76   37  160 1    
    77   38  161 1    
    78   38  162 1    
    79   38  163 1    
    80   39   40 am   BACKBONE|DICT|INTERRES
    81   39  164 1    
    82   40   41 2    
    83   40   42 1    
    84   42   43 1    
    85   42   44 1    
    86   42  165 1    
    87   43  166 1    
    88   43  167 1    
    89   43  168 1    
    90   44   45 am   BACKBONE|DICT|INTERRES
    91   44  169 1    
    92   45   46 2    
    93   45   47 1    
    94   47   48 1    
    95   47   49 1    
    96   47  170 1    
    97   48  171 1    
    98   48  172 1    
    99   48  173 1    
   100   49   50 am   BACKBONE|DICT|INTERRES
   101   49  174 1    
   102   50   51 2    
   103   50   52 1    
   104   52   53 1    
   105   52   54 1    
   106   52  175 1    
   107   53  176 1    
   108   53  177 1    
   109   53  178 1    
   110   54   55 am   BACKBONE|DICT|INTERRES
   111   54  179 1    
   112   55   56 2    
   113   55   57 1    
   114   57   58 1    
   115   57   59 1    
   116   57  180 1    
   117   58  181 1    
   118   58  182 1    
   119   58  183 1    
   120   59   60 am   BACKBONE|DICT|INTERRES
   121   59  184 1    
   122   60   61 2    
   123   60   62 1    
   124   62   63 1    
   125   62   64 1    
   126   62  185 1    
   127   63  186 1    
   128   63  187 1    
   129   63  188 1    
   130   64   65 am   BACKBONE|DICT|INTERRES
   131   64  189 1    
   132   65   66 2    
   133   67   68 2    
   134   67   69 am   BACKBONE|DICT|INTERRES
   135   69   70 1    
   136   69  190 1    
   137   70   71 1    
   138   70   72 1    
   139   70  191 1    
   140   71  192 1    
   141   71  193 1    
   142   71  194 1    
   143   72   73 2    
   144   72   74 am   BACKBONE|DICT|INTERRES
   145   74   75 1    
   146   74  195 1    
   147   75   76 1    
   148   75   77 1    
   149   75  196 1    
   150   76  197 1    
   151   76  198 1    
   152   76  199 1    
   153   77   78 2    
   154   77   79 am   BACKBONE|DICT|INTERRES
   155   79   80 1    
   156   79  200 1    
   157   80   81 1    
   158   80   82 1    
   159   80  201 1    
   160   81  202 1    
   161   81  203 1    
   162   81  204 1    
   163   82   83 2    
   164   82   84 am   BACKBONE|DICT|INTERRES
   165   84   85 1    
   166   84  205 1    
   167   85   86 1    
   168   85   87 1    
   169   85  206 1    
   170   86  207 1    
   171   86  208 1    
   172   86  209 1    
   173   87   88 2    
   174   87   89 am   BACKBONE|DICT|INTERRES
   175   89   90 1    
   176   89  210 1    
   177   90   91 1    
   178   90   92 1    
   179   90  211 1    
   180   91  212 1    
   181   91  213 1    
   182   91  214 1    
   183   92   93 2    
   184   92   94 am   BACKBONE|DICT|INTERRES
   185   94   95 1    
   186   94  215 1    
   187   95   96 1    
   188   95   97 1    
   189   95  216 1    
   190   96  217 1    
   191   96  218 1    
   192   96  219 1    
   193   97   98 2    
   194   97   99 am   BACKBONE|DICT|INTERRES
   195   99  100 1    
   196   99  220 1    
   197  100  101 1    
   198  100  102 1    
   199  100  221 1    
   200  101  222 1    
   201  101  223 1    
   202  101  224 1    
   203  102  103 2    
   204  102  104 am   BACKBONE|DICT|INTERRES
   205  104  105 1    
   206  104  225 1    
   207  105  106 1    
   208  105  107 1    
   209  105  226 1    
   210  106  227 1    
   211  106  228 1    
   212  106  229 1    
   213  107  108 2    
   214  107  109 am   BACKBONE|DICT|INTERRES
   215  109  110 1    
   216  109  230 1    
   217  110  111 1    
   218  110  112 1    
   219  110  231 1    
   220  111  232 1    
   221  111  233 1    
   222  111  234 1    
   223  112  113 2    
   224  112  114 am   BACKBONE|DICT|INTERRES
   225  114  115 1    
   226  114  235 1    
   227  115  116 1    
   228  115  117 1    
   229  115  236 1    
   230  116  237 1    
   231  116  238 1    
   232  116  239 1    
   233  117  118 2    
   234  117  119 am   BACKBONE|DICT|INTERRES
   235  119  120 1    
   236  119  240 1    
   237  120  121 1    
   238  120  124 1    
   239  120  241 1    
   240  121  122 am   BACKBONE|DICT|INTERRES
   241  121  123 2    
   242  122  242 1    
   243  122  243 1    
   244  124  125 1    
   245  124  244 1    
   246  124  245 1    
   247  125  126 1    
   248  126  246 1    
   249  126  247 1    
@<TRIPOS>SUBSTRUCTURE
     1 UNK         1 GROUP             0       ****    0 ROOT    
