@<TRIPOS>MOLECULE
3R540
247   249    1
SMALL
USER_CHARGES


@<TRIPOS>ATOM
      1 CA         -3.4363  -13.9984  -47.6104 C.3       0 UNK        -0.1800 
      2 C          -2.1584  -13.3301  -48.0976 C.2       0 UNK         0.5000 
      3 O          -2.2071  -12.2297  -48.6457 O.2       0 UNK        -0.5000 
      4 N          -1.0157  -13.9919  -47.8898 N.am      1 UNK        -0.5000 
      5 CA          0.3216  -13.5587  -48.3130 C.3       1 UNK         0.1400 
      6 C6          1.1788  -14.7951  -48.6921 C.3       23 UNK        -0.0398 
      7 S7          2.1933  -14.5752  -50.1899 S.3       23 UNK        -0.2404 
      8 C8          0.9567  -14.7111  -51.5284 C.3       23 UNK        -0.0205 
      9 C9          0.0705  -15.9487  -51.4310 C.ar      23 UNK        -0.0193 
     10 C10         0.6240  -17.2302  -51.5094 C.ar      23 UNK        -0.1150 
     11 C11        -0.1939  -18.3614  -51.4332 C.ar      23 UNK        -0.0193 
     12 C12        -1.5769  -18.2015  -51.3149 C.ar      23 UNK        -0.1150 
     13 C13        -2.1458  -16.9283  -51.2006 C.ar      23 UNK        -0.0193 
     14 C14        -1.3112  -15.8078  -51.2627 C.ar      23 UNK        -0.1150 
     15 C15        -3.6537  -16.7271  -51.0390 C.3       23 UNK        -0.0205 
     16 S16        -4.5193  -18.0124  -50.0656 S.3       23 UNK        -0.2404 
     17 C17        -3.6610  -17.9381  -48.4572 C.3       23 UNK        -0.0398 
     18 CA         -2.8097  -19.2098  -48.2064 C.3       11 UNK         0.1400 
     19 N          -1.5146  -18.8874  -47.6099 N.am      11 UNK        -0.5000 
     20 C          -0.4533  -19.6952  -47.5311 C.2       10 UNK         0.5000 
     21 O          -0.4701  -20.8637  -47.9163 O.2       10 UNK        -0.5000 
     22 CA          0.8243  -19.1239  -46.8867 C.3       10 UNK         0.1400 
     23 CB          1.7255  -18.4781  -47.9512 C.3       10 UNK        -0.1800 
     24 N           0.6045  -18.2147  -45.7504 N.am      10 UNK        -0.5000 
     25 C          -0.0262  -17.0300  -45.6915 C.2       9 UNK         0.5000 
     26 O          -0.5695  -16.4948  -46.6584 O.2       9 UNK        -0.5000 
     27 CA         -0.0589  -16.3055  -44.3320 C.3       9 UNK         0.1400 
     28 CB         -1.3766  -15.5406  -44.0928 C.3       9 UNK        -0.1800 
     29 N           0.2837  -17.1599  -43.1913 N.am      9 UNK        -0.5000 
     30 C          -0.4029  -18.2065  -42.7084 C.2       8 UNK         0.5000 
     31 O          -1.4959  -18.5704  -43.1444 O.2       8 UNK        -0.5000 
     32 CA          0.2940  -19.0001  -41.5792 C.3       8 UNK         0.1400 
     33 CB         -0.2635  -20.4313  -41.4266 C.3       8 UNK        -0.1800 
     34 N           1.7608  -19.0270  -41.7150 N.am      8 UNK        -0.5000 
     35 C           2.4497  -19.4994  -42.7668 C.2       7 UNK         0.5000 
     36 O           1.9078  -19.9769  -43.7646 O.2       7 UNK        -0.5000 
     37 CA          3.9840  -19.3946  -42.7266 C.3       7 UNK         0.1400 
     38 CB          4.5828  -19.1680  -44.1302 C.3       7 UNK        -0.1800 
     39 N           4.4545  -18.3367  -41.8295 N.am      7 UNK        -0.5000 
     40 C           5.6128  -18.3923  -41.1588 C.2       6 UNK         0.5000 
     41 O           6.3221  -19.3981  -41.1030 O.2       6 UNK        -0.5000 
     42 CA          6.0869  -17.1090  -40.4583 C.3       6 UNK         0.1400 
     43 CB          6.7973  -16.1816  -41.4561 C.3       6 UNK        -0.1800 
     44 N           5.0064  -16.3699  -39.8099 N.am      6 UNK        -0.5000 
     45 C           4.5821  -16.5991  -38.5607 C.2       5 UNK         0.5000 
     46 O           4.9825  -17.5303  -37.8612 O.2       5 UNK        -0.5000 
     47 CA          3.5667  -15.5988  -37.9778 C.3       5 UNK         0.1400 
     48 CB          4.2914  -14.5262  -37.1497 C.3       5 UNK        -0.1800 
     49 N           2.7654  -14.9375  -39.0088 N.am      5 UNK        -0.5000 
     50 C           1.6875  -15.4896  -39.5765 C.2       4 UNK         0.5000 
     51 O           1.2646  -16.6116  -39.2999 O.2       4 UNK        -0.5000 
     52 CA          0.9820  -14.6564  -40.6583 C.3       4 UNK         0.1400 
     53 CB          0.1704  -13.5128  -40.0318 C.3       4 UNK        -0.1800 
     54 N           1.8847  -14.1098  -41.6746 N.am      4 UNK        -0.5000 
     55 C           2.6881  -14.8158  -42.4796 C.2       3 UNK         0.5000 
     56 O           2.8574  -16.0319  -42.3625 O.2       3 UNK        -0.5000 
     57 CA          3.3406  -14.0529  -43.6562 C.3       3 UNK         0.1400 
     58 CB          4.0681  -15.0002  -44.6293 C.3       3 UNK        -0.1800 
     59 N           2.3617  -13.2808  -44.4296 N.am      3 UNK        -0.5000 
     60 C           1.7892  -12.1242  -44.0724 C.2       2 UNK         0.5000 
     61 O           2.0444  -11.5538  -43.0107 O.2       2 UNK        -0.5000 
     62 CA          0.7096  -11.5310  -45.0032 C.3       2 UNK         0.1400 
     63 CB          1.0731  -10.1033  -45.4582 C.3       2 UNK        -0.1800 
     64 N           0.3229  -12.3778  -46.1437 N.am      2 UNK        -0.5000 
     65 C           1.0190  -12.6697  -47.2547 C.2       1 UNK         0.5000 
     66 O           2.1731  -12.2903  -47.4490 O.2       1 UNK        -0.5000 
     67 C          -3.5831  -20.3115  -47.4505 C.2       11 UNK         0.5000 
     68 O          -4.4906  -20.9126  -48.0250 O.2       11 UNK        -0.5000 
     69 N          -3.1725  -20.6136  -46.2104 N.am      12 UNK        -0.5000 
     70 CA         -3.6039  -21.7860  -45.4503 C.3       12 UNK         0.1400 
     71 CB         -3.0273  -21.7043  -44.0289 C.3       12 UNK        -0.1800 
     72 C          -3.1981  -23.1127  -46.1257 C.2       12 UNK         0.5000 
     73 O          -3.9912  -24.0538  -46.1284 O.2       12 UNK        -0.5000 
     74 N          -1.9994  -23.1534  -46.7300 N.am      13 UNK        -0.5000 
     75 CA         -1.4984  -24.3023  -47.4920 C.3       13 UNK         0.1400 
     76 CB          0.0283  -24.2027  -47.6339 C.3       13 UNK        -0.1800 
     77 C          -2.1638  -24.4161  -48.8759 C.2       13 UNK         0.5000 
     78 O          -2.3137  -25.5235  -49.3911 O.2       13 UNK        -0.5000 
     79 N          -2.5872  -23.2719  -49.4301 N.am      14 UNK        -0.5000 
     80 CA         -3.3646  -23.1738  -50.6664 C.3       14 UNK         0.1400 
     81 CB         -3.1432  -21.7837  -51.2820 C.3       14 UNK        -0.1800 
     82 C          -4.8710  -23.4252  -50.4534 C.2       14 UNK         0.5000 
     83 O          -5.6261  -23.3640  -51.4238 O.2       14 UNK        -0.5000 
     84 N          -5.2938  -23.6541  -49.2003 N.am      15 UNK        -0.5000 
     85 CA         -6.6725  -23.8691  -48.7527 C.3       15 UNK         0.1400 
     86 CB         -7.1809  -25.2429  -49.2363 C.3       15 UNK        -0.1800 
     87 C          -7.6048  -22.7001  -49.1356 C.2       15 UNK         0.5000 
     88 O          -8.6777  -22.9204  -49.6983 O.2       15 UNK        -0.5000 
     89 N          -7.1426  -21.4707  -48.8606 N.am      16 UNK        -0.5000 
     90 CA         -7.7689  -20.1909  -49.2143 C.3       16 UNK         0.1400 
     91 CB         -9.1149  -20.0044  -48.4830 C.3       16 UNK        -0.1800 
     92 C          -7.8663  -19.9911  -50.7421 C.2       16 UNK         0.5000 
     93 O          -8.8772  -19.5000  -51.2469 O.2       16 UNK        -0.5000 
     94 N          -6.7953  -20.3958  -51.4393 N.am      17 UNK        -0.5000 
     95 CA         -6.5915  -20.3518  -52.8900 C.3       17 UNK         0.1400 
     96 CB         -6.6186  -18.9038  -53.4213 C.3       17 UNK        -0.1800 
     97 C          -7.5072  -21.3044  -53.6865 C.2       17 UNK         0.5000 
     98 O          -7.6876  -21.1084  -54.8891 O.2       17 UNK        -0.5000 
     99 N          -8.0294  -22.3509  -53.0307 N.am      18 UNK        -0.5000 
    100 CA        -8.6947  -23.4778  -53.6896 C.3       18 UNK         0.1400 
    101 CB        -9.4856  -24.2885  -52.6538 C.3       18 UNK        -0.1800 
    102 C         -7.6802  -24.3720  -54.4293 C.2       18 UNK         0.5000 
    103 O         -7.9870  -24.8876  -55.5045 O.2       18 UNK        -0.5000 
    104 N         -6.4756  -24.4910  -53.8590 N.am      19 UNK        -0.5000 
    105 CA        -5.2893  -25.0845  -54.4584 C.3       19 UNK         0.1400 
    106 CB        -4.7503  -26.1818  -53.5230 C.3       19 UNK        -0.1800 
    107 C         -4.2835  -23.9437  -54.6775 C.2       19 UNK         0.5000 
    108 O         -3.2703  -23.8604  -53.9826 O.2       19 UNK        -0.5000 
    109 N         -4.6061  -23.0539  -55.6271 N.am      20 UNK        -0.5000 
    110 CA        -3.8992  -21.8014  -55.9339 C.3       20 UNK         0.1400 
    111 CB        -4.6703  -21.0623  -57.0387 C.3       20 UNK        -0.1800 
    112 C         -2.4086  -21.9387  -56.3175 C.2       20 UNK         0.5000 
    113 O         -1.6958  -20.9352  -56.3295 O.2       20 UNK        -0.5000 
    114 N         -1.9567  -23.1667  -56.6040 N.am      21 UNK        -0.5000 
    115 CA        -0.5498  -23.5306  -56.7781 C.3       21 UNK         0.1400 
    116 CB        -0.4824  -24.9280  -57.4146 C.3       21 UNK        -0.1800 
    117 C          0.2669  -23.4944  -55.4658 C.2       21 UNK         0.5000 
    118 O          1.4964  -23.5120  -55.5340 O.2       21 UNK        -0.5000 
    119 N         -0.4153  -23.4560  -54.3102 N.am      22 UNK        -0.5000 
    120 CA         0.1518  -23.3968  -52.9495 C.3       22 UNK         0.1400 
    121 C          0.7918  -24.7314  -52.4582 C.2       22 UNK         0.5000 
    122 N          0.5653  -25.8590  -53.1214 N.am      22 UNK        -0.7600 
    123 O          1.4810  -24.7572  -51.4423 O.2       22 UNK        -0.5000 
    124 C124        1.0785  -22.1678  -52.7082 C.3       23 UNK        -0.0398 
    125 S125        0.2717  -20.5643  -53.0565 S.3       23 UNK        -0.2404 
    126 C126        0.4146  -19.7552  -51.4349 C.3       23 UNK        -0.0205 
    127 H127       -3.9870  -13.3244  -46.9544 H         1 UNK         0.0600 
    128 H128       -4.0747  -14.2501  -48.4571 H         1 UNK         0.0600 
    129 H129       -3.2278  -14.9142  -47.0563 H         1 UNK         0.0600 
    130 H130       -1.0376  -14.9039  -47.4371 H         1 UNK         0.3000 
    131 H131        0.2030  -12.9343  -49.2006 H         1 UNK         0.0600 
    132 H132        1.8281  -15.1088  -47.8726 H         1 UNK         0.0800 
    133 H133        0.5345  -15.6525  -48.8735 H         1 UNK         0.0800 
    134 H134        1.4796  -14.7291  -52.4853 H         1 UNK         0.0800 
    135 H135        0.3494  -13.8048  -51.5348 H         1 UNK         0.0800 
    136 H136        1.6938  -17.3439  -51.6149 H         1 UNK         0.1150 
    137 H137       -2.2080  -19.0758  -51.2994 H         1 UNK         0.1150 
    138 H138       -1.7411  -14.8186  -51.1896 H         1 UNK         0.1150 
    139 H139       -4.1006  -16.6880  -52.0328 H         1 UNK         0.0800 
    140 H140       -3.8547  -15.7605  -50.5748 H         1 UNK         0.0800 
    141 H141       -3.0313  -17.0472  -48.4539 H         1 UNK         0.0800 
    142 H142       -4.3942  -17.7759  -47.6652 H         1 UNK         0.0800 
    143 H143       -2.5614  -19.6575  -49.1670 H         1 UNK         0.0600 
    144 H144       -1.3819  -17.9330  -47.2822 H         1 UNK         0.3000 
    145 H145        1.3681  -19.9746  -46.4731 H         1 UNK         0.0600 
    146 H146        2.6053  -18.0147  -47.5047 H         1 UNK         0.0600 
    147 H147        2.0759  -19.2257  -48.6634 H         1 UNK         0.0600 
    148 H148        1.1930  -17.7208  -48.5216 H         1 UNK         0.0600 
    149 H149        0.9708  -18.5822  -44.8780 H         1 UNK         0.3000 
    150 H150        0.7306  -15.5604  -44.3979 H         1 UNK         0.0600 
    151 H151       -1.5380  -14.7839  -44.8609 H         1 UNK         0.0600 
    152 H152       -1.3640  -15.0246  -43.1329 H         1 UNK         0.0600 
    153 H153       -2.2407  -16.2051  -44.1064 H         1 UNK         0.0600 
    154 H154        1.1922  -16.9728  -42.7768 H         1 UNK         0.3000 
    155 H155        0.0718  -18.4670  -40.6554 H         1 UNK         0.0600 
    156 H156       -1.3309  -20.4149  -41.2030 H         1 UNK         0.0600 
    157 H157        0.2290  -20.9603  -40.6109 H         1 UNK         0.0600 
    158 H158       -0.1305  -21.0185  -42.3355 H         1 UNK         0.0600 
    159 H159        2.2793  -18.6317  -40.9425 H         1 UNK         0.3000 
    160 H160        4.3287  -20.3634  -42.3599 H         1 UNK         0.0600 
    161 H161        4.2335  -18.2304  -44.5642 H         1 UNK         0.0600 
    162 H162        5.6718  -19.1361  -44.0974 H         1 UNK         0.0600 
    163 H163        4.3080  -19.9712  -44.8150 H         1 UNK         0.0600 
    164 H164        3.9291  -17.4655  -41.8569 H         1 UNK         0.3000 
    165 H165        6.8215  -17.4004  -39.7040 H         1 UNK         0.0600 
    166 H166        7.2404  -15.3246  -40.9486 H         1 UNK         0.0600 
    167 H167        7.6031  -16.7045  -41.9730 H         1 UNK         0.0600 
    168 H168        6.1117  -15.8032  -42.2131 H         1 UNK         0.0600 
    169 H169        4.5979  -15.6051  -40.3246 H         1 UNK         0.3000 
    170 H170        2.9043  -16.1512  -37.3076 H         1 UNK         0.0600 
    171 H171        4.8808  -14.9803  -36.3520 H         1 UNK         0.0600 
    172 H172        4.9711  -13.9333  -37.7630 H         1 UNK         0.0600 
    173 H173        3.5817  -13.8450  -36.6797 H         1 UNK         0.0600 
    174 H174        3.0487  -14.0109  -39.2932 H         1 UNK         0.3000 
    175 H175        0.2777  -15.3166  -41.1655 H         1 UNK         0.0600 
    176 H176        0.8146  -12.7744  -39.5530 H         1 UNK         0.0600 
    177 H177       -0.4267  -12.9972  -40.7842 H         1 UNK         0.0600 
    178 H178       -0.5183  -13.8899  -39.2745 H         1 UNK         0.0600 
    179 H179        1.8141  -13.1133  -41.8577 H         1 UNK         0.3000 
    180 H180        4.0767  -13.3675  -43.2316 H         1 UNK         0.0600 
    181 H181        4.8385  -15.5803  -44.1222 H         1 UNK         0.0600 
    182 H182        3.3801  -15.7088  -45.0926 H         1 UNK         0.0600 
    183 H183        4.5598  -14.4429  -45.4269 H         1 UNK         0.0600 
    184 H184        2.1097  -13.6554  -45.3311 H         1 UNK         0.3000 
    185 H185       -0.1888  -11.4513  -44.3894 H         1 UNK         0.0600 
    186 H186        1.1980   -9.4411  -44.6006 H         1 UNK         0.0600 
    187 H187        2.0057  -10.0787  -46.0221 H         1 UNK         0.0600 
    188 H188        0.2894   -9.6767  -46.0842 H         1 UNK         0.0600 
    189 H189       -0.6127  -12.7557  -46.0951 H         1 UNK         0.3000 
    190 H190       -2.4337  -20.0581  -45.8037 H         1 UNK         0.3000 
    191 H191       -4.6936  -21.7634  -45.3830 H         1 UNK         0.0600 
    192 H192       -3.3431  -22.5581  -43.4282 H         1 UNK         0.0600 
    193 H193       -3.3663  -20.8036  -43.5165 H         1 UNK         0.0600 
    194 H194       -1.9366  -21.6921  -44.0365 H         1 UNK         0.0600 
    195 H195       -1.4225  -22.3204  -46.7495 H         1 UNK         0.3000 
    196 H196       -1.7268  -25.2137  -46.9351 H         1 UNK         0.0600 
    197 H197        0.4305  -25.0916  -48.1217 H         1 UNK         0.0600 
    198 H198        0.5124  -24.1177  -46.6609 H         1 UNK         0.0600 
    199 H199        0.3259  -23.3432  -48.2349 H         1 UNK         0.0600 
    200 H200       -2.4126  -22.4110  -48.9324 H         1 UNK         0.3000 
    201 H201       -2.9998  -23.9255  -51.3682 H         1 UNK         0.0600 
    202 H202       -2.0851  -21.5342  -51.3305 H         1 UNK         0.0600 
    203 H203       -3.6508  -21.0056  -50.7134 H         1 UNK         0.0600 
    204 H204       -3.5276  -21.7440  -52.3010 H         1 UNK         0.0600 
    205 H205       -4.6001  -23.6424  -48.4660 H         1 UNK         0.3000 
    206 H206       -6.6453  -23.8918  -47.6623 H         1 UNK         0.0600 
    207 H207       -6.5435  -26.0463  -48.8675 H         1 UNK         0.0600 
    208 H208       -8.1910  -25.4392  -48.8750 H         1 UNK         0.0600 
    209 H209       -7.2004  -25.3092  -50.3237 H         1 UNK         0.0600 
    210 H210       -6.2142  -21.3920  -48.4478 H         1 UNK         0.3000 
    211 H211       -7.0926  -19.4155  -48.8518 H         1 UNK         0.0600 
    212 H212       -9.8733  -20.7019  -48.8393 H         1 UNK         0.0600 
    213 H213       -9.5032  -18.9968  -48.6348 H         1 UNK         0.0600 
    214 H214       -9.0028  -20.1497  -47.4086 H         1 UNK         0.0600 
    215 H215       -6.0439  -20.8188  -50.9142 H         1 UNK         0.3000 
    216 H216       -5.5815  -20.7292  -53.0506 H         1 UNK         0.0600 
    217 H217       -5.9494  -18.2615  -52.8499 H         1 UNK         0.0600 
    218 H218       -6.2935  -18.8627  -54.4615 H         1 UNK         0.0600 
    219 H219       -7.6189  -18.4731  -53.3756 H         1 UNK         0.0600 
    220 H220       -7.8254  -22.4543  -52.0449 H         1 UNK         0.3000 
    221 H221       -9.4003  -23.0856  -54.4251 H         1 UNK         0.0600 
    222 H222       -8.8319  -24.7207  -51.8969 H         1 UNK         0.0600 
    223 H223      -10.2207  -23.6658  -52.1435 H         1 UNK         0.0600 
    224 H224      -10.0251  -25.1084  -53.1293 H         1 UNK         0.0600 
    225 H225       -6.3069  -24.0099  -52.9764 H         1 UNK         0.3000 
    226 H226       -5.5145  -25.5328  -55.4281 H         1 UNK         0.0600 
    227 H227       -5.4802  -26.9814  -53.3970 H         1 UNK         0.0600 
    228 H228       -3.8422  -26.6292  -53.9286 H         1 UNK         0.0600 
    229 H229       -4.5115  -25.7917  -52.5330 H         1 UNK         0.0600 
    230 H230       -5.4641  -23.2049  -56.1386 H         1 UNK         0.3000 
    231 H231       -3.9308  -21.1884  -55.0311 H         1 UNK         0.0600 
    232 H232       -4.7039  -21.6436  -57.9609 H         1 UNK         0.0600 
    233 H233       -5.6959  -20.8534  -56.7352 H         1 UNK         0.0600 
    234 H234       -4.2039  -20.1039  -57.2712 H         1 UNK         0.0600 
    235 H235       -2.6180  -23.9279  -56.5735 H         1 UNK         0.3000 
    236 H236       -0.0931  -22.8168  -57.4667 H         1 UNK         0.0600 
    237 H237       -0.9379  -25.6843  -56.7743 H         1 UNK         0.0600 
    238 H238       -0.9947  -24.9485  -58.3767 H         1 UNK         0.0600 
    239 H239        0.5512  -25.2279  -57.5929 H         1 UNK         0.0600 
    240 H240       -1.4306  -23.4899  -54.3447 H         1 UNK         0.3000 
    241 H241       -0.7114  -23.2703  -52.2970 H         1 UNK         0.0600 
    242 H242        0.9736  -26.7194  -52.7917 H         1 UNK         0.3800 
    243 H243       -0.0105  -25.8589  -53.9473 H         1 UNK         0.3800 
    244 H244        1.9801  -22.2378  -53.3171 H         1 UNK         0.0800 
    245 H245        1.4269  -22.1617  -51.6742 H         1 UNK         0.0800 
    246 H246       -0.0764  -20.3668  -50.6766 H         1 UNK         0.0800 
    247 H247        1.4672  -19.7047  -51.1522 H         1 UNK         0.0800 
@<TRIPOS>BOND
     1    1    2 1    
     2    1  127 1    
     3    1  128 1    
     4    1  129 1    
     5    2    3 2    
     6    2    4 am   BACKBONE|DICT|INTERRES
     7    4    5 1    
     8    4  130 1    
     9    5    6 1    
    10    5   65 1    
    11    5  131 1    
    12    6    7 1    
    13    6  132 1    
    14    6  133 1    
    15    7    8 1    
    16    8    9 1    
    17    8  134 1    
    18    8  135 1    
    19    9   10 ar   
    20    9   14 ar   
    21   10   11 ar   
    22   10  136 1    
    23   11   12 ar   
    24   11  126 1    
    25   12   13 ar   
    26   12  137 1    
    27   13   14 ar   
    28   13   15 1    
    29   14  138 1    
    30   15   16 1    
    31   15  139 1    
    32   15  140 1    
    33   16   17 1    
    34   17   18 1    
    35   17  141 1    
    36   17  142 1    
    37   18   19 1    
    38   18   67 1    
    39   18  143 1    
    40   19   20 am   BACKBONE|DICT|INTERRES
    41   19  144 1    
    42   20   21 2    
    43   20   22 1    
    44   22   23 1    
    45   22   24 1    
    46   22  145 1    
    47   23  146 1    
    48   23  147 1    
    49   23  148 1    
    50   24   25 am   BACKBONE|DICT|INTERRES
    51   24  149 1    
    52   25   26 2    
    53   25   27 1    
    54   27   28 1    
    55   27   29 1    
    56   27  150 1    
    57   28  151 1    
    58   28  152 1    
    59   28  153 1    
    60   29   30 am   BACKBONE|DICT|INTERRES
    61   29  154 1    
    62   30   31 2    
    63   30   32 1    
    64   32   33 1    
    65   32   34 1    
    66   32  155 1    
    67   33  156 1    
    68   33  157 1    
    69   33  158 1    
    70   34   35 am   BACKBONE|DICT|INTERRES
    71   34  159 1    
    72   35   36 2    
    73   35   37 1    
    74   37   38 1    
    75   37   39 1    
    76   37  160 1    
    77   38  161 1    
    78   38  162 1    
    79   38  163 1    
    80   39   40 am   BACKBONE|DICT|INTERRES
    81   39  164 1    
    82   40   41 2    
    83   40   42 1    
    84   42   43 1    
    85   42   44 1    
    86   42  165 1    
    87   43  166 1    
    88   43  167 1    
    89   43  168 1    
    90   44   45 am   BACKBONE|DICT|INTERRES
    91   44  169 1    
    92   45   46 2    
    93   45   47 1    
    94   47   48 1    
    95   47   49 1    
    96   47  170 1    
    97   48  171 1    
    98   48  172 1    
    99   48  173 1    
   100   49   50 am   BACKBONE|DICT|INTERRES
   101   49  174 1    
   102   50   51 2    
   103   50   52 1    
   104   52   53 1    
   105   52   54 1    
   106   52  175 1    
   107   53  176 1    
   108   53  177 1    
   109   53  178 1    
   110   54   55 am   BACKBONE|DICT|INTERRES
   111   54  179 1    
   112   55   56 2    
   113   55   57 1    
   114   57   58 1    
   115   57   59 1    
   116   57  180 1    
   117   58  181 1    
   118   58  182 1    
   119   58  183 1    
   120   59   60 am   BACKBONE|DICT|INTERRES
   121   59  184 1    
   122   60   61 2    
   123   60   62 1    
   124   62   63 1    
   125   62   64 1    
   126   62  185 1    
   127   63  186 1    
   128   63  187 1    
   129   63  188 1    
   130   64   65 am   BACKBONE|DICT|INTERRES
   131   64  189 1    
   132   65   66 2    
   133   67   68 2    
   134   67   69 am   BACKBONE|DICT|INTERRES
   135   69   70 1    
   136   69  190 1    
   137   70   71 1    
   138   70   72 1    
   139   70  191 1    
   140   71  192 1    
   141   71  193 1    
   142   71  194 1    
   143   72   73 2    
   144   72   74 am   BACKBONE|DICT|INTERRES
   145   74   75 1    
   146   74  195 1    
   147   75   76 1    
   148   75   77 1    
   149   75  196 1    
   150   76  197 1    
   151   76  198 1    
   152   76  199 1    
   153   77   78 2    
   154   77   79 am   BACKBONE|DICT|INTERRES
   155   79   80 1    
   156   79  200 1    
   157   80   81 1    
   158   80   82 1    
   159   80  201 1    
   160   81  202 1    
   161   81  203 1    
   162   81  204 1    
   163   82   83 2    
   164   82   84 am   BACKBONE|DICT|INTERRES
   165   84   85 1    
   166   84  205 1    
   167   85   86 1    
   168   85   87 1    
   169   85  206 1    
   170   86  207 1    
   171   86  208 1    
   172   86  209 1    
   173   87   88 2    
   174   87   89 am   BACKBONE|DICT|INTERRES
   175   89   90 1    
   176   89  210 1    
   177   90   91 1    
   178   90   92 1    
   179   90  211 1    
   180   91  212 1    
   181   91  213 1    
   182   91  214 1    
   183   92   93 2    
   184   92   94 am   BACKBONE|DICT|INTERRES
   185   94   95 1    
   186   94  215 1    
   187   95   96 1    
   188   95   97 1    
   189   95  216 1    
   190   96  217 1    
   191   96  218 1    
   192   96  219 1    
   193   97   98 2    
   194   97   99 am   BACKBONE|DICT|INTERRES
   195   99  100 1    
   196   99  220 1    
   197  100  101 1    
   198  100  102 1    
   199  100  221 1    
   200  101  222 1    
   201  101  223 1    
   202  101  224 1    
   203  102  103 2    
   204  102  104 am   BACKBONE|DICT|INTERRES
   205  104  105 1    
   206  104  225 1    
   207  105  106 1    
   208  105  107 1    
   209  105  226 1    
   210  106  227 1    
   211  106  228 1    
   212  106  229 1    
   213  107  108 2    
   214  107  109 am   BACKBONE|DICT|INTERRES
   215  109  110 1    
   216  109  230 1    
   217  110  111 1    
   218  110  112 1    
   219  110  231 1    
   220  111  232 1    
   221  111  233 1    
   222  111  234 1    
   223  112  113 2    
   224  112  114 am   BACKBONE|DICT|INTERRES
   225  114  115 1    
   226  114  235 1    
   227  115  116 1    
   228  115  117 1    
   229  115  236 1    
   230  116  237 1    
   231  116  238 1    
   232  116  239 1    
   233  117  118 2    
   234  117  119 am   BACKBONE|DICT|INTERRES
   235  119  120 1    
   236  119  240 1    
   237  120  121 1    
   238  120  124 1    
   239  120  241 1    
   240  121  122 am   BACKBONE|DICT|INTERRES
   241  121  123 2    
   242  122  242 1    
   243  122  243 1    
   244  124  125 1    
   245  124  244 1    
   246  124  245 1    
   247  125  126 1    
   248  126  246 1    
   249  126  247 1    
@<TRIPOS>SUBSTRUCTURE
     1 UNK         1 GROUP             0       ****    0 ROOT    
