@<TRIPOS>MOLECULE
3R540
247   249    1
SMALL
USER_CHARGES


@<TRIPOS>ATOM
      1 CA          6.5446  -11.9478  -49.8028 C.3       0 UNK        -0.1800 
      2 C           6.3703  -13.2536  -50.5657 C.2       0 UNK         0.5000 
      3 O           6.7880  -13.3485  -51.7200 O.2       0 UNK        -0.5000 
      4 N           5.7596  -14.2524  -49.9219 N.am      1 UNK        -0.5000 
      5 CA          5.5349  -15.6013  -50.4443 C.3       1 UNK         0.1400 
      6 C6          4.0456  -15.8622  -50.8044 C.3       23 UNK        -0.0398 
      7 S7          3.3655  -14.7006  -52.0322 S.3       23 UNK        -0.2404 
      8 C8          2.2117  -13.7378  -51.0032 C.3       23 UNK        -0.0205 
      9 C9          0.8645  -14.4316  -50.8477 C.ar      23 UNK        -0.0193 
     10 C10        -0.0614  -14.3740  -51.8923 C.ar      23 UNK        -0.1150 
     11 C11        -1.3254  -14.9498  -51.7531 C.ar      23 UNK        -0.0193 
     12 C12        -1.6629  -15.5901  -50.5595 C.ar      23 UNK        -0.1150 
     13 C13        -0.7427  -15.6769  -49.5084 C.ar      23 UNK        -0.0193 
     14 C14         0.5208  -15.0904  -49.6608 C.ar      23 UNK        -0.1150 
     15 C15        -1.1121  -16.3517  -48.1884 C.3       23 UNK        -0.0205 
     16 S16        -2.1671  -17.8308  -48.3805 S.3       23 UNK        -0.2404 
     17 C17        -2.1539  -18.5232  -46.6944 C.3       23 UNK        -0.0398 
     18 CA         -1.4427  -19.8982  -46.6322 C.3       11 UNK         0.1400 
     19 N          -0.8331  -20.1271  -45.3225 N.am      11 UNK        -0.5000 
     20 C           0.1279  -21.0241  -45.0701 C.2       10 UNK         0.5000 
     21 O           0.6023  -21.7765  -45.9193 O.2       10 UNK        -0.5000 
     22 CA          0.6060  -21.1226  -43.6106 C.3       10 UNK         0.1400 
     23 CB          1.7041  -20.0863  -43.3425 C.3       10 UNK        -0.1800 
     24 N          -0.4852  -20.9371  -42.6510 N.am      10 UNK        -0.5000 
     25 C          -1.5023  -21.7981  -42.4990 C.2       9 UNK         0.5000 
     26 O          -1.5899  -22.8608  -43.1124 O.2       9 UNK        -0.5000 
     27 CA         -2.6440  -21.3783  -41.5537 C.3       9 UNK         0.1400 
     28 CB         -2.3424  -21.8228  -40.1151 C.3       9 UNK        -0.1800 
     29 N          -2.9181  -19.9397  -41.5645 N.am      9 UNK        -0.5000 
     30 C          -3.2451  -19.2131  -42.6432 C.2       8 UNK         0.5000 
     31 O          -3.3738  -19.6930  -43.7698 O.2       8 UNK        -0.5000 
     32 CA         -3.4385  -17.6960  -42.4472 C.3       8 UNK         0.1400 
     33 CB         -4.9201  -17.3217  -42.6037 C.3       8 UNK        -0.1800 
     34 N          -2.9524  -17.1850  -41.1605 N.am      8 UNK        -0.5000 
     35 C          -1.6657  -17.1004  -40.7989 C.2       7 UNK         0.5000 
     36 O          -0.7272  -17.4939  -41.4967 O.2       7 UNK        -0.5000 
     37 CA         -1.3954  -16.5264  -39.4015 C.3       7 UNK         0.1400 
     38 CB         -1.4302  -17.6424  -38.3446 C.3       7 UNK        -0.1800 
     39 N          -0.0795  -15.8974  -39.3888 N.am      7 UNK        -0.5000 
     40 C           0.2008  -14.6828  -38.9006 C.2       6 UNK         0.5000 
     41 O          -0.6283  -13.9689  -38.3343 O.2       6 UNK        -0.5000 
     42 CA          1.6487  -14.1684  -39.0598 C.3       6 UNK         0.1400 
     43 CB          2.3756  -14.1848  -37.7055 C.3       6 UNK        -0.1800 
     44 N           2.4489  -14.9227  -40.0298 N.am      6 UNK        -0.5000 
     45 C           2.2714  -14.8958  -41.3564 C.2       5 UNK         0.5000 
     46 O           1.4246  -14.1951  -41.9191 O.2       5 UNK        -0.5000 
     47 CA          3.1751  -15.8251  -42.1834 C.3       5 UNK         0.1400 
     48 CB          3.0353  -17.2923  -41.7280 C.3       5 UNK        -0.1800 
     49 N           2.8100  -15.6829  -43.5892 N.am      5 UNK        -0.5000 
     50 C           3.5149  -16.1052  -44.6415 C.2       4 UNK         0.5000 
     51 O           4.5900  -16.7033  -44.5566 O.2       4 UNK        -0.5000 
     52 CA          2.9345  -15.7587  -46.0237 C.3       4 UNK         0.1400 
     53 CB          3.5772  -14.4789  -46.5821 C.3       4 UNK        -0.1800 
     54 N           3.1307  -16.8569  -46.9691 N.am      4 UNK        -0.5000 
     55 C           2.3560  -17.9512  -46.9983 C.2       3 UNK         0.5000 
     56 O           1.4113  -18.1204  -46.2302 O.2       3 UNK        -0.5000 
     57 CA          2.6329  -19.0159  -48.0798 C.3       3 UNK         0.1400 
     58 CB          1.6396  -18.8536  -49.2437 C.3       3 UNK        -0.1800 
     59 N           3.9778  -18.9525  -48.6420 N.am      3 UNK        -0.5000 
     60 C           5.1173  -19.2966  -48.0277 C.2       2 UNK         0.5000 
     61 O           5.1702  -19.8192  -46.9150 O.2       2 UNK        -0.5000 
     62 CA          6.4193  -18.9631  -48.7921 C.3       2 UNK         0.1400 
     63 CB          6.9241  -20.1940  -49.5602 C.3       2 UNK        -0.1800 
     64 N           6.2548  -17.8419  -49.7306 N.am      2 UNK        -0.5000 
     65 C           5.9620  -16.5909  -49.3486 C.2       1 UNK         0.5000 
     66 O           5.9192  -16.2412  -48.1670 O.2       1 UNK        -0.5000 
     67 C          -2.3764  -21.0607  -47.0240 C.2       11 UNK         0.5000 
     68 O          -2.4607  -21.4157  -48.2017 O.2       11 UNK        -0.5000 
     69 N          -3.0366  -21.6574  -46.0218 N.am      12 UNK        -0.5000 
     70 CA         -3.8108  -22.8863  -46.1607 C.3       12 UNK         0.1400 
     71 CB         -4.6923  -23.0913  -44.9206 C.3       12 UNK        -0.1800 
     72 C          -2.9054  -24.1042  -46.4187 C.2       12 UNK         0.5000 
     73 O          -3.1811  -24.8702  -47.3404 O.2       12 UNK        -0.5000 
     74 N          -1.8195  -24.2376  -45.6421 N.am      13 UNK        -0.5000 
     75 CA         -0.8235  -25.3077  -45.7698 C.3       13 UNK         0.1400 
     76 CB          0.1709  -25.2286  -44.6020 C.3       13 UNK        -0.1800 
     77 C          -0.0773  -25.2944  -47.1179 C.2       13 UNK         0.5000 
     78 O           0.1807  -26.3586  -47.6808 O.2       13 UNK        -0.5000 
     79 N           0.2157  -24.0920  -47.6313 N.am      14 UNK        -0.5000 
     80 CA          0.7983  -23.8580  -48.9556 C.3       14 UNK         0.1400 
     81 CB          1.3917  -22.4415  -48.9857 C.3       14 UNK        -0.1800 
     82 C          -0.2014  -24.0462  -50.1172 C.2       14 UNK         0.5000 
     83 O           0.2068  -23.9630  -51.2752 O.2       14 UNK        -0.5000 
     84 N          -1.4849  -24.2626  -49.7939 N.am      15 UNK        -0.5000 
     85 CA         -2.6410  -24.4570  -50.6751 C.3       15 UNK         0.1400 
     86 CB         -2.4256  -25.6231  -51.6596 C.3       15 UNK        -0.1800 
     87 C          -3.1325  -23.1851  -51.3908 C.2       15 UNK         0.5000 
     88 O          -4.1813  -23.2379  -52.0322 O.2       15 UNK        -0.5000 
     89 N          -2.4197  -22.0612  -51.2417 N.am      16 UNK        -0.5000 
     90 CA         -2.7304  -20.7670  -51.8501 C.3       16 UNK         0.1400 
     91 CB         -1.6154  -19.7677  -51.5103 C.3       16 UNK        -0.1800 
     92 C          -4.1137  -20.2221  -51.4515 C.2       16 UNK         0.5000 
     93 O          -4.8409  -19.7123  -52.3104 O.2       16 UNK        -0.5000 
     94 N          -4.4639  -20.3845  -50.1689 N.am      17 UNK        -0.5000 
     95 CA         -5.7860  -20.0631  -49.6379 C.3       17 UNK         0.1400 
     96 CB         -5.6642  -19.6195  -48.1723 C.3       17 UNK        -0.1800 
     97 C          -6.7572  -21.2492  -49.7588 C.2       17 UNK         0.5000 
     98 O          -7.9153  -21.0407  -50.1180 O.2       17 UNK        -0.5000 
     99 N          -6.2846  -22.4672  -49.4502 N.am      18 UNK        -0.5000 
    100 CA        -7.1292  -23.6610  -49.3190 C.3       18 UNK         0.1400 
    101 CB        -6.3655  -24.7762  -48.5912 C.3       18 UNK        -0.1800 
    102 C         -7.7047  -24.1758  -50.6498 C.2       18 UNK         0.5000 
    103 O         -8.8625  -24.5943  -50.6798 O.2       18 UNK        -0.5000 
    104 N         -6.9098  -24.1155  -51.7270 N.am      19 UNK        -0.5000 
    105 CA        -7.3493  -24.4502  -53.0855 C.3       19 UNK         0.1400 
    106 CB        -6.1595  -25.0159  -53.8790 C.3       19 UNK        -0.1800 
    107 C         -7.9588  -23.2350  -53.8126 C.2       19 UNK         0.5000 
    108 O         -8.4347  -23.3868  -54.9382 O.2       19 UNK        -0.5000 
    109 N         -7.9154  -22.0570  -53.1688 N.am      20 UNK        -0.5000 
    110 CA        -8.3502  -20.7477  -53.6615 C.3       20 UNK         0.1400 
    111 CB        -9.8829  -20.7070  -53.8315 C.3       20 UNK        -0.1800 
    112 C         -7.5837  -20.3045  -54.9246 C.2       20 UNK         0.5000 
    113 O         -8.1670  -19.6913  -55.8208 O.2       20 UNK        -0.5000 
    114 N         -6.2814  -20.6250  -54.9705 N.am      21 UNK        -0.5000 
    115 CA        -5.3693  -20.2383  -56.0486 C.3       21 UNK         0.1400 
    116 CB        -4.0539  -21.0179  -55.9154 C.3       21 UNK        -0.1800 
    117 C         -5.1132  -18.7203  -56.0685 C.2       21 UNK         0.5000 
    118 O         -5.0070  -18.1367  -57.1481 O.2       21 UNK        -0.5000 
    119 N         -5.0782  -18.1083  -54.8793 N.am      22 UNK        -0.5000 
    120 CA        -5.1107  -16.6526  -54.6902 C.3       22 UNK         0.1400 
    121 C         -5.7312  -16.2032  -53.3368 C.2       22 UNK         0.5000 
    122 N         -5.9247  -17.0753  -52.3530 N.am      22 UNK        -0.7600 
    123 O         -6.0728  -15.0338  -53.1837 O.2       22 UNK        -0.5000 
    124 C124       -3.7595  -15.9565  -55.0060 C.3       23 UNK        -0.0398 
    125 S125       -2.4059  -16.3837  -53.8566 S.3       23 UNK        -0.2404 
    126 C126       -2.3419  -14.8532  -52.8758 C.3       23 UNK        -0.0205 
    127 H127        6.0459  -11.1356  -50.3318 H         1 UNK         0.0600 
    128 H128        7.6028  -11.7013  -49.7164 H         1 UNK         0.0600 
    129 H129        6.1255  -12.0060  -48.7979 H         1 UNK         0.0600 
    130 H130        5.5233  -14.1485  -48.9441 H         1 UNK         0.3000 
    131 H131        6.1586  -15.7789  -51.3229 H         1 UNK         0.0600 
    132 H132        3.9285  -16.8634  -51.2221 H         1 UNK         0.0800 
    133 H133        3.4217  -15.8377  -49.9094 H         1 UNK         0.0800 
    134 H134        2.6608  -13.5299  -50.0310 H         1 UNK         0.0800 
    135 H135        2.0583  -12.7656  -51.4739 H         1 UNK         0.0800 
    136 H136        0.2001  -13.8670  -52.8107 H         1 UNK         0.1150 
    137 H137       -2.6492  -16.0195  -50.4548 H         1 UNK         0.1150 
    138 H138        1.2306  -15.1313  -48.8470 H         1 UNK         0.1150 
    139 H139       -0.2057  -16.6371  -47.6572 H         1 UNK         0.0800 
    140 H140       -1.6284  -15.6272  -47.5577 H         1 UNK         0.0800 
    141 H141       -3.1774  -18.5811  -46.3196 H         1 UNK         0.0800 
    142 H142       -1.6458  -17.8116  -46.0420 H         1 UNK         0.0800 
    143 H143       -0.6249  -19.8980  -47.3522 H         1 UNK         0.0600 
    144 H144       -1.2079  -19.5915  -44.5535 H         1 UNK         0.3000 
    145 H145        1.0297  -22.1174  -43.4598 H         1 UNK         0.0600 
    146 H146        2.0862  -20.1679  -42.3250 H         1 UNK         0.0600 
    147 H147        2.5470  -20.2248  -44.0211 H         1 UNK         0.0600 
    148 H148        1.3350  -19.0702  -43.4885 H         1 UNK         0.0600 
    149 H149       -0.4942  -20.0730  -42.1262 H         1 UNK         0.3000 
    150 H150       -3.5501  -21.8877  -41.8877 H         1 UNK         0.0600 
    151 H151       -1.4657  -21.3143  -39.7117 H         1 UNK         0.0600 
    152 H152       -2.1501  -22.8957  -40.0699 H         1 UNK         0.0600 
    153 H153       -3.1842  -21.6172  -39.4536 H         1 UNK         0.0600 
    154 H154       -2.8397  -19.4593  -40.6812 H         1 UNK         0.3000 
    155 H155       -2.8767  -17.1990  -43.2408 H         1 UNK         0.0600 
    156 H156       -5.5348  -17.7790  -41.8274 H         1 UNK         0.0600 
    157 H157       -5.3087  -17.6534  -43.5677 H         1 UNK         0.0600 
    158 H158       -5.0622  -16.2420  -42.5537 H         1 UNK         0.0600 
    159 H159       -3.6607  -16.8577  -40.5189 H         1 UNK         0.3000 
    160 H160       -2.1725  -15.7929  -39.1763 H         1 UNK         0.0600 
    161 H161       -0.6830  -18.4115  -38.5458 H         1 UNK         0.0600 
    162 H162       -2.4057  -18.1293  -38.3175 H         1 UNK         0.0600 
    163 H163       -1.2392  -17.2444  -37.3479 H         1 UNK         0.0600 
    164 H164        0.6345  -16.3922  -39.9048 H         1 UNK         0.3000 
    165 H165        1.5877  -13.1327  -39.4007 H         1 UNK         0.0600 
    166 H166        3.3738  -13.7541  -37.7874 H         1 UNK         0.0600 
    167 H167        1.8324  -13.6002  -36.9617 H         1 UNK         0.0600 
    168 H168        2.4767  -15.1985  -37.3157 H         1 UNK         0.0600 
    169 H169        3.1659  -15.5204  -39.6443 H         1 UNK         0.3000 
    170 H170        4.2083  -15.4968  -42.0546 H         1 UNK         0.0600 
    171 H171        1.9948  -17.6153  -41.7483 H         1 UNK         0.0600 
    172 H172        3.6096  -17.9687  -42.3605 H         1 UNK         0.0600 
    173 H173        3.4003  -17.4303  -40.7101 H         1 UNK         0.0600 
    174 H174        1.9596  -15.1487  -43.7250 H         1 UNK         0.3000 
    175 H175        1.8620  -15.5758  -45.9233 H         1 UNK         0.0600 
    176 H176        4.6642  -14.5532  -46.6139 H         1 UNK         0.0600 
    177 H177        3.2231  -14.2601  -47.5892 H         1 UNK         0.0600 
    178 H178        3.3313  -13.6196  -45.9573 H         1 UNK         0.0600 
    179 H179        3.9719  -16.8209  -47.5297 H         1 UNK         0.3000 
    180 H180        2.4887  -19.9960  -47.6215 H         1 UNK         0.0600 
    181 H181        1.7552  -17.8904  -49.7419 H         1 UNK         0.0600 
    182 H182        0.6089  -18.9108  -48.9012 H         1 UNK         0.0600 
    183 H183        1.7726  -19.6335  -49.9931 H         1 UNK         0.0600 
    184 H184        4.0491  -18.5764  -49.5739 H         1 UNK         0.3000 
    185 H185        7.1740  -18.6838  -48.0537 H         1 UNK         0.0600 
    186 H186        7.0801  -21.0373  -48.8861 H         1 UNK         0.0600 
    187 H187        6.2139  -20.5120  -50.3244 H         1 UNK         0.0600 
    188 H188        7.8769  -19.9906  -50.0494 H         1 UNK         0.0600 
    189 H189        6.2913  -18.0688  -50.7146 H         1 UNK         0.3000 
    190 H190       -2.9636  -21.2576  -45.0931 H         1 UNK         0.3000 
    191 H191       -4.4686  -22.7702  -47.0232 H         1 UNK         0.0600 
    192 H192       -5.3571  -22.2411  -44.7663 H         1 UNK         0.0600 
    193 H193       -5.3173  -23.9784  -45.0305 H         1 UNK         0.0600 
    194 H194       -4.0988  -23.2195  -44.0159 H         1 UNK         0.0600 
    195 H195       -1.6878  -23.5924  -44.8676 H         1 UNK         0.3000 
    196 H196       -1.3539  -26.2594  -45.6982 H         1 UNK         0.0600 
    197 H197        0.9055  -26.0327  -44.6586 H         1 UNK         0.0600 
    198 H198       -0.3386  -25.3213  -43.6428 H         1 UNK         0.0600 
    199 H199        0.7163  -24.2849  -44.6025 H         1 UNK         0.0600 
    200 H200        0.0512  -23.2672  -47.0611 H         1 UNK         0.3000 
    201 H201        1.6105  -24.5714  -49.1087 H         1 UNK         0.0600 
    202 H202        1.8610  -22.2274  -49.9467 H         1 UNK         0.0600 
    203 H203        2.1582  -22.3234  -48.2199 H         1 UNK         0.0600 
    204 H204        0.6251  -21.6846  -48.8152 H         1 UNK         0.0600 
    205 H205       -1.7112  -24.3015  -48.8072 H         1 UNK         0.3000 
    206 H206       -3.4525  -24.7499  -50.0126 H         1 UNK         0.0600 
    207 H207       -2.1019  -26.5245  -51.1392 H         1 UNK         0.0600 
    208 H208       -3.3515  -25.8660  -52.1821 H         1 UNK         0.0600 
    209 H209       -1.6809  -25.3851  -52.4192 H         1 UNK         0.0600 
    210 H210       -1.6053  -22.0985  -50.6473 H         1 UNK         0.3000 
    211 H211       -2.7360  -20.9088  -52.9299 H         1 UNK         0.0600 
    212 H212       -1.4374  -19.7187  -50.4367 H         1 UNK         0.0600 
    213 H213       -1.8641  -18.7615  -51.8511 H         1 UNK         0.0600 
    214 H214       -0.6768  -20.0499  -51.9872 H         1 UNK         0.0600 
    215 H215       -3.7841  -20.7879  -49.5308 H         1 UNK         0.3000 
    216 H216       -6.2099  -19.2275  -50.1986 H         1 UNK         0.0600 
    217 H217       -6.6405  -19.3573  -47.7627 H         1 UNK         0.0600 
    218 H218       -5.0308  -18.7382  -48.0811 H         1 UNK         0.0600 
    219 H219       -5.2468  -20.4034  -47.5414 H         1 UNK         0.0600 
    220 H220       -5.3117  -22.5630  -49.2057 H         1 UNK         0.3000 
    221 H221       -7.9799  -23.3891  -48.6899 H         1 UNK         0.0600 
    222 H222       -5.4819  -25.0911  -49.1429 H         1 UNK         0.0600 
    223 H223       -6.0535  -24.4612  -47.5965 H         1 UNK         0.0600 
    224 H224       -6.9956  -25.6572  -48.4622 H         1 UNK         0.0600 
    225 H225       -5.9614  -23.7572  -51.6435 H         1 UNK         0.3000 
    226 H226       -8.1170  -25.2254  -53.0414 H         1 UNK         0.0600 
    227 H227       -6.4873  -25.4076  -54.8426 H         1 UNK         0.0600 
    228 H228       -5.4065  -24.2539  -54.0807 H         1 UNK         0.0600 
    229 H229       -5.6780  -25.8340  -53.3434 H         1 UNK         0.0600 
    230 H230       -7.5344  -22.0581  -52.2328 H         1 UNK         0.3000 
    231 H231       -8.0873  -20.0288  -52.8840 H         1 UNK         0.0600 
    232 H232      -10.2202  -21.3602  -54.6367 H         1 UNK         0.0600 
    233 H233      -10.2235  -19.6976  -54.0650 H         1 UNK         0.0600 
    234 H234      -10.3878  -21.0143  -52.9156 H         1 UNK         0.0600 
    235 H235       -5.8759  -21.1060  -54.1802 H         1 UNK         0.3000 
    236 H236       -5.8333  -20.5139  -56.9980 H         1 UNK         0.0600 
    237 H237       -4.2297  -22.0935  -55.8850 H         1 UNK         0.0600 
    238 H238       -3.3978  -20.8178  -56.7634 H         1 UNK         0.0600 
    239 H239       -3.5132  -20.7378  -55.0135 H         1 UNK         0.0600 
    240 H240       -5.1420  -18.6723  -54.0408 H         1 UNK         0.3000 
    241 H241       -5.8244  -16.2773  -55.4266 H         1 UNK         0.0600 
    242 H242       -5.5851  -18.0305  -52.3961 H         1 UNK         0.3800 
    243 H243       -6.3437  -16.7415  -51.5004 H         1 UNK         0.3800 
    244 H244       -3.4338  -16.2208  -56.0123 H         1 UNK         0.0800 
    245 H245       -3.8953  -14.8741  -55.0288 H         1 UNK         0.0800 
    246 H246       -3.3259  -14.6449  -52.4538 H         1 UNK         0.0800 
    247 H247       -2.1036  -14.0135  -53.5306 H         1 UNK         0.0800 
@<TRIPOS>BOND
     1    1    2 1    
     2    1  127 1    
     3    1  128 1    
     4    1  129 1    
     5    2    3 2    
     6    2    4 am   BACKBONE|DICT|INTERRES
     7    4    5 1    
     8    4  130 1    
     9    5    6 1    
    10    5   65 1    
    11    5  131 1    
    12    6    7 1    
    13    6  132 1    
    14    6  133 1    
    15    7    8 1    
    16    8    9 1    
    17    8  134 1    
    18    8  135 1    
    19    9   10 ar   
    20    9   14 ar   
    21   10   11 ar   
    22   10  136 1    
    23   11   12 ar   
    24   11  126 1    
    25   12   13 ar   
    26   12  137 1    
    27   13   14 ar   
    28   13   15 1    
    29   14  138 1    
    30   15   16 1    
    31   15  139 1    
    32   15  140 1    
    33   16   17 1    
    34   17   18 1    
    35   17  141 1    
    36   17  142 1    
    37   18   19 1    
    38   18   67 1    
    39   18  143 1    
    40   19   20 am   BACKBONE|DICT|INTERRES
    41   19  144 1    
    42   20   21 2    
    43   20   22 1    
    44   22   23 1    
    45   22   24 1    
    46   22  145 1    
    47   23  146 1    
    48   23  147 1    
    49   23  148 1    
    50   24   25 am   BACKBONE|DICT|INTERRES
    51   24  149 1    
    52   25   26 2    
    53   25   27 1    
    54   27   28 1    
    55   27   29 1    
    56   27  150 1    
    57   28  151 1    
    58   28  152 1    
    59   28  153 1    
    60   29   30 am   BACKBONE|DICT|INTERRES
    61   29  154 1    
    62   30   31 2    
    63   30   32 1    
    64   32   33 1    
    65   32   34 1    
    66   32  155 1    
    67   33  156 1    
    68   33  157 1    
    69   33  158 1    
    70   34   35 am   BACKBONE|DICT|INTERRES
    71   34  159 1    
    72   35   36 2    
    73   35   37 1    
    74   37   38 1    
    75   37   39 1    
    76   37  160 1    
    77   38  161 1    
    78   38  162 1    
    79   38  163 1    
    80   39   40 am   BACKBONE|DICT|INTERRES
    81   39  164 1    
    82   40   41 2    
    83   40   42 1    
    84   42   43 1    
    85   42   44 1    
    86   42  165 1    
    87   43  166 1    
    88   43  167 1    
    89   43  168 1    
    90   44   45 am   BACKBONE|DICT|INTERRES
    91   44  169 1    
    92   45   46 2    
    93   45   47 1    
    94   47   48 1    
    95   47   49 1    
    96   47  170 1    
    97   48  171 1    
    98   48  172 1    
    99   48  173 1    
   100   49   50 am   BACKBONE|DICT|INTERRES
   101   49  174 1    
   102   50   51 2    
   103   50   52 1    
   104   52   53 1    
   105   52   54 1    
   106   52  175 1    
   107   53  176 1    
   108   53  177 1    
   109   53  178 1    
   110   54   55 am   BACKBONE|DICT|INTERRES
   111   54  179 1    
   112   55   56 2    
   113   55   57 1    
   114   57   58 1    
   115   57   59 1    
   116   57  180 1    
   117   58  181 1    
   118   58  182 1    
   119   58  183 1    
   120   59   60 am   BACKBONE|DICT|INTERRES
   121   59  184 1    
   122   60   61 2    
   123   60   62 1    
   124   62   63 1    
   125   62   64 1    
   126   62  185 1    
   127   63  186 1    
   128   63  187 1    
   129   63  188 1    
   130   64   65 am   BACKBONE|DICT|INTERRES
   131   64  189 1    
   132   65   66 2    
   133   67   68 2    
   134   67   69 am   BACKBONE|DICT|INTERRES
   135   69   70 1    
   136   69  190 1    
   137   70   71 1    
   138   70   72 1    
   139   70  191 1    
   140   71  192 1    
   141   71  193 1    
   142   71  194 1    
   143   72   73 2    
   144   72   74 am   BACKBONE|DICT|INTERRES
   145   74   75 1    
   146   74  195 1    
   147   75   76 1    
   148   75   77 1    
   149   75  196 1    
   150   76  197 1    
   151   76  198 1    
   152   76  199 1    
   153   77   78 2    
   154   77   79 am   BACKBONE|DICT|INTERRES
   155   79   80 1    
   156   79  200 1    
   157   80   81 1    
   158   80   82 1    
   159   80  201 1    
   160   81  202 1    
   161   81  203 1    
   162   81  204 1    
   163   82   83 2    
   164   82   84 am   BACKBONE|DICT|INTERRES
   165   84   85 1    
   166   84  205 1    
   167   85   86 1    
   168   85   87 1    
   169   85  206 1    
   170   86  207 1    
   171   86  208 1    
   172   86  209 1    
   173   87   88 2    
   174   87   89 am   BACKBONE|DICT|INTERRES
   175   89   90 1    
   176   89  210 1    
   177   90   91 1    
   178   90   92 1    
   179   90  211 1    
   180   91  212 1    
   181   91  213 1    
   182   91  214 1    
   183   92   93 2    
   184   92   94 am   BACKBONE|DICT|INTERRES
   185   94   95 1    
   186   94  215 1    
   187   95   96 1    
   188   95   97 1    
   189   95  216 1    
   190   96  217 1    
   191   96  218 1    
   192   96  219 1    
   193   97   98 2    
   194   97   99 am   BACKBONE|DICT|INTERRES
   195   99  100 1    
   196   99  220 1    
   197  100  101 1    
   198  100  102 1    
   199  100  221 1    
   200  101  222 1    
   201  101  223 1    
   202  101  224 1    
   203  102  103 2    
   204  102  104 am   BACKBONE|DICT|INTERRES
   205  104  105 1    
   206  104  225 1    
   207  105  106 1    
   208  105  107 1    
   209  105  226 1    
   210  106  227 1    
   211  106  228 1    
   212  106  229 1    
   213  107  108 2    
   214  107  109 am   BACKBONE|DICT|INTERRES
   215  109  110 1    
   216  109  230 1    
   217  110  111 1    
   218  110  112 1    
   219  110  231 1    
   220  111  232 1    
   221  111  233 1    
   222  111  234 1    
   223  112  113 2    
   224  112  114 am   BACKBONE|DICT|INTERRES
   225  114  115 1    
   226  114  235 1    
   227  115  116 1    
   228  115  117 1    
   229  115  236 1    
   230  116  237 1    
   231  116  238 1    
   232  116  239 1    
   233  117  118 2    
   234  117  119 am   BACKBONE|DICT|INTERRES
   235  119  120 1    
   236  119  240 1    
   237  120  121 1    
   238  120  124 1    
   239  120  241 1    
   240  121  122 am   BACKBONE|DICT|INTERRES
   241  121  123 2    
   242  122  242 1    
   243  122  243 1    
   244  124  125 1    
   245  124  244 1    
   246  124  245 1    
   247  125  126 1    
   248  126  246 1    
   249  126  247 1    
@<TRIPOS>SUBSTRUCTURE
     1 UNK         1 GROUP             0       ****    0 ROOT    
