@<TRIPOS>MOLECULE
3R540
247   249    1
SMALL
USER_CHARGES


@<TRIPOS>ATOM
      1 CA         -6.6192  -15.9193  -51.7143 C.3       0 UNK        -0.1800 
      2 C          -5.4300  -15.0352  -51.3761 C.2       0 UNK         0.5000 
      3 O          -5.5514  -13.8100  -51.4006 O.2       0 UNK        -0.5000 
      4 N          -4.2786  -15.6510  -51.0819 N.am      1 UNK        -0.5000 
      5 CA         -3.0431  -14.9680  -50.6937 C.3       1 UNK         0.1400 
      6 C6         -1.8172  -15.9038  -50.8500 C.3       23 UNK        -0.0398 
      7 S7         -0.3128  -14.9833  -51.3202 S.3       23 UNK        -0.2404 
      8 C8          0.8781  -15.4959  -50.0345 C.3       23 UNK        -0.0205 
      9 C9          1.1898  -16.9919  -49.9991 C.ar      23 UNK        -0.0193 
     10 C10         1.1348  -17.7887  -51.1482 C.ar      23 UNK        -0.1150 
     11 C11         1.4653  -19.1451  -51.0993 C.ar      23 UNK        -0.0193 
     12 C12         1.8380  -19.7133  -49.8782 C.ar      23 UNK        -0.1150 
     13 C13         1.8857  -18.9383  -48.7162 C.ar      23 UNK        -0.0193 
     14 C14         1.5717  -17.5769  -48.7894 C.ar      23 UNK        -0.1150 
     15 C15         2.3175  -19.5774  -47.4015 C.3       23 UNK        -0.0205 
     16 S16         1.3041  -19.0893  -45.9660 S.3       23 UNK        -0.2404 
     17 C17        -0.3393  -19.7760  -46.3671 C.3       23 UNK        -0.0398 
     18 CA         -0.4164  -21.3208  -46.3251 C.3       11 UNK         0.1400 
     19 N           0.2311  -21.8985  -45.1448 N.am      11 UNK        -0.5000 
     20 C           0.5593  -23.1903  -45.0182 C.2       10 UNK         0.5000 
     21 O           0.3536  -24.0336  -45.8905 O.2       10 UNK        -0.5000 
     22 CA          1.1846  -23.6186  -43.6791 C.3       10 UNK         0.1400 
     23 CB          2.7080  -23.4508  -43.7059 C.3       10 UNK        -0.1800 
     24 N           0.6325  -22.8828  -42.5406 N.am      10 UNK        -0.5000 
     25 C          -0.6118  -23.0661  -42.0804 C.2       9 UNK         0.5000 
     26 O          -1.4143  -23.8556  -42.5793 O.2       9 UNK        -0.5000 
     27 CA         -1.0452  -22.1992  -40.8869 C.3       9 UNK         0.1400 
     28 CB         -0.4147  -22.7104  -39.5828 C.3       9 UNK        -0.1800 
     29 N          -0.7493  -20.7741  -41.0403 N.am      9 UNK        -0.5000 
     30 C          -1.1691  -19.9861  -42.0365 C.2       8 UNK         0.5000 
     31 O          -1.7383  -20.4012  -43.0446 O.2       8 UNK        -0.5000 
     32 CA         -0.9337  -18.4748  -41.8856 C.3       8 UNK         0.1400 
     33 CB         -1.9061  -17.8498  -40.8677 C.3       8 UNK        -0.1800 
     34 N           0.4544  -18.0871  -41.6236 N.am      8 UNK        -0.5000 
     35 C           1.2003  -18.3156  -40.5354 C.2       7 UNK         0.5000 
     36 O           0.8036  -18.9483  -39.5538 O.2       7 UNK        -0.5000 
     37 CA          2.6290  -17.7320  -40.5571 C.3       7 UNK         0.1400 
     38 CB          3.5002  -18.2519  -39.3944 C.3       7 UNK        -0.1800 
     39 N           3.3379  -17.9121  -41.8304 N.am      7 UNK        -0.5000 
     40 C           3.5926  -19.0689  -42.4627 C.2       6 UNK         0.5000 
     41 O           3.1193  -20.1584  -42.1340 O.2       6 UNK        -0.5000 
     42 CA          4.5710  -18.9737  -43.6459 C.3       6 UNK         0.1400 
     43 CB          4.6110  -20.2301  -44.5340 C.3       6 UNK        -0.1800 
     44 N           4.2988  -17.7846  -44.4533 N.am      6 UNK        -0.5000 
     45 C           5.2451  -17.0200  -45.0121 C.2       5 UNK         0.5000 
     46 O           6.4509  -17.2603  -44.9351 O.2       5 UNK        -0.5000 
     47 CA          4.7847  -15.7671  -45.7824 C.3       5 UNK         0.1400 
     48 CB          4.7055  -16.0676  -47.2867 C.3       5 UNK        -0.1800 
     49 N           3.5079  -15.1983  -45.3403 N.am      5 UNK        -0.5000 
     50 C           3.2557  -14.6931  -44.1234 C.2       4 UNK         0.5000 
     51 O           4.0405  -14.7597  -43.1768 O.2       4 UNK        -0.5000 
     52 CA          1.8993  -13.9864  -43.9293 C.3       4 UNK         0.1400 
     53 CB          2.0671  -12.4640  -44.0488 C.3       4 UNK        -0.1800 
     54 N           0.8688  -14.4211  -44.8750 N.am      4 UNK        -0.5000 
     55 C           0.2594  -15.6120  -44.8332 C.2       3 UNK         0.5000 
     56 O           0.5572  -16.4775  -44.0107 O.2       3 UNK        -0.5000 
     57 CA         -0.8239  -15.9075  -45.8957 C.3       3 UNK         0.1400 
     58 CB         -2.1133  -16.4845  -45.2768 C.3       3 UNK        -0.1800 
     59 N          -1.1488  -14.7869  -46.7879 N.am      3 UNK        -0.5000 
     60 C          -1.7859  -13.6451  -46.4854 C.2       2 UNK         0.5000 
     61 O          -2.0795  -13.2995  -45.3413 O.2       2 UNK        -0.5000 
     62 CA         -2.1573  -12.7295  -47.6704 C.3       2 UNK         0.1400 
     63 CB         -1.1367  -11.5879  -47.7977 C.3       2 UNK        -0.1800 
     64 N          -2.2558  -13.4205  -48.9625 N.am      2 UNK        -0.5000 
     65 C          -3.1386  -14.3835  -49.2661 C.2       1 UNK         0.5000 
     66 O          -3.9669  -14.8259  -48.4667 O.2       1 UNK        -0.5000 
     67 C          -1.8794  -21.7937  -46.4376 C.2       11 UNK         0.5000 
     68 O          -2.3404  -22.0932  -47.5381 O.2       11 UNK        -0.5000 
     69 N          -2.5719  -21.8845  -45.2936 N.am      12 UNK        -0.5000 
     70 CA         -3.9188  -22.4356  -45.1676 C.3       12 UNK         0.1400 
     71 CB         -4.4774  -22.1194  -43.7729 C.3       12 UNK        -0.1800 
     72 C          -3.9605  -23.9468  -45.4506 C.2       12 UNK         0.5000 
     73 O          -4.8736  -24.4001  -46.1390 O.2       12 UNK        -0.5000 
     74 N          -2.9530  -24.6924  -44.9715 N.am      13 UNK        -0.5000 
     75 CA         -2.7732  -26.1214  -45.2515 C.3       13 UNK         0.1400 
     76 CB         -1.6416  -26.6833  -44.3785 C.3       13 UNK        -0.1800 
     77 C          -2.5094  -26.4117  -46.7426 C.2       13 UNK         0.5000 
     78 O          -3.0058  -27.4095  -47.2661 O.2       13 UNK        -0.5000 
     79 N          -1.7756  -25.5097  -47.4087 N.am      14 UNK        -0.5000 
     80 CA         -1.5458  -25.5106  -48.8558 C.3       14 UNK         0.1400 
     81 CB         -0.3123  -24.6420  -49.1557 C.3       14 UNK        -0.1800 
     82 C          -2.7599  -25.0175  -49.6744 C.2       14 UNK         0.5000 
     83 O          -2.7270  -25.1063  -50.9017 O.2       14 UNK        -0.5000 
     84 N          -3.7830  -24.4789  -48.9923 N.am      15 UNK        -0.5000 
     85 CA         -5.0038  -23.8462  -49.5081 C.3       15 UNK         0.1400 
     86 CB         -5.8250  -24.8200  -50.3764 C.3       15 UNK        -0.1800 
     87 C          -4.7656  -22.4996  -50.2200 C.2       15 UNK         0.5000 
     88 O          -5.7111  -21.9258  -50.7608 O.2       15 UNK        -0.5000 
     89 N          -3.5336  -21.9770  -50.1753 N.am      16 UNK        -0.5000 
     90 CA         -3.1089  -20.7330  -50.8161 C.3       16 UNK         0.1400 
     91 CB         -1.5922  -20.5900  -50.6823 C.3       16 UNK        -0.1800 
     92 C          -3.8057  -19.4836  -50.2579 C.2       16 UNK         0.5000 
     93 O          -4.0070  -18.5205  -50.9985 O.2       16 UNK        -0.5000 
     94 N          -4.2146  -19.5487  -48.9853 N.am      17 UNK        -0.5000 
     95 CA         -5.0206  -18.5353  -48.3035 C.3       17 UNK         0.1400 
     96 CB         -5.0986  -18.8982  -46.8120 C.3       17 UNK        -0.1800 
     97 C          -6.4361  -18.3543  -48.8997 C.2       17 UNK         0.5000 
     98 O          -7.0705  -17.3369  -48.6223 O.2       17 UNK        -0.5000 
     99 N          -6.9020  -19.3242  -49.7013 N.am      18 UNK        -0.5000 
    100 CA        -8.1728  -19.2821  -50.4246 C.3       18 UNK         0.1400 
    101 CB        -9.0368  -20.4757  -49.9873 C.3       18 UNK        -0.1800 
    102 C         -7.9600  -19.3056  -51.9492 C.2       18 UNK         0.5000 
    103 O         -8.6540  -18.5832  -52.6648 O.2       18 UNK        -0.5000 
    104 N         -7.0196  -20.1330  -52.4252 N.am      19 UNK        -0.5000 
    105 CA        -6.7953  -20.3968  -53.8471 C.3       19 UNK         0.1400 
    106 CB        -6.1918  -21.8034  -53.9943 C.3       19 UNK        -0.1800 
    107 C         -5.8907  -19.3698  -54.5514 C.2       19 UNK         0.5000 
    108 O         -5.9822  -19.2498  -55.7735 O.2       19 UNK        -0.5000 
    109 N         -5.0110  -18.6890  -53.7965 N.am      20 UNK        -0.5000 
    110 CA        -3.9402  -17.8045  -54.2872 C.3       20 UNK         0.1400 
    111 CB        -4.5203  -16.5306  -54.9356 C.3       20 UNK        -0.1800 
    112 C         -2.9390  -18.5447  -55.2050 C.2       20 UNK         0.5000 
    113 O         -2.5092  -18.0079  -56.2277 O.2       20 UNK        -0.5000 
    114 N         -2.6039  -19.7845  -54.8169 N.am      21 UNK        -0.5000 
    115 CA        -1.8711  -20.7862  -55.6014 C.3       21 UNK         0.1400 
    116 CB        -1.7509  -22.0652  -54.7567 C.3       21 UNK        -0.1800 
    117 C         -0.4828  -20.3598  -56.1224 C.2       21 UNK         0.5000 
    118 O         -0.0349  -20.8857  -57.1422 O.2       21 UNK        -0.5000 
    119 N          0.1651  -19.4233  -55.4222 N.am      22 UNK        -0.5000 
    120 CA         1.4622  -18.8363  -55.7950 C.3       22 UNK         0.1400 
    121 C          1.3433  -17.6552  -56.8053 C.2       22 UNK         0.5000 
    122 N          0.1522  -17.1963  -57.1747 N.am      22 UNK        -0.7600 
    123 O          2.3578  -17.1492  -57.2772 O.2       22 UNK        -0.5000 
    124 C124        2.2847  -18.4244  -54.5443 C.3       23 UNK        -0.0398 
    125 S125        2.7622  -19.8396  -53.4870 S.3       23 UNK        -0.2404 
    126 C126        1.3531  -20.0147  -52.3446 C.3       23 UNK        -0.0205 
    127 H127       -7.3845  -15.8351  -50.9432 H         1 UNK         0.0600 
    128 H128       -6.3213  -16.9635  -51.7908 H         1 UNK         0.0600 
    129 H129       -7.0588  -15.6219  -52.6661 H         1 UNK         0.0600 
    130 H130       -4.2479  -16.6665  -51.0463 H         1 UNK         0.3000 
    131 H131       -2.9286  -14.1281  -51.3831 H         1 UNK         0.0600 
    132 H132       -1.6503  -16.5074  -49.9556 H         1 UNK         0.0800 
    133 H133       -1.9881  -16.6221  -51.6521 H         1 UNK         0.0800 
    134 H134        1.8133  -14.9606  -50.2031 H         1 UNK         0.0800 
    135 H135        0.5084  -15.1640  -49.0652 H         1 UNK         0.0800 
    136 H136        0.8246  -17.3524  -52.0829 H         1 UNK         0.1150 
    137 H137        2.0853  -20.7646  -49.8325 H         1 UNK         0.1150 
    138 H138        1.6310  -16.9687  -47.8989 H         1 UNK         0.1150 
    139 H139        3.3511  -19.2894  -47.2073 H         1 UNK         0.0800 
    140 H140        2.3153  -20.6656  -47.4775 H         1 UNK         0.0800 
    141 H141       -0.6513  -19.4026  -47.3441 H         1 UNK         0.0800 
    142 H142       -1.0357  -19.3525  -45.6438 H         1 UNK         0.0800 
    143 H143        0.1090  -21.6988  -47.2045 H         1 UNK         0.0600 
    144 H144        0.4096  -21.2700  -44.3753 H         1 UNK         0.3000 
    145 H145        0.9684  -24.6798  -43.5397 H         1 UNK         0.0600 
    146 H146        3.1476  -23.9672  -44.5603 H         1 UNK         0.0600 
    147 H147        3.1661  -23.8594  -42.8051 H         1 UNK         0.0600 
    148 H148        2.9851  -22.4013  -43.7740 H         1 UNK         0.0600 
    149 H149        1.2271  -22.1938  -42.0996 H         1 UNK         0.3000 
    150 H150       -2.1292  -22.2934  -40.7967 H         1 UNK         0.0600 
    151 H151        0.6688  -22.5845  -39.5828 H         1 UNK         0.0600 
    152 H152       -0.6239  -23.7708  -39.4353 H         1 UNK         0.0600 
    153 H153       -0.8124  -22.1780  -38.7186 H         1 UNK         0.0600 
    154 H154       -0.2428  -20.3219  -40.2832 H         1 UNK         0.3000 
    155 H155       -1.1724  -18.0382  -42.8516 H         1 UNK         0.0600 
    156 H156       -1.7480  -18.2306  -39.8585 H         1 UNK         0.0600 
    157 H157       -2.9405  -18.0662  -41.1375 H         1 UNK         0.0600 
    158 H158       -1.7989  -16.7655  -40.8381 H         1 UNK         0.0600 
    159 H159        0.8745  -17.5683  -42.3897 H         1 UNK         0.3000 
    160 H160        2.5135  -16.6554  -40.4237 H         1 UNK         0.0600 
    161 H161        3.6324  -19.3334  -39.4423 H         1 UNK         0.0600 
    162 H162        3.0481  -18.0190  -38.4295 H         1 UNK         0.0600 
    163 H163        4.4885  -17.7924  -39.4059 H         1 UNK         0.0600 
    164 H164        3.7598  -17.0741  -42.2098 H         1 UNK         0.3000 
    165 H165        5.5558  -18.8726  -43.1849 H         1 UNK         0.0600 
    166 H166        4.9536  -21.0943  -43.9645 H         1 UNK         0.0600 
    167 H167        3.6299  -20.4689  -44.9399 H         1 UNK         0.0600 
    168 H168        5.2987  -20.1040  -45.3701 H         1 UNK         0.0600 
    169 H169        3.3270  -17.5261  -44.5633 H         1 UNK         0.3000 
    170 H170        5.5468  -14.9998  -45.6316 H         1 UNK         0.0600 
    171 H171        4.4179  -15.1843  -47.8572 H         1 UNK         0.0600 
    172 H172        3.9863  -16.8573  -47.4985 H         1 UNK         0.0600 
    173 H173        5.6719  -16.3991  -47.6686 H         1 UNK         0.0600 
    174 H174        2.7923  -15.1005  -46.0439 H         1 UNK         0.3000 
    175 H175        1.5543  -14.2126  -42.9180 H         1 UNK         0.0600 
    176 H176        2.8055  -12.0944  -43.3360 H         1 UNK         0.0600 
    177 H177        2.3983  -12.1722  -45.0463 H         1 UNK         0.0600 
    178 H178        1.1300  -11.9468  -43.8412 H         1 UNK         0.0600 
    179 H179        0.5620  -13.7493  -45.5623 H         1 UNK         0.3000 
    180 H180       -0.4050  -16.6782  -46.5421 H         1 UNK         0.0600 
    181 H181       -2.5183  -15.8336  -44.5015 H         1 UNK         0.0600 
    182 H182       -1.9348  -17.4562  -44.8243 H         1 UNK         0.0600 
    183 H183       -2.8857  -16.6251  -46.0334 H         1 UNK         0.0600 
    184 H184       -0.9539  -14.9429  -47.7645 H         1 UNK         0.3000 
    185 H185       -3.1346  -12.2952  -47.4502 H         1 UNK         0.0600 
    186 H186       -1.0510  -11.0320  -46.8629 H         1 UNK         0.0600 
    187 H187       -0.1433  -11.9614  -48.0500 H         1 UNK         0.0600 
    188 H188       -1.4340  -10.8767  -48.5687 H         1 UNK         0.0600 
    189 H189       -1.6074  -13.1190  -49.6766 H         1 UNK         0.3000 
    190 H190       -2.1433  -21.5472  -44.4341 H         1 UNK         0.3000 
    191 H191       -4.5536  -21.9436  -45.9069 H         1 UNK         0.0600 
    192 H192       -4.5212  -21.0435  -43.6027 H         1 UNK         0.0600 
    193 H193       -5.4897  -22.5092  -43.6588 H         1 UNK         0.0600 
    194 H194       -3.8642  -22.5567  -42.9843 H         1 UNK         0.0600 
    195 H195       -2.2732  -24.2602  -44.3538 H         1 UNK         0.3000 
    196 H196       -3.6980  -26.6320  -44.9750 H         1 UNK         0.0600 
    197 H197       -1.5173  -27.7543  -44.5429 H         1 UNK         0.0600 
    198 H198       -1.8522  -26.5397  -43.3186 H         1 UNK         0.0600 
    199 H199       -0.6873  -26.2055  -44.5987 H         1 UNK         0.0600 
    200 H200       -1.3378  -24.7603  -46.8839 H         1 UNK         0.3000 
    201 H201       -1.3300  -26.5324  -49.1740 H         1 UNK         0.0600 
    202 H202       -0.0713  -24.6536  -50.2194 H         1 UNK         0.0600 
    203 H203        0.5654  -25.0058  -48.6211 H         1 UNK         0.0600 
    204 H204       -0.4711  -23.6026  -48.8675 H         1 UNK         0.0600 
    205 H205       -3.7011  -24.4577  -47.9836 H         1 UNK         0.3000 
    206 H206       -5.6064  -23.6086  -48.6310 H         1 UNK         0.0600 
    207 H207       -5.9927  -25.7644  -49.8587 H         1 UNK         0.0600 
    208 H208       -6.8043  -24.4014  -50.6114 H         1 UNK         0.0600 
    209 H209       -5.3319  -25.0372  -51.3241 H         1 UNK         0.0600 
    210 H210       -2.8472  -22.4458  -49.5973 H         1 UNK         0.3000 
    211 H211       -3.3581  -20.8026  -51.8760 H         1 UNK         0.0600 
    212 H212       -1.0730  -21.4116  -51.1755 H         1 UNK         0.0600 
    213 H213       -1.2613  -19.6597  -51.1429 H         1 UNK         0.0600 
    214 H214       -1.2747  -20.5692  -49.6392 H         1 UNK         0.0600 
    215 H215       -3.9924  -20.3851  -48.4630 H         1 UNK         0.3000 
    216 H216       -4.5031  -17.5783  -48.3978 H         1 UNK         0.0600 
    217 H217       -5.6314  -19.8365  -46.6552 H         1 UNK         0.0600 
    218 H218       -5.6239  -18.1248  -46.2501 H         1 UNK         0.0600 
    219 H219       -4.1050  -18.9975  -46.3738 H         1 UNK         0.0600 
    220 H220       -6.3179  -20.1327  -49.8747 H         1 UNK         0.3000 
    221 H221       -8.7190  -18.3664  -50.1894 H         1 UNK         0.0600 
    222 H222       -8.5442  -21.4276  -50.1903 H         1 UNK         0.0600 
    223 H223       -9.2528  -20.4326  -48.9197 H         1 UNK         0.0600 
    224 H224       -9.9927  -20.4804  -50.5127 H         1 UNK         0.0600 
    225 H225       -6.5267  -20.7472  -51.7796 H         1 UNK         0.3000 
    226 H226       -7.7588  -20.3918  -54.3615 H         1 UNK         0.0600 
    227 H227       -6.8399  -22.5594  -53.5505 H         1 UNK         0.0600 
    228 H228       -6.0590  -22.0660  -55.0447 H         1 UNK         0.0600 
    229 H229       -5.2161  -21.8768  -53.5128 H         1 UNK         0.0600 
    230 H230       -5.0232  -18.8356  -52.7943 H         1 UNK         0.3000 
    231 H231       -3.3719  -17.4919  -53.4117 H         1 UNK         0.0600 
    232 H232       -5.0371  -16.7482  -55.8706 H         1 UNK         0.0600 
    233 H233       -3.7294  -15.8141  -55.1600 H         1 UNK         0.0600 
    234 H234       -5.2264  -16.0337  -54.2731 H         1 UNK         0.0600 
    235 H235       -3.0184  -20.1231  -53.9638 H         1 UNK         0.3000 
    236 H236       -2.4821  -21.0130  -56.4773 H         1 UNK         0.0600 
    237 H237       -1.1864  -21.8898  -53.8400 H         1 UNK         0.0600 
    238 H238       -2.7318  -22.4515  -54.4788 H         1 UNK         0.0600 
    239 H239       -1.2395  -22.8541  -55.3100 H         1 UNK         0.0600 
    240 H240       -0.2992  -19.0182  -54.6252 H         1 UNK         0.3000 
    241 H241        2.0414  -19.6004  -56.3170 H         1 UNK         0.0600 
    242 H242        0.1025  -16.4366  -57.8345 H         1 UNK         0.3800 
    243 H243       -0.7090  -17.5957  -56.8126 H         1 UNK         0.3800 
    244 H244        1.7522  -17.6721  -53.9681 H         1 UNK         0.0800 
    245 H245        3.2175  -17.9479  -54.8507 H         1 UNK         0.0800 
    246 H246        0.4178  -19.7967  -52.8551 H         1 UNK         0.0800 
    247 H247        1.2892  -21.0645  -52.0549 H         1 UNK         0.0800 
@<TRIPOS>BOND
     1    1    2 1    
     2    1  127 1    
     3    1  128 1    
     4    1  129 1    
     5    2    3 2    
     6    2    4 am   BACKBONE|DICT|INTERRES
     7    4    5 1    
     8    4  130 1    
     9    5    6 1    
    10    5   65 1    
    11    5  131 1    
    12    6    7 1    
    13    6  132 1    
    14    6  133 1    
    15    7    8 1    
    16    8    9 1    
    17    8  134 1    
    18    8  135 1    
    19    9   10 ar   
    20    9   14 ar   
    21   10   11 ar   
    22   10  136 1    
    23   11   12 ar   
    24   11  126 1    
    25   12   13 ar   
    26   12  137 1    
    27   13   14 ar   
    28   13   15 1    
    29   14  138 1    
    30   15   16 1    
    31   15  139 1    
    32   15  140 1    
    33   16   17 1    
    34   17   18 1    
    35   17  141 1    
    36   17  142 1    
    37   18   19 1    
    38   18   67 1    
    39   18  143 1    
    40   19   20 am   BACKBONE|DICT|INTERRES
    41   19  144 1    
    42   20   21 2    
    43   20   22 1    
    44   22   23 1    
    45   22   24 1    
    46   22  145 1    
    47   23  146 1    
    48   23  147 1    
    49   23  148 1    
    50   24   25 am   BACKBONE|DICT|INTERRES
    51   24  149 1    
    52   25   26 2    
    53   25   27 1    
    54   27   28 1    
    55   27   29 1    
    56   27  150 1    
    57   28  151 1    
    58   28  152 1    
    59   28  153 1    
    60   29   30 am   BACKBONE|DICT|INTERRES
    61   29  154 1    
    62   30   31 2    
    63   30   32 1    
    64   32   33 1    
    65   32   34 1    
    66   32  155 1    
    67   33  156 1    
    68   33  157 1    
    69   33  158 1    
    70   34   35 am   BACKBONE|DICT|INTERRES
    71   34  159 1    
    72   35   36 2    
    73   35   37 1    
    74   37   38 1    
    75   37   39 1    
    76   37  160 1    
    77   38  161 1    
    78   38  162 1    
    79   38  163 1    
    80   39   40 am   BACKBONE|DICT|INTERRES
    81   39  164 1    
    82   40   41 2    
    83   40   42 1    
    84   42   43 1    
    85   42   44 1    
    86   42  165 1    
    87   43  166 1    
    88   43  167 1    
    89   43  168 1    
    90   44   45 am   BACKBONE|DICT|INTERRES
    91   44  169 1    
    92   45   46 2    
    93   45   47 1    
    94   47   48 1    
    95   47   49 1    
    96   47  170 1    
    97   48  171 1    
    98   48  172 1    
    99   48  173 1    
   100   49   50 am   BACKBONE|DICT|INTERRES
   101   49  174 1    
   102   50   51 2    
   103   50   52 1    
   104   52   53 1    
   105   52   54 1    
   106   52  175 1    
   107   53  176 1    
   108   53  177 1    
   109   53  178 1    
   110   54   55 am   BACKBONE|DICT|INTERRES
   111   54  179 1    
   112   55   56 2    
   113   55   57 1    
   114   57   58 1    
   115   57   59 1    
   116   57  180 1    
   117   58  181 1    
   118   58  182 1    
   119   58  183 1    
   120   59   60 am   BACKBONE|DICT|INTERRES
   121   59  184 1    
   122   60   61 2    
   123   60   62 1    
   124   62   63 1    
   125   62   64 1    
   126   62  185 1    
   127   63  186 1    
   128   63  187 1    
   129   63  188 1    
   130   64   65 am   BACKBONE|DICT|INTERRES
   131   64  189 1    
   132   65   66 2    
   133   67   68 2    
   134   67   69 am   BACKBONE|DICT|INTERRES
   135   69   70 1    
   136   69  190 1    
   137   70   71 1    
   138   70   72 1    
   139   70  191 1    
   140   71  192 1    
   141   71  193 1    
   142   71  194 1    
   143   72   73 2    
   144   72   74 am   BACKBONE|DICT|INTERRES
   145   74   75 1    
   146   74  195 1    
   147   75   76 1    
   148   75   77 1    
   149   75  196 1    
   150   76  197 1    
   151   76  198 1    
   152   76  199 1    
   153   77   78 2    
   154   77   79 am   BACKBONE|DICT|INTERRES
   155   79   80 1    
   156   79  200 1    
   157   80   81 1    
   158   80   82 1    
   159   80  201 1    
   160   81  202 1    
   161   81  203 1    
   162   81  204 1    
   163   82   83 2    
   164   82   84 am   BACKBONE|DICT|INTERRES
   165   84   85 1    
   166   84  205 1    
   167   85   86 1    
   168   85   87 1    
   169   85  206 1    
   170   86  207 1    
   171   86  208 1    
   172   86  209 1    
   173   87   88 2    
   174   87   89 am   BACKBONE|DICT|INTERRES
   175   89   90 1    
   176   89  210 1    
   177   90   91 1    
   178   90   92 1    
   179   90  211 1    
   180   91  212 1    
   181   91  213 1    
   182   91  214 1    
   183   92   93 2    
   184   92   94 am   BACKBONE|DICT|INTERRES
   185   94   95 1    
   186   94  215 1    
   187   95   96 1    
   188   95   97 1    
   189   95  216 1    
   190   96  217 1    
   191   96  218 1    
   192   96  219 1    
   193   97   98 2    
   194   97   99 am   BACKBONE|DICT|INTERRES
   195   99  100 1    
   196   99  220 1    
   197  100  101 1    
   198  100  102 1    
   199  100  221 1    
   200  101  222 1    
   201  101  223 1    
   202  101  224 1    
   203  102  103 2    
   204  102  104 am   BACKBONE|DICT|INTERRES
   205  104  105 1    
   206  104  225 1    
   207  105  106 1    
   208  105  107 1    
   209  105  226 1    
   210  106  227 1    
   211  106  228 1    
   212  106  229 1    
   213  107  108 2    
   214  107  109 am   BACKBONE|DICT|INTERRES
   215  109  110 1    
   216  109  230 1    
   217  110  111 1    
   218  110  112 1    
   219  110  231 1    
   220  111  232 1    
   221  111  233 1    
   222  111  234 1    
   223  112  113 2    
   224  112  114 am   BACKBONE|DICT|INTERRES
   225  114  115 1    
   226  114  235 1    
   227  115  116 1    
   228  115  117 1    
   229  115  236 1    
   230  116  237 1    
   231  116  238 1    
   232  116  239 1    
   233  117  118 2    
   234  117  119 am   BACKBONE|DICT|INTERRES
   235  119  120 1    
   236  119  240 1    
   237  120  121 1    
   238  120  124 1    
   239  120  241 1    
   240  121  122 am   BACKBONE|DICT|INTERRES
   241  121  123 2    
   242  122  242 1    
   243  122  243 1    
   244  124  125 1    
   245  124  244 1    
   246  124  245 1    
   247  125  126 1    
   248  126  246 1    
   249  126  247 1    
@<TRIPOS>SUBSTRUCTURE
     1 UNK         1 GROUP             0       ****    0 ROOT    
