@<TRIPOS>MOLECULE
3R540
247   249    1
SMALL
USER_CHARGES


@<TRIPOS>ATOM
      1 CA          8.3739  -18.9782  -47.6218 C.3       0 UNK        -0.1800 
      2 C           7.5961  -17.7062  -47.9272 C.2       0 UNK         0.5000 
      3 O           8.1449  -16.6106  -47.8120 O.2       0 UNK        -0.5000 
      4 N           6.3200  -17.8514  -48.3116 N.am      1 UNK        -0.5000 
      5 CA          5.3802  -16.7710  -48.6544 C.3       1 UNK         0.1400 
      6 C6          5.8810  -15.9060  -49.8484 C.3       23 UNK        -0.0398 
      7 S7          4.5681  -15.4899  -51.0469 S.3       23 UNK        -0.2404 
      8 C8          4.9142  -16.6548  -52.4073 C.3       23 UNK        -0.0205 
      9 C9          4.1686  -17.9696  -52.2315 C.ar      23 UNK        -0.0193 
     10 C10         2.9747  -18.1898  -52.9235 C.ar      23 UNK        -0.1150 
     11 C11         2.2755  -19.3906  -52.7768 C.ar      23 UNK        -0.0193 
     12 C12         2.7684  -20.3692  -51.9087 C.ar      23 UNK        -0.1150 
     13 C13         3.9684  -20.1679  -51.2174 C.ar      23 UNK        -0.0193 
     14 C14         4.6723  -18.9721  -51.3971 C.ar      23 UNK        -0.1150 
     15 C15         4.5040  -21.2550  -50.2922 C.3       23 UNK        -0.0205 
     16 S16         4.7550  -20.7038  -48.5682 S.3       23 UNK        -0.2404 
     17 C17         3.1601  -19.9265  -48.1362 C.3       23 UNK        -0.0398 
     18 CA          2.1947  -20.8375  -47.3425 C.3       11 UNK         0.1400 
     19 N           1.1833  -20.0120  -46.6732 N.am      11 UNK        -0.5000 
     20 C           0.1528  -20.4487  -45.9396 C.2       10 UNK         0.5000 
     21 O           0.0048  -21.6245  -45.6098 O.2       10 UNK        -0.5000 
     22 CA         -0.9286  -19.4143  -45.5606 C.3       10 UNK         0.1400 
     23 CB         -0.6891  -18.9115  -44.1323 C.3       10 UNK        -0.1800 
     24 N          -1.0777  -18.2539  -46.4554 N.am      10 UNK        -0.5000 
     25 C          -1.1564  -18.2645  -47.7952 C.2       9 UNK         0.5000 
     26 O          -1.0592  -19.2828  -48.4769 O.2       9 UNK        -0.5000 
     27 CA         -1.4087  -16.9151  -48.4770 C.3       9 UNK         0.1400 
     28 CB         -1.2784  -16.9779  -50.0082 C.3       9 UNK        -0.1800 
     29 N          -2.7402  -16.4632  -48.1004 N.am      9 UNK        -0.5000 
     30 C          -3.0681  -15.1895  -47.8688 C.2       8 UNK         0.5000 
     31 O          -2.3404  -14.2329  -48.1385 O.2       8 UNK        -0.5000 
     32 CA         -4.4162  -14.9393  -47.1639 C.3       8 UNK         0.1400 
     33 CB         -5.5620  -14.9121  -48.1856 C.3       8 UNK        -0.1800 
     34 N          -4.7673  -15.8655  -46.0765 N.am      8 UNK        -0.5000 
     35 C          -3.9615  -16.3045  -45.0992 C.2       7 UNK         0.5000 
     36 O          -2.7357  -16.1728  -45.0849 O.2       7 UNK        -0.5000 
     37 CA         -4.6354  -17.0074  -43.9166 C.3       7 UNK         0.1400 
     38 CB         -4.7568  -18.5220  -44.1483 C.3       7 UNK        -0.1800 
     39 N          -3.8072  -16.7291  -42.7522 N.am      7 UNK        -0.5000 
     40 C          -4.1862  -16.7568  -41.4730 C.2       6 UNK         0.5000 
     41 O          -5.2921  -17.1370  -41.0871 O.2       6 UNK        -0.5000 
     42 CA         -3.1565  -16.2273  -40.4614 C.3       6 UNK         0.1400 
     43 CB         -2.0947  -17.2952  -40.1517 C.3       6 UNK        -0.1800 
     44 N          -2.5051  -15.0089  -40.9527 N.am      6 UNK        -0.5000 
     45 C          -3.0552  -13.7861  -40.8863 C.2       5 UNK         0.5000 
     46 O          -4.1578  -13.5672  -40.3825 O.2       5 UNK        -0.5000 
     47 CA         -2.2494  -12.5976  -41.4508 C.3       5 UNK         0.1400 
     48 CB         -1.5110  -11.8686  -40.3175 C.3       5 UNK        -0.1800 
     49 N          -1.2761  -12.9895  -42.4682 N.am      5 UNK        -0.5000 
     50 C          -1.5692  -13.2600  -43.7474 C.2       4 UNK         0.5000 
     51 O          -2.6915  -13.1089  -44.2309 O.2       4 UNK        -0.5000 
     52 CA         -0.4152  -13.7828  -44.6351 C.3       4 UNK         0.1400 
     53 CB          0.1064  -12.6640  -45.5492 C.3       4 UNK        -0.1800 
     54 N           0.7198  -14.3581  -43.8998 N.am      4 UNK        -0.5000 
     55 C           0.6626  -15.3969  -43.0533 C.2       3 UNK         0.5000 
     56 O          -0.3861  -15.9663  -42.7510 O.2       3 UNK        -0.5000 
     57 CA          1.9877  -15.8112  -42.3815 C.3       3 UNK         0.1400 
     58 CB          1.9626  -17.2379  -41.7926 C.3       3 UNK        -0.1800 
     59 N           3.1765  -15.6060  -43.2180 N.am      3 UNK        -0.5000 
     60 C           3.4884  -16.2255  -44.3666 C.2       2 UNK         0.5000 
     61 O           2.7571  -17.0331  -44.9464 O.2       2 UNK        -0.5000 
     62 CA          4.8845  -15.8921  -44.9252 C.3       2 UNK         0.1400 
     63 CB          5.9859  -16.3820  -43.9673 C.3       2 UNK        -0.1800 
     64 N           5.1194  -16.5177  -46.2232 N.am      2 UNK        -0.5000 
     65 C           4.9531  -15.9369  -47.4180 C.2       1 UNK         0.5000 
     66 O           4.5015  -14.7993  -47.5595 O.2       1 UNK        -0.5000 
     67 C           1.5807  -21.9279  -48.2578 C.2       11 UNK         0.5000 
     68 O           2.1127  -23.0358  -48.3350 O.2       11 UNK        -0.5000 
     69 N           0.4497  -21.6121  -48.9040 N.am      12 UNK        -0.5000 
     70 CA         -0.2841  -22.4860  -49.8169 C.3       12 UNK         0.1400 
     71 CB         -1.0594  -21.6172  -50.8165 C.3       12 UNK        -0.1800 
     72 C          -1.2112  -23.4958  -49.1108 C.2       12 UNK         0.5000 
     73 O          -2.0096  -24.1459  -49.7883 O.2       12 UNK        -0.5000 
     74 N          -1.0941  -23.6559  -47.7830 N.am      13 UNK        -0.5000 
     75 CA         -1.8014  -24.6772  -47.0001 C.3       13 UNK         0.1400 
     76 CB         -1.4891  -24.4998  -45.5071 C.3       13 UNK        -0.1800 
     77 C          -1.4802  -26.1168  -47.4448 C.2       13 UNK         0.5000 
     78 O          -2.3603  -26.9749  -47.3932 O.2       13 UNK        -0.5000 
     79 N          -0.2537  -26.3392  -47.9397 N.am      14 UNK        -0.5000 
     80 CA          0.1962  -27.5995  -48.5380 C.3       14 UNK         0.1400 
     81 CB          1.7124  -27.5235  -48.7727 C.3       14 UNK        -0.1800 
     82 C          -0.5354  -27.9541  -49.8506 C.2       14 UNK         0.5000 
     83 O          -0.6431  -29.1347  -50.1829 O.2       14 UNK        -0.5000 
     84 N          -1.0385  -26.9326  -50.5568 N.am      15 UNK        -0.5000 
     85 CA         -1.8580  -27.0560  -51.7636 C.3       15 UNK         0.1400 
     86 CB         -1.4336  -25.9537  -52.7497 C.3       15 UNK        -0.1800 
     87 C          -3.3664  -26.9527  -51.4538 C.2       15 UNK         0.5000 
     88 O          -4.1739  -27.0448  -52.3790 O.2       15 UNK        -0.5000 
     89 N          -3.7170  -26.7391  -50.1746 N.am      16 UNK        -0.5000 
     90 CA         -5.0561  -26.4685  -49.6417 C.3       16 UNK         0.1400 
     91 CB         -5.9651  -27.7068  -49.7857 C.3       16 UNK        -0.1800 
     92 C          -5.6857  -25.1806  -50.2186 C.2       16 UNK         0.5000 
     93 O          -6.9030  -25.1193  -50.4006 O.2       16 UNK        -0.5000 
     94 N          -4.8443  -24.1743  -50.4945 N.am      17 UNK        -0.5000 
     95 CA         -5.2185  -22.9137  -51.1395 C.3       17 UNK         0.1400 
     96 CB         -4.6126  -22.8806  -52.5528 C.3       17 UNK        -0.1800 
     97 C          -4.8055  -21.6922  -50.2967 C.2       17 UNK         0.5000 
     98 O          -4.6629  -20.5950  -50.8395 O.2       17 UNK        -0.5000 
     99 N          -4.6287  -21.8974  -48.9835 N.am      18 UNK        -0.5000 
    100 CA        -4.2104  -20.8881  -48.0086 C.3       18 UNK         0.1400 
    101 CB        -4.0362  -21.5513  -46.6342 C.3       18 UNK        -0.1800 
    102 C         -5.1662  -19.6881  -47.9146 C.2       18 UNK         0.5000 
    103 O         -4.7388  -18.5440  -48.0710 O.2       18 UNK        -0.5000 
    104 N         -6.4523  -19.9807  -47.6837 N.am      19 UNK        -0.5000 
    105 CA        -7.5265  -18.9863  -47.6125 C.3       19 UNK         0.1400 
    106 CB        -8.7206  -19.5969  -46.8642 C.3       19 UNK        -0.1800 
    107 C         -7.9590  -18.4764  -49.0009 C.2       19 UNK         0.5000 
    108 O         -8.5491  -17.4008  -49.0970 O.2       19 UNK        -0.5000 
    109 N         -7.6432  -19.2492  -50.0488 N.am      20 UNK        -0.5000 
    110 CA        -7.9028  -18.9268  -51.4521 C.3       20 UNK         0.1400 
    111 CB        -8.0029  -20.2381  -52.2493 C.3       20 UNK        -0.1800 
    112 C         -6.8356  -17.9987  -52.0668 C.2       20 UNK         0.5000 
    113 O         -6.9461  -17.6702  -53.2486 O.2       20 UNK        -0.5000 
    114 N         -5.8122  -17.6199  -51.2843 N.am      21 UNK        -0.5000 
    115 CA        -4.6876  -16.7567  -51.6588 C.3       21 UNK         0.1400 
    116 CB        -5.1770  -15.3177  -51.9272 C.3       21 UNK        -0.1800 
    117 C         -3.8698  -17.3391  -52.8316 C.2       21 UNK         0.5000 
    118 O         -3.5519  -16.6193  -53.7797 O.2       21 UNK        -0.5000 
    119 N         -3.5931  -18.6481  -52.7558 N.am      22 UNK        -0.5000 
    120 CA        -2.9706  -19.4826  -53.8003 C.3       22 UNK         0.1400 
    121 C         -3.9286  -19.8644  -54.9708 C.2       22 UNK         0.5000 
    122 N         -5.1936  -19.4590  -54.9779 N.am      22 UNK        -0.7600 
    123 O         -3.5248  -20.5776  -55.8851 O.2       22 UNK        -0.5000 
    124 C124       -1.6086  -18.9498  -54.3381 C.3       23 UNK        -0.0398 
    125 S125       -0.3722  -18.6038  -53.0401 S.3       23 UNK        -0.2404 
    126 C126        1.0163  -19.6394  -53.5941 C.3       23 UNK        -0.0205 
    127 H127        8.7109  -18.9718  -46.5853 H         1 UNK         0.0600 
    128 H128        9.2501  -19.0457  -48.2665 H         1 UNK         0.0600 
    129 H129        7.7687  -19.8717  -47.7772 H         1 UNK         0.0600 
    130 H130        5.9394  -18.7877  -48.3818 H         1 UNK         0.3000 
    131 H131        4.4743  -17.2892  -48.9707 H         1 UNK         0.0600 
    132 H132        6.6743  -16.4250  -50.3865 H         1 UNK         0.0800 
    133 H133        6.3467  -14.9814  -49.5025 H         1 UNK         0.0800 
    134 H134        4.6127  -16.1828  -53.3437 H         1 UNK         0.0800 
    135 H135        5.9851  -16.8374  -52.5034 H         1 UNK         0.0800 
    136 H136        2.5880  -17.4278  -53.5859 H         1 UNK         0.1150 
    137 H137        2.2264  -21.2964  -51.7862 H         1 UNK         0.1150 
    138 H138        5.6064  -18.8173  -50.8771 H         1 UNK         0.1150 
    139 H139        3.8404  -22.1206  -50.2902 H         1 UNK         0.0800 
    140 H140        5.4574  -21.6093  -50.6858 H         1 UNK         0.0800 
    141 H141        3.4153  -19.0624  -47.5209 H         1 UNK         0.0800 
    142 H142        2.6699  -19.5119  -49.0180 H         1 UNK         0.0800 
    143 H143        2.7563  -21.3451  -46.5557 H         1 UNK         0.0600 
    144 H144        1.2156  -19.0225  -46.8687 H         1 UNK         0.3000 
    145 H145       -1.8794  -19.9435  -45.5753 H         1 UNK         0.0600 
    146 H146       -1.5155  -18.2963  -43.7794 H         1 UNK         0.0600 
    147 H147       -0.5783  -19.7385  -43.4299 H         1 UNK         0.0600 
    148 H148        0.2173  -18.3101  -44.0831 H         1 UNK         0.0600 
    149 H149       -1.2618  -17.3731  -45.9859 H         1 UNK         0.3000 
    150 H150       -0.6583  -16.2197  -48.0946 H         1 UNK         0.0600 
    151 H151       -0.2598  -17.2414  -50.2951 H         1 UNK         0.0600 
    152 H152       -1.5090  -16.0185  -50.4710 H         1 UNK         0.0600 
    153 H153       -1.9402  -17.7306  -50.4368 H         1 UNK         0.0600 
    154 H154       -3.4139  -17.1928  -47.8753 H         1 UNK         0.3000 
    155 H155       -4.3508  -13.9493  -46.7081 H         1 UNK         0.0600 
    156 H156       -6.5064  -14.6331  -47.7182 H         1 UNK         0.0600 
    157 H157       -5.6982  -15.8833  -48.6632 H         1 UNK         0.0600 
    158 H158       -5.3621  -14.1796  -48.9679 H         1 UNK         0.0600 
    159 H159       -5.7518  -16.0697  -45.9966 H         1 UNK         0.3000 
    160 H160       -5.6263  -16.5750  -43.7633 H         1 UNK         0.0600 
    161 H161       -3.7812  -18.9819  -44.2993 H         1 UNK         0.0600 
    162 H162       -5.3651  -18.7337  -45.0276 H         1 UNK         0.0600 
    163 H163       -5.2307  -19.0163  -43.3004 H         1 UNK         0.0600 
    164 H164       -2.8827  -16.3831  -42.9894 H         1 UNK         0.3000 
    165 H165       -3.6811  -15.9987  -39.5311 H         1 UNK         0.0600 
    166 H166       -1.5636  -17.6150  -41.0487 H         1 UNK         0.0600 
    167 H167       -1.3572  -16.9246  -39.4398 H         1 UNK         0.0600 
    168 H168       -2.5542  -18.1818  -39.7133 H         1 UNK         0.0600 
    169 H169       -1.6295  -15.1366  -41.4492 H         1 UNK         0.3000 
    170 H170       -2.9606  -11.8985  -41.8960 H         1 UNK         0.0600 
    171 H171       -0.7772  -12.5145  -39.8336 H         1 UNK         0.0600 
    172 H172       -0.9895  -10.9865  -40.6896 H         1 UNK         0.0600 
    173 H173       -2.2087  -11.5318  -39.5495 H         1 UNK         0.0600 
    174 H174       -0.3247  -13.1221  -42.1604 H         1 UNK         0.3000 
    175 H175       -0.8186  -14.5681  -45.2740 H         1 UNK         0.0600 
    176 H176        0.8592  -13.0393  -46.2427 H         1 UNK         0.0600 
    177 H177       -0.7018  -12.2433  -46.1494 H         1 UNK         0.0600 
    178 H178        0.5502  -11.8494  -44.9756 H         1 UNK         0.0600 
    179 H179        1.6226  -13.9432  -44.0764 H         1 UNK         0.3000 
    180 H180        2.0986  -15.1280  -41.5384 H         1 UNK         0.0600 
    181 H181        2.8654  -17.4359  -41.2151 H         1 UNK         0.0600 
    182 H182        1.8939  -18.0008  -42.5666 H         1 UNK         0.0600 
    183 H183        1.1155  -17.3755  -41.1195 H         1 UNK         0.0600 
    184 H184        3.8508  -14.9549  -42.8399 H         1 UNK         0.3000 
    185 H185        4.9631  -14.8069  -45.0190 H         1 UNK         0.0600 
    186 H186        6.9776  -16.1705  -44.3684 H         1 UNK         0.0600 
    187 H187        5.9232  -15.8884  -42.9970 H         1 UNK         0.0600 
    188 H188        5.9191  -17.4569  -43.7935 H         1 UNK         0.0600 
    189 H189        5.4533  -17.4693  -46.2021 H         1 UNK         0.3000 
    190 H190        0.0241  -20.6999  -48.7412 H         1 UNK         0.3000 
    191 H191        0.4397  -23.0725  -50.3861 H         1 UNK         0.0600 
    192 H192       -1.4986  -22.2221  -51.6087 H         1 UNK         0.0600 
    193 H193       -0.3982  -20.8954  -51.2907 H         1 UNK         0.0600 
    194 H194       -1.8632  -21.0611  -50.3350 H         1 UNK         0.0600 
    195 H195       -0.4466  -23.0656  -47.2751 H         1 UNK         0.3000 
    196 H196       -2.8728  -24.5266  -47.1461 H         1 UNK         0.0600 
    197 H197       -1.9780  -25.2702  -44.9092 H         1 UNK         0.0600 
    198 H198       -1.8424  -23.5374  -45.1384 H         1 UNK         0.0600 
    199 H199       -0.4180  -24.5604  -45.3108 H         1 UNK         0.0600 
    200 H200        0.4070  -25.5748  -47.9426 H         1 UNK         0.3000 
    201 H201       -0.0017  -28.4019  -47.8242 H         1 UNK         0.0600 
    202 H202        2.2483  -27.3534  -47.8387 H         1 UNK         0.0600 
    203 H203        1.9731  -26.7184  -49.4610 H         1 UNK         0.0600 
    204 H204        2.0898  -28.4546  -49.1976 H         1 UNK         0.0600 
    205 H205       -0.9400  -25.9937  -50.1934 H         1 UNK         0.3000 
    206 H206       -1.6861  -28.0239  -52.2386 H         1 UNK         0.0600 
    207 H207       -1.6272  -24.9573  -52.3509 H         1 UNK         0.0600 
    208 H208       -0.3709  -26.0210  -52.9828 H         1 UNK         0.0600 
    209 H209       -1.9769  -26.0392  -53.6915 H         1 UNK         0.0600 
    210 H210       -2.9747  -26.7100  -49.4882 H         1 UNK         0.3000 
    211 H211       -4.9234  -26.2839  -48.5749 H         1 UNK         0.0600 
    212 H212       -6.2014  -27.9184  -50.8289 H         1 UNK         0.0600 
    213 H213       -6.9095  -27.5623  -49.2600 H         1 UNK         0.0600 
    214 H214       -5.4924  -28.5930  -49.3621 H         1 UNK         0.0600 
    215 H215       -3.8524  -24.2946  -50.2997 H         1 UNK         0.3000 
    216 H216       -6.3029  -22.8486  -51.2419 H         1 UNK         0.0600 
    217 H217       -4.9209  -21.9860  -53.0936 H         1 UNK         0.0600 
    218 H218       -4.9412  -23.7389  -53.1392 H         1 UNK         0.0600 
    219 H219       -3.5237  -22.8965  -52.5252 H         1 UNK         0.0600 
    220 H220       -4.7731  -22.8328  -48.6346 H         1 UNK         0.3000 
    221 H221       -3.2432  -20.5046  -48.3282 H         1 UNK         0.0600 
    222 H222       -4.8739  -22.2032  -46.3847 H         1 UNK         0.0600 
    223 H223       -3.1254  -22.1445  -46.6054 H         1 UNK         0.0600 
    224 H224       -3.9600  -20.8120  -45.8385 H         1 UNK         0.0600 
    225 H225       -6.7184  -20.9471  -47.5622 H         1 UNK         0.3000 
    226 H226       -7.1703  -18.1254  -47.0426 H         1 UNK         0.0600 
    227 H227       -8.4386  -19.9049  -45.8571 H         1 UNK         0.0600 
    228 H228       -9.5317  -18.8740  -46.7661 H         1 UNK         0.0600 
    229 H229       -9.1192  -20.4690  -47.3840 H         1 UNK         0.0600 
    230 H230       -7.1301  -20.0992  -49.8726 H         1 UNK         0.3000 
    231 H231       -8.8630  -18.4118  -51.5240 H         1 UNK         0.0600 
    232 H232       -8.3257  -20.0478  -53.2736 H         1 UNK         0.0600 
    233 H233       -8.7270  -20.9211  -51.8048 H         1 UNK         0.0600 
    234 H234       -7.0426  -20.7497  -52.3042 H         1 UNK         0.0600 
    235 H235       -5.7771  -17.9984  -50.3478 H         1 UNK         0.3000 
    236 H236       -4.0295  -16.7242  -50.7912 H         1 UNK         0.0600 
    237 H237       -5.8208  -14.9593  -51.1258 H         1 UNK         0.0600 
    238 H238       -4.3347  -14.6295  -52.0050 H         1 UNK         0.0600 
    239 H239       -5.7431  -15.2487  -52.8567 H         1 UNK         0.0600 
    240 H240       -3.9434  -19.1699  -51.9564 H         1 UNK         0.3000 
    241 H241       -2.7614  -20.4285  -53.2999 H         1 UNK         0.0600 
    242 H242       -5.5565  -18.8383  -54.2653 H         1 UNK         0.3800 
    243 H243       -5.7882  -19.7321  -55.7438 H         1 UNK         0.3800 
    244 H244       -1.1824  -19.6726  -55.0355 H         1 UNK         0.0800 
    245 H245       -1.7514  -18.0395  -54.9208 H         1 UNK         0.0800 
    246 H246        1.2311  -19.4256  -54.6421 H         1 UNK         0.0800 
    247 H247        0.7236  -20.6893  -53.5457 H         1 UNK         0.0800 
@<TRIPOS>BOND
     1    1    2 1    
     2    1  127 1    
     3    1  128 1    
     4    1  129 1    
     5    2    3 2    
     6    2    4 am   BACKBONE|DICT|INTERRES
     7    4    5 1    
     8    4  130 1    
     9    5    6 1    
    10    5   65 1    
    11    5  131 1    
    12    6    7 1    
    13    6  132 1    
    14    6  133 1    
    15    7    8 1    
    16    8    9 1    
    17    8  134 1    
    18    8  135 1    
    19    9   10 ar   
    20    9   14 ar   
    21   10   11 ar   
    22   10  136 1    
    23   11   12 ar   
    24   11  126 1    
    25   12   13 ar   
    26   12  137 1    
    27   13   14 ar   
    28   13   15 1    
    29   14  138 1    
    30   15   16 1    
    31   15  139 1    
    32   15  140 1    
    33   16   17 1    
    34   17   18 1    
    35   17  141 1    
    36   17  142 1    
    37   18   19 1    
    38   18   67 1    
    39   18  143 1    
    40   19   20 am   BACKBONE|DICT|INTERRES
    41   19  144 1    
    42   20   21 2    
    43   20   22 1    
    44   22   23 1    
    45   22   24 1    
    46   22  145 1    
    47   23  146 1    
    48   23  147 1    
    49   23  148 1    
    50   24   25 am   BACKBONE|DICT|INTERRES
    51   24  149 1    
    52   25   26 2    
    53   25   27 1    
    54   27   28 1    
    55   27   29 1    
    56   27  150 1    
    57   28  151 1    
    58   28  152 1    
    59   28  153 1    
    60   29   30 am   BACKBONE|DICT|INTERRES
    61   29  154 1    
    62   30   31 2    
    63   30   32 1    
    64   32   33 1    
    65   32   34 1    
    66   32  155 1    
    67   33  156 1    
    68   33  157 1    
    69   33  158 1    
    70   34   35 am   BACKBONE|DICT|INTERRES
    71   34  159 1    
    72   35   36 2    
    73   35   37 1    
    74   37   38 1    
    75   37   39 1    
    76   37  160 1    
    77   38  161 1    
    78   38  162 1    
    79   38  163 1    
    80   39   40 am   BACKBONE|DICT|INTERRES
    81   39  164 1    
    82   40   41 2    
    83   40   42 1    
    84   42   43 1    
    85   42   44 1    
    86   42  165 1    
    87   43  166 1    
    88   43  167 1    
    89   43  168 1    
    90   44   45 am   BACKBONE|DICT|INTERRES
    91   44  169 1    
    92   45   46 2    
    93   45   47 1    
    94   47   48 1    
    95   47   49 1    
    96   47  170 1    
    97   48  171 1    
    98   48  172 1    
    99   48  173 1    
   100   49   50 am   BACKBONE|DICT|INTERRES
   101   49  174 1    
   102   50   51 2    
   103   50   52 1    
   104   52   53 1    
   105   52   54 1    
   106   52  175 1    
   107   53  176 1    
   108   53  177 1    
   109   53  178 1    
   110   54   55 am   BACKBONE|DICT|INTERRES
   111   54  179 1    
   112   55   56 2    
   113   55   57 1    
   114   57   58 1    
   115   57   59 1    
   116   57  180 1    
   117   58  181 1    
   118   58  182 1    
   119   58  183 1    
   120   59   60 am   BACKBONE|DICT|INTERRES
   121   59  184 1    
   122   60   61 2    
   123   60   62 1    
   124   62   63 1    
   125   62   64 1    
   126   62  185 1    
   127   63  186 1    
   128   63  187 1    
   129   63  188 1    
   130   64   65 am   BACKBONE|DICT|INTERRES
   131   64  189 1    
   132   65   66 2    
   133   67   68 2    
   134   67   69 am   BACKBONE|DICT|INTERRES
   135   69   70 1    
   136   69  190 1    
   137   70   71 1    
   138   70   72 1    
   139   70  191 1    
   140   71  192 1    
   141   71  193 1    
   142   71  194 1    
   143   72   73 2    
   144   72   74 am   BACKBONE|DICT|INTERRES
   145   74   75 1    
   146   74  195 1    
   147   75   76 1    
   148   75   77 1    
   149   75  196 1    
   150   76  197 1    
   151   76  198 1    
   152   76  199 1    
   153   77   78 2    
   154   77   79 am   BACKBONE|DICT|INTERRES
   155   79   80 1    
   156   79  200 1    
   157   80   81 1    
   158   80   82 1    
   159   80  201 1    
   160   81  202 1    
   161   81  203 1    
   162   81  204 1    
   163   82   83 2    
   164   82   84 am   BACKBONE|DICT|INTERRES
   165   84   85 1    
   166   84  205 1    
   167   85   86 1    
   168   85   87 1    
   169   85  206 1    
   170   86  207 1    
   171   86  208 1    
   172   86  209 1    
   173   87   88 2    
   174   87   89 am   BACKBONE|DICT|INTERRES
   175   89   90 1    
   176   89  210 1    
   177   90   91 1    
   178   90   92 1    
   179   90  211 1    
   180   91  212 1    
   181   91  213 1    
   182   91  214 1    
   183   92   93 2    
   184   92   94 am   BACKBONE|DICT|INTERRES
   185   94   95 1    
   186   94  215 1    
   187   95   96 1    
   188   95   97 1    
   189   95  216 1    
   190   96  217 1    
   191   96  218 1    
   192   96  219 1    
   193   97   98 2    
   194   97   99 am   BACKBONE|DICT|INTERRES
   195   99  100 1    
   196   99  220 1    
   197  100  101 1    
   198  100  102 1    
   199  100  221 1    
   200  101  222 1    
   201  101  223 1    
   202  101  224 1    
   203  102  103 2    
   204  102  104 am   BACKBONE|DICT|INTERRES
   205  104  105 1    
   206  104  225 1    
   207  105  106 1    
   208  105  107 1    
   209  105  226 1    
   210  106  227 1    
   211  106  228 1    
   212  106  229 1    
   213  107  108 2    
   214  107  109 am   BACKBONE|DICT|INTERRES
   215  109  110 1    
   216  109  230 1    
   217  110  111 1    
   218  110  112 1    
   219  110  231 1    
   220  111  232 1    
   221  111  233 1    
   222  111  234 1    
   223  112  113 2    
   224  112  114 am   BACKBONE|DICT|INTERRES
   225  114  115 1    
   226  114  235 1    
   227  115  116 1    
   228  115  117 1    
   229  115  236 1    
   230  116  237 1    
   231  116  238 1    
   232  116  239 1    
   233  117  118 2    
   234  117  119 am   BACKBONE|DICT|INTERRES
   235  119  120 1    
   236  119  240 1    
   237  120  121 1    
   238  120  124 1    
   239  120  241 1    
   240  121  122 am   BACKBONE|DICT|INTERRES
   241  121  123 2    
   242  122  242 1    
   243  122  243 1    
   244  124  125 1    
   245  124  244 1    
   246  124  245 1    
   247  125  126 1    
   248  126  246 1    
   249  126  247 1    
@<TRIPOS>SUBSTRUCTURE
     1 UNK         1 GROUP             0       ****    0 ROOT    
