@<TRIPOS>MOLECULE
3R540
247   249    1
SMALL
USER_CHARGES


@<TRIPOS>ATOM
      1 CA          2.6137  -14.3708  -42.3724 C.3       0 UNK        -0.1800 
      2 C           1.0933  -14.3121  -42.4089 C.2       0 UNK         0.5000 
      3 O           0.4502  -14.3699  -41.3601 O.2       0 UNK        -0.5000 
      4 N           0.5221  -14.2080  -43.6145 N.am      1 UNK        -0.5000 
      5 CA         -0.9179  -14.0798  -43.8614 C.3       1 UNK         0.1400 
      6 C6         -1.2924  -14.5974  -45.2784 C.3       23 UNK        -0.0398 
      7 S7         -0.8775  -13.4733  -46.6610 S.3       23 UNK        -0.2404 
      8 C8         -2.4415  -13.4505  -47.5976 C.3       23 UNK        -0.0205 
      9 C9         -2.5750  -14.6659  -48.5027 C.ar      23 UNK        -0.0193 
     10 C10        -2.1770  -14.5885  -49.8405 C.ar      23 UNK        -0.1150 
     11 C11        -2.2994  -15.6967  -50.6836 C.ar      23 UNK        -0.0193 
     12 C12        -2.8203  -16.8919  -50.1794 C.ar      23 UNK        -0.1150 
     13 C13        -3.2088  -16.9854  -48.8396 C.ar      23 UNK        -0.0193 
     14 C14        -3.0960  -15.8661  -48.0105 C.ar      23 UNK        -0.1150 
     15 C15        -3.7138  -18.3040  -48.2769 C.3       23 UNK        -0.0205 
     16 S16        -2.3215  -19.4447  -48.0339 S.3       23 UNK        -0.2404 
     17 C17        -2.9486  -20.6116  -46.7831 C.3       23 UNK        -0.0398 
     18 CA         -2.5108  -22.0744  -47.0463 C.3       11 UNK         0.1400 
     19 N          -1.0621  -22.2300  -47.2359 N.am      11 UNK        -0.5000 
     20 C          -0.4532  -23.3734  -47.5859 C.2       10 UNK         0.5000 
     21 O          -1.0490  -24.4309  -47.7815 O.2       10 UNK        -0.5000 
     22 CA          1.0787  -23.3513  -47.6905 C.3       10 UNK         0.1400 
     23 CB          1.5328  -22.7990  -49.0513 C.3       10 UNK        -0.1800 
     24 N           1.6647  -22.5657  -46.6077 N.am      10 UNK        -0.5000 
     25 C           1.8187  -23.0107  -45.3530 C.2       9 UNK         0.5000 
     26 O           1.5537  -24.1599  -44.9985 O.2       9 UNK        -0.5000 
     27 CA          2.3260  -21.9941  -44.3112 C.3       9 UNK         0.1400 
     28 CB          3.8613  -21.9640  -44.2885 C.3       9 UNK        -0.1800 
     29 N           1.8243  -20.6377  -44.5372 N.am      9 UNK        -0.5000 
     30 C           0.5353  -20.2806  -44.4488 C.2       8 UNK         0.5000 
     31 O          -0.3696  -21.0544  -44.1365 O.2       8 UNK        -0.5000 
     32 CA          0.1886  -18.8243  -44.8141 C.3       8 UNK         0.1400 
     33 CB          0.3238  -17.9321  -43.5716 C.3       8 UNK        -0.1800 
     34 N           0.9799  -18.2521  -45.9095 N.am      8 UNK        -0.5000 
     35 C           1.2020  -18.8149  -47.1084 C.2       7 UNK         0.5000 
     36 O           0.8039  -19.9346  -47.4235 O.2       7 UNK        -0.5000 
     37 CA          2.0417  -18.0190  -48.1226 C.3       7 UNK         0.1400 
     38 CB          1.1146  -17.2546  -49.0784 C.3       7 UNK        -0.1800 
     39 N           2.9862  -17.0720  -47.5280 N.am      7 UNK        -0.5000 
     40 C           3.9494  -17.3443  -46.6357 C.2       6 UNK         0.5000 
     41 O           4.1593  -18.4715  -46.1842 O.2       6 UNK        -0.5000 
     42 CA          4.8242  -16.1627  -46.1593 C.3       6 UNK         0.1400 
     43 CB          6.3081  -16.4263  -46.4633 C.3       6 UNK        -0.1800 
     44 N           4.4569  -14.8597  -46.7289 N.am      6 UNK        -0.5000 
     45 C           3.3579  -14.1610  -46.4210 C.2       5 UNK         0.5000 
     46 O           2.4821  -14.5676  -45.6541 O.2       5 UNK        -0.5000 
     47 CA          3.1857  -12.8111  -47.1358 C.3       5 UNK         0.1400 
     48 CB          2.4398  -12.9973  -48.4667 C.3       5 UNK        -0.1800 
     49 N           2.4436  -11.8777  -46.2919 N.am      5 UNK        -0.5000 
     50 C           2.9828  -11.1783  -45.2841 C.2       4 UNK         0.5000 
     51 O           4.1860  -11.1997  -45.0185 O.2       4 UNK        -0.5000 
     52 CA          2.0282  -10.3395  -44.4071 C.3       4 UNK         0.1400 
     53 CB          2.6558   -9.0064  -43.9491 C.3       4 UNK        -0.1800 
     54 N           0.6974  -10.1311  -44.9911 N.am      4 UNK        -0.5000 
     55 C           0.3686   -9.4060  -46.0725 C.2       3 UNK         0.5000 
     56 O           1.1849   -8.7671  -46.7369 O.2       3 UNK        -0.5000 
     57 CA         -1.1121   -9.4137  -46.5128 C.3       3 UNK         0.1400 
     58 CB         -1.2372   -9.8424  -47.9850 C.3       3 UNK        -0.1800 
     59 N          -1.9404  -10.3027  -45.6921 N.am      3 UNK        -0.5000 
     60 C          -2.6310   -9.9298  -44.6053 C.2       2 UNK         0.5000 
     61 O          -2.7092   -8.7656  -44.2123 O.2       2 UNK        -0.5000 
     62 CA         -3.3310  -11.0489  -43.8009 C.3       2 UNK         0.1400 
     63 CB         -4.8023  -11.1694  -44.2259 C.3       2 UNK        -0.1800 
     64 N          -2.6956  -12.3687  -43.9136 N.am      2 UNK        -0.5000 
     65 C          -1.4317  -12.6480  -43.5615 C.2       1 UNK         0.5000 
     66 O          -0.6795  -11.8029  -43.0711 O.2       1 UNK        -0.5000 
     67 C          -3.0535  -22.9975  -45.9382 C.2       11 UNK         0.5000 
     68 O          -4.0886  -23.6327  -46.1336 O.2       11 UNK        -0.5000 
     69 N          -2.3250  -23.0890  -44.8167 N.am      12 UNK        -0.5000 
     70 CA         -2.6430  -23.9637  -43.6871 C.3       12 UNK         0.1400 
     71 CB         -1.6897  -23.6500  -42.5241 C.3       12 UNK        -0.1800 
     72 C          -2.5877  -25.4629  -44.0380 C.2       12 UNK         0.5000 
     73 O          -3.3832  -26.2375  -43.5053 O.2       12 UNK        -0.5000 
     74 N          -1.6594  -25.8423  -44.9260 N.am      13 UNK        -0.5000 
     75 CA         -1.4952  -27.2114  -45.4096 C.3       13 UNK         0.1400 
     76 CB         -0.0690  -27.3889  -45.9545 C.3       13 UNK        -0.1800 
     77 C          -2.5404  -27.5753  -46.4789 C.2       13 UNK         0.5000 
     78 O          -3.1243  -28.6579  -46.4174 O.2       13 UNK        -0.5000 
     79 N          -2.7461  -26.6701  -47.4439 N.am      14 UNK        -0.5000 
     80 CA         -3.6329  -26.8587  -48.5914 C.3       14 UNK         0.1400 
     81 CB         -3.2243  -25.8682  -49.6877 C.3       14 UNK        -0.1800 
     82 C          -5.1282  -26.7126  -48.2521 C.2       14 UNK         0.5000 
     83 O          -5.9575  -27.3025  -48.9467 O.2       14 UNK        -0.5000 
     84 N          -5.4479  -25.9402  -47.2031 N.am      15 UNK        -0.5000 
     85 CA         -6.7835  -25.6841  -46.6583 C.3       15 UNK         0.1400 
     86 CB         -7.3331  -26.9520  -45.9679 C.3       15 UNK        -0.1800 
     87 C          -7.7313  -25.0843  -47.7168 C.2       15 UNK         0.5000 
     88 O          -7.5810  -23.9148  -48.0683 O.2       15 UNK        -0.5000 
     89 N          -8.6711  -25.8887  -48.2301 N.am      16 UNK        -0.5000 
     90 CA         -9.6133  -25.5091  -49.2856 C.3       16 UNK         0.1400 
     91 CB        -10.6780  -26.6087  -49.4180 C.3       16 UNK        -0.1800 
     92 C          -8.9454  -25.2392  -50.6505 C.2       16 UNK         0.5000 
     93 O          -9.5191  -24.5188  -51.4677 O.2       16 UNK        -0.5000 
     94 N          -7.7526  -25.8079  -50.8727 N.am      17 UNK        -0.5000 
     95 CA         -6.9679  -25.6672  -52.1005 C.3       17 UNK         0.1400 
     96 CB         -6.3351  -27.0309  -52.4305 C.3       17 UNK        -0.1800 
     97 C          -5.8988  -24.5573  -52.0060 C.2       17 UNK         0.5000 
     98 O          -5.0109  -24.5118  -52.8588 O.2       17 UNK        -0.5000 
     99 N          -5.9641  -23.7075  -50.9690 N.am      18 UNK        -0.5000 
    100 CA        -5.0173  -22.6231  -50.7002 C.3       18 UNK         0.1400 
    101 CB        -5.4203  -21.9129  -49.4005 C.3       18 UNK        -0.1800 
    102 C         -4.9104  -21.6034  -51.8603 C.2       18 UNK         0.5000 
    103 O         -5.9320  -21.0205  -52.2246 O.2       18 UNK        -0.5000 
    104 N         -3.7258  -21.3548  -52.4352 N.am      19 UNK        -0.5000 
    105 CA        -2.4503  -22.0373  -52.2294 C.3       19 UNK         0.1400 
    106 CB        -1.7361  -21.4784  -50.9862 C.3       19 UNK        -0.1800 
    107 C         -1.5820  -21.8260  -53.4732 C.2       19 UNK         0.5000 
    108 O         -1.7053  -20.7934  -54.1362 O.2       19 UNK        -0.5000 
    109 N         -0.6765  -22.7756  -53.7381 N.am      20 UNK        -0.5000 
    110 CA         0.2516  -22.7619  -54.8759 C.3       20 UNK         0.1400 
    111 CB         0.9696  -24.1192  -54.9411 C.3       20 UNK        -0.1800 
    112 C          1.2789  -21.6095  -54.8501 C.2       20 UNK         0.5000 
    113 O          1.8871  -21.3188  -55.8807 O.2       20 UNK        -0.5000 
    114 N          1.4515  -20.9779  -53.6809 N.am      21 UNK        -0.5000 
    115 CA         2.3228  -19.8272  -53.4556 C.3       21 UNK         0.1400 
    116 CB         2.3793  -19.5405  -51.9451 C.3       21 UNK        -0.1800 
    117 C          1.8930  -18.5607  -54.2226 C.2       21 UNK         0.5000 
    118 O          2.7621  -17.7851  -54.6241 O.2       21 UNK        -0.5000 
    119 N          0.5794  -18.3604  -54.3994 N.am      22 UNK        -0.5000 
    120 CA         0.0061  -17.1218  -54.9574 C.3       22 UNK         0.1400 
    121 C         -1.4622  -17.2281  -55.4613 C.2       22 UNK         0.5000 
    122 N         -2.1477  -18.3596  -55.3703 N.am      22 UNK        -0.7600 
    123 O         -1.9977  -16.2543  -55.9840 O.2       22 UNK        -0.5000 
    124 C124        0.2288  -15.8759  -54.0453 C.3       23 UNK        -0.0398 
    125 S125       -0.1176  -16.1573  -52.2742 S.3       23 UNK        -0.2404 
    126 C126       -1.8419  -15.6102  -52.1298 C.3       23 UNK        -0.0205 
    127 H127        2.9879  -14.0485  -41.4006 H         1 UNK         0.0600 
    128 H128        2.9553  -15.3901  -42.5525 H         1 UNK         0.0600 
    129 H129        3.0498  -13.7208  -43.1312 H         1 UNK         0.0600 
    130 H130        1.1200  -14.1990  -44.4385 H         1 UNK         0.3000 
    131 H131       -1.4248  -14.7320  -43.1470 H         1 UNK         0.0600 
    132 H132       -2.3584  -14.8199  -45.2989 H         1 UNK         0.0800 
    133 H133       -0.8035  -15.5519  -45.4753 H         1 UNK         0.0800 
    134 H134       -3.2938  -13.3854  -46.9201 H         1 UNK         0.0800 
    135 H135       -2.4757  -12.5441  -48.2027 H         1 UNK         0.0800 
    136 H136       -1.7622  -13.6670  -50.2245 H         1 UNK         0.1150 
    137 H137       -2.8947  -17.7593  -50.8205 H         1 UNK         0.1150 
    138 H138       -3.4021  -15.9377  -46.9777 H         1 UNK         0.1150 
    139 H139       -4.2275  -18.1406  -47.3284 H         1 UNK         0.0800 
    140 H140       -4.4417  -18.7443  -48.9589 H         1 UNK         0.0800 
    141 H141       -2.6001  -20.2748  -45.8061 H         1 UNK         0.0800 
    142 H142       -4.0380  -20.5489  -46.7562 H         1 UNK         0.0800 
    143 H143       -2.9769  -22.4004  -47.9763 H         1 UNK         0.0600 
    144 H144       -0.4996  -21.3884  -47.1487 H         1 UNK         0.3000 
    145 H145        1.4359  -24.3804  -47.6123 H         1 UNK         0.0600 
    146 H146        2.6199  -22.7923  -49.1303 H         1 UNK         0.0600 
    147 H147        1.1520  -23.4167  -49.8655 H         1 UNK         0.0600 
    148 H148        1.1795  -21.7819  -49.2210 H         1 UNK         0.0600 
    149 H149        1.8032  -21.5797  -46.7976 H         1 UNK         0.3000 
    150 H150        1.9750  -22.3235  -43.3310 H         1 UNK         0.0600 
    151 H151        4.2697  -22.9596  -44.1103 H         1 UNK         0.0600 
    152 H152        4.2311  -21.3145  -43.4948 H         1 UNK         0.0600 
    153 H153        4.2703  -21.6040  -45.2336 H         1 UNK         0.0600 
    154 H154        2.4976  -19.9445  -44.8355 H         1 UNK         0.3000 
    155 H155       -0.8544  -18.8080  -45.1329 H         1 UNK         0.0600 
    156 H156       -0.2221  -18.3504  -42.7247 H         1 UNK         0.0600 
    157 H157       -0.0837  -16.9406  -43.7519 H         1 UNK         0.0600 
    158 H158        1.3651  -17.8178  -43.2679 H         1 UNK         0.0600 
    159 H159        1.3705  -17.3349  -45.7496 H         1 UNK         0.3000 
    160 H160        2.6198  -18.7401  -48.7037 H         1 UNK         0.0600 
    161 H161        0.5373  -16.4886  -48.5578 H         1 UNK         0.0600 
    162 H162        0.4009  -17.9274  -49.5568 H         1 UNK         0.0600 
    163 H163        1.6816  -16.7674  -49.8715 H         1 UNK         0.0600 
    164 H164        2.8887  -16.1109  -47.8174 H         1 UNK         0.3000 
    165 H165        4.7059  -16.1012  -45.0754 H         1 UNK         0.0600 
    166 H166        6.4914  -16.4978  -47.5361 H         1 UNK         0.0600 
    167 H167        6.9399  -15.6318  -46.0657 H         1 UNK         0.0600 
    168 H168        6.6438  -17.3601  -46.0101 H         1 UNK         0.0600 
    169 H169        5.1129  -14.4674  -47.3893 H         1 UNK         0.3000 
    170 H170        4.1709  -12.3907  -47.3488 H         1 UNK         0.0600 
    171 H171        3.0240  -13.6048  -49.1588 H         1 UNK         0.0600 
    172 H172        1.4799  -13.4952  -48.3322 H         1 UNK         0.0600 
    173 H173        2.2547  -12.0396  -48.9537 H         1 UNK         0.0600 
    174 H174        1.4426  -11.8540  -46.4159 H         1 UNK         0.3000 
    175 H175        1.8625  -10.9385  -43.5107 H         1 UNK         0.0600 
    176 H176        1.9638   -8.4376  -43.3281 H         1 UNK         0.0600 
    177 H177        3.5532   -9.1807  -43.3546 H         1 UNK         0.0600 
    178 H178        2.9438   -8.3800  -44.7936 H         1 UNK         0.0600 
    179 H179       -0.0452  -10.6124  -44.4936 H         1 UNK         0.3000 
    180 H180       -1.4801   -8.3891  -46.4301 H         1 UNK         0.0600 
    181 H181       -2.2808   -9.9013  -48.2944 H         1 UNK         0.0600 
    182 H182       -0.7468   -9.1240  -48.6429 H         1 UNK         0.0600 
    183 H183       -0.7740  -10.8128  -48.1647 H         1 UNK         0.0600 
    184 H184       -1.9171  -11.2834  -45.9325 H         1 UNK         0.3000 
    185 H185       -3.3015  -10.7582  -42.7487 H         1 UNK         0.0600 
    186 H186       -5.3367  -11.8869  -43.6029 H         1 UNK         0.0600 
    187 H187       -5.3170  -10.2124  -44.1297 H         1 UNK         0.0600 
    188 H188       -4.8960  -11.4891  -45.2646 H         1 UNK         0.0600 
    189 H189       -3.2731  -13.1023  -44.2960 H         1 UNK         0.3000 
    190 H190       -1.5080  -22.4927  -44.7103 H         1 UNK         0.3000 
    191 H191       -3.6616  -23.7374  -43.3654 H         1 UNK         0.0600 
    192 H192       -1.9011  -24.2826  -41.6611 H         1 UNK         0.0600 
    193 H193       -1.7914  -22.6140  -42.2003 H         1 UNK         0.0600 
    194 H194       -0.6478  -23.8111  -42.8051 H         1 UNK         0.0600 
    195 H195       -1.0530  -25.1402  -45.3263 H         1 UNK         0.3000 
    196 H196       -1.6200  -27.8984  -44.5698 H         1 UNK         0.0600 
    197 H197        0.0915  -28.4102  -46.3021 H         1 UNK         0.0600 
    198 H198        0.6744  -27.1865  -45.1831 H         1 UNK         0.0600 
    199 H199        0.1322  -26.7212  -46.7927 H         1 UNK         0.0600 
    200 H200       -2.1898  -25.8174  -47.4428 H         1 UNK         0.3000 
    201 H201       -3.4842  -27.8690  -48.9784 H         1 UNK         0.0600 
    202 H202       -2.1861  -26.0157  -49.9858 H         1 UNK         0.0600 
    203 H203       -3.3275  -24.8409  -49.3411 H         1 UNK         0.0600 
    204 H204       -3.8367  -25.9910  -50.5796 H         1 UNK         0.0600 
    205 H205       -4.7058  -25.4069  -46.7608 H         1 UNK         0.3000 
    206 H206       -6.6611  -24.9187  -45.8905 H         1 UNK         0.0600 
    207 H207       -6.6771  -27.2613  -45.1539 H         1 UNK         0.0600 
    208 H208       -8.3170  -26.7687  -45.5343 H         1 UNK         0.0600 
    209 H209       -7.4215  -27.7954  -46.6532 H         1 UNK         0.0600 
    210 H210       -8.7069  -26.8467  -47.9133 H         1 UNK         0.3000 
    211 H211      -10.1103  -24.5869  -48.9776 H         1 UNK         0.0600 
    212 H212      -10.2359  -27.5634  -49.7060 H         1 UNK         0.0600 
    213 H213      -11.4181  -26.3477  -50.1757 H         1 UNK         0.0600 
    214 H214      -11.2138  -26.7550  -48.4799 H         1 UNK         0.0600 
    215 H215       -7.3316  -26.3679  -50.1371 H         1 UNK         0.3000 
    216 H216       -7.6252  -25.4003  -52.9303 H         1 UNK         0.0600 
    217 H217       -5.8039  -27.0007  -53.3825 H         1 UNK         0.0600 
    218 H218       -7.0956  -27.8076  -52.5122 H         1 UNK         0.0600 
    219 H219       -5.6221  -27.3413  -51.6665 H         1 UNK         0.0600 
    220 H220       -6.7248  -23.8091  -50.3107 H         1 UNK         0.3000 
    221 H221       -4.0572  -23.0928  -50.5144 H         1 UNK         0.0600 
    222 H222       -6.4385  -21.5251  -49.4502 H         1 UNK         0.0600 
    223 H223       -5.3579  -22.5873  -48.5468 H         1 UNK         0.0600 
    224 H224       -4.7583  -21.0725  -49.1972 H         1 UNK         0.0600 
    225 H225       -3.6859  -20.6850  -53.1925 H         1 UNK         0.3000 
    226 H226       -2.6137  -23.1115  -52.1272 H         1 UNK         0.0600 
    227 H227       -0.7743  -21.9673  -50.8321 H         1 UNK         0.0600 
    228 H228       -1.5486  -20.4074  -51.0774 H         1 UNK         0.0600 
    229 H229       -2.3182  -21.6321  -50.0812 H         1 UNK         0.0600 
    230 H230       -0.6260  -23.5858  -53.1374 H         1 UNK         0.3000 
    231 H231       -0.3395  -22.6432  -55.7863 H         1 UNK         0.0600 
    232 H232        1.6452  -24.1649  -55.7964 H         1 UNK         0.0600 
    233 H233        0.2580  -24.9380  -55.0489 H         1 UNK         0.0600 
    234 H234        1.5626  -24.3035  -54.0445 H         1 UNK         0.0600 
    235 H235        0.9148  -21.2988  -52.8902 H         1 UNK         0.3000 
    236 H236        3.3263  -20.0948  -53.7929 H         1 UNK         0.0600 
    237 H237        1.3938  -19.2982  -51.5448 H         1 UNK         0.0600 
    238 H238        2.7646  -20.3975  -51.3921 H         1 UNK         0.0600 
    239 H239        3.0346  -18.6951  -51.7311 H         1 UNK         0.0600 
    240 H240       -0.0771  -19.0467  -54.0563 H         1 UNK         0.3000 
    241 H241        0.5592  -16.9323  -55.8792 H         1 UNK         0.0600 
    242 H242       -3.0878  -18.3690  -55.7313 H         1 UNK         0.3800 
    243 H243       -1.7865  -19.2130  -54.9515 H         1 UNK         0.3800 
    244 H244       -0.3302  -15.0074  -54.3971 H         1 UNK         0.0800 
    245 H245        1.2745  -15.5743  -54.1116 H         1 UNK         0.0800 
    246 H246       -1.9362  -14.5869  -52.4963 H         1 UNK         0.0800 
    247 H247       -2.4789  -16.2304  -52.7621 H         1 UNK         0.0800 
@<TRIPOS>BOND
     1    1    2 1    
     2    1  127 1    
     3    1  128 1    
     4    1  129 1    
     5    2    3 2    
     6    2    4 am   BACKBONE|DICT|INTERRES
     7    4    5 1    
     8    4  130 1    
     9    5    6 1    
    10    5   65 1    
    11    5  131 1    
    12    6    7 1    
    13    6  132 1    
    14    6  133 1    
    15    7    8 1    
    16    8    9 1    
    17    8  134 1    
    18    8  135 1    
    19    9   10 ar   
    20    9   14 ar   
    21   10   11 ar   
    22   10  136 1    
    23   11   12 ar   
    24   11  126 1    
    25   12   13 ar   
    26   12  137 1    
    27   13   14 ar   
    28   13   15 1    
    29   14  138 1    
    30   15   16 1    
    31   15  139 1    
    32   15  140 1    
    33   16   17 1    
    34   17   18 1    
    35   17  141 1    
    36   17  142 1    
    37   18   19 1    
    38   18   67 1    
    39   18  143 1    
    40   19   20 am   BACKBONE|DICT|INTERRES
    41   19  144 1    
    42   20   21 2    
    43   20   22 1    
    44   22   23 1    
    45   22   24 1    
    46   22  145 1    
    47   23  146 1    
    48   23  147 1    
    49   23  148 1    
    50   24   25 am   BACKBONE|DICT|INTERRES
    51   24  149 1    
    52   25   26 2    
    53   25   27 1    
    54   27   28 1    
    55   27   29 1    
    56   27  150 1    
    57   28  151 1    
    58   28  152 1    
    59   28  153 1    
    60   29   30 am   BACKBONE|DICT|INTERRES
    61   29  154 1    
    62   30   31 2    
    63   30   32 1    
    64   32   33 1    
    65   32   34 1    
    66   32  155 1    
    67   33  156 1    
    68   33  157 1    
    69   33  158 1    
    70   34   35 am   BACKBONE|DICT|INTERRES
    71   34  159 1    
    72   35   36 2    
    73   35   37 1    
    74   37   38 1    
    75   37   39 1    
    76   37  160 1    
    77   38  161 1    
    78   38  162 1    
    79   38  163 1    
    80   39   40 am   BACKBONE|DICT|INTERRES
    81   39  164 1    
    82   40   41 2    
    83   40   42 1    
    84   42   43 1    
    85   42   44 1    
    86   42  165 1    
    87   43  166 1    
    88   43  167 1    
    89   43  168 1    
    90   44   45 am   BACKBONE|DICT|INTERRES
    91   44  169 1    
    92   45   46 2    
    93   45   47 1    
    94   47   48 1    
    95   47   49 1    
    96   47  170 1    
    97   48  171 1    
    98   48  172 1    
    99   48  173 1    
   100   49   50 am   BACKBONE|DICT|INTERRES
   101   49  174 1    
   102   50   51 2    
   103   50   52 1    
   104   52   53 1    
   105   52   54 1    
   106   52  175 1    
   107   53  176 1    
   108   53  177 1    
   109   53  178 1    
   110   54   55 am   BACKBONE|DICT|INTERRES
   111   54  179 1    
   112   55   56 2    
   113   55   57 1    
   114   57   58 1    
   115   57   59 1    
   116   57  180 1    
   117   58  181 1    
   118   58  182 1    
   119   58  183 1    
   120   59   60 am   BACKBONE|DICT|INTERRES
   121   59  184 1    
   122   60   61 2    
   123   60   62 1    
   124   62   63 1    
   125   62   64 1    
   126   62  185 1    
   127   63  186 1    
   128   63  187 1    
   129   63  188 1    
   130   64   65 am   BACKBONE|DICT|INTERRES
   131   64  189 1    
   132   65   66 2    
   133   67   68 2    
   134   67   69 am   BACKBONE|DICT|INTERRES
   135   69   70 1    
   136   69  190 1    
   137   70   71 1    
   138   70   72 1    
   139   70  191 1    
   140   71  192 1    
   141   71  193 1    
   142   71  194 1    
   143   72   73 2    
   144   72   74 am   BACKBONE|DICT|INTERRES
   145   74   75 1    
   146   74  195 1    
   147   75   76 1    
   148   75   77 1    
   149   75  196 1    
   150   76  197 1    
   151   76  198 1    
   152   76  199 1    
   153   77   78 2    
   154   77   79 am   BACKBONE|DICT|INTERRES
   155   79   80 1    
   156   79  200 1    
   157   80   81 1    
   158   80   82 1    
   159   80  201 1    
   160   81  202 1    
   161   81  203 1    
   162   81  204 1    
   163   82   83 2    
   164   82   84 am   BACKBONE|DICT|INTERRES
   165   84   85 1    
   166   84  205 1    
   167   85   86 1    
   168   85   87 1    
   169   85  206 1    
   170   86  207 1    
   171   86  208 1    
   172   86  209 1    
   173   87   88 2    
   174   87   89 am   BACKBONE|DICT|INTERRES
   175   89   90 1    
   176   89  210 1    
   177   90   91 1    
   178   90   92 1    
   179   90  211 1    
   180   91  212 1    
   181   91  213 1    
   182   91  214 1    
   183   92   93 2    
   184   92   94 am   BACKBONE|DICT|INTERRES
   185   94   95 1    
   186   94  215 1    
   187   95   96 1    
   188   95   97 1    
   189   95  216 1    
   190   96  217 1    
   191   96  218 1    
   192   96  219 1    
   193   97   98 2    
   194   97   99 am   BACKBONE|DICT|INTERRES
   195   99  100 1    
   196   99  220 1    
   197  100  101 1    
   198  100  102 1    
   199  100  221 1    
   200  101  222 1    
   201  101  223 1    
   202  101  224 1    
   203  102  103 2    
   204  102  104 am   BACKBONE|DICT|INTERRES
   205  104  105 1    
   206  104  225 1    
   207  105  106 1    
   208  105  107 1    
   209  105  226 1    
   210  106  227 1    
   211  106  228 1    
   212  106  229 1    
   213  107  108 2    
   214  107  109 am   BACKBONE|DICT|INTERRES
   215  109  110 1    
   216  109  230 1    
   217  110  111 1    
   218  110  112 1    
   219  110  231 1    
   220  111  232 1    
   221  111  233 1    
   222  111  234 1    
   223  112  113 2    
   224  112  114 am   BACKBONE|DICT|INTERRES
   225  114  115 1    
   226  114  235 1    
   227  115  116 1    
   228  115  117 1    
   229  115  236 1    
   230  116  237 1    
   231  116  238 1    
   232  116  239 1    
   233  117  118 2    
   234  117  119 am   BACKBONE|DICT|INTERRES
   235  119  120 1    
   236  119  240 1    
   237  120  121 1    
   238  120  124 1    
   239  120  241 1    
   240  121  122 am   BACKBONE|DICT|INTERRES
   241  121  123 2    
   242  122  242 1    
   243  122  243 1    
   244  124  125 1    
   245  124  244 1    
   246  124  245 1    
   247  125  126 1    
   248  126  246 1    
   249  126  247 1    
@<TRIPOS>SUBSTRUCTURE
     1 UNK         1 GROUP             0       ****    0 ROOT    
