@<TRIPOS>MOLECULE
3R540
247   249    1
SMALL
USER_CHARGES


@<TRIPOS>ATOM
      1 CA          8.3743  -13.9300  -48.3377 C.3       0 UNK        -0.1800 
      2 C           7.2539  -14.2200  -47.3487 C.2       0 UNK         0.5000 
      3 O           7.5206  -14.4311  -46.1651 O.2       0 UNK        -0.5000 
      4 N           6.0056  -14.2404  -47.8303 N.am      1 UNK        -0.5000 
      5 CA          4.7991  -14.4523  -47.0254 C.3       1 UNK         0.1400 
      6 C6          3.5617  -14.7353  -47.9101 C.3       23 UNK        -0.0398 
      7 S7          3.6523  -16.3736  -48.7150 S.3       23 UNK        -0.2404 
      8 C8          3.3337  -15.9672  -50.4670 C.3       23 UNK        -0.0205 
      9 C9          1.8543  -15.9325  -50.8547 C.ar      23 UNK        -0.0193 
     10 C10         1.4674  -16.4031  -52.1140 C.ar      23 UNK        -0.1150 
     11 C11         0.1311  -16.3466  -52.5219 C.ar      23 UNK        -0.0193 
     12 C12        -0.8333  -15.8294  -51.6525 C.ar      23 UNK        -0.1150 
     13 C13        -0.4649  -15.3546  -50.3911 C.ar      23 UNK        -0.0193 
     14 C14         0.8772  -15.4005  -50.0052 C.ar      23 UNK        -0.1150 
     15 C15        -1.5058  -14.7564  -49.4544 C.3       23 UNK        -0.0205 
     16 S16        -2.5852  -16.0143  -48.6994 S.3       23 UNK        -0.2404 
     17 C17        -1.4056  -17.0498  -47.7668 C.3       23 UNK        -0.0398 
     18 CA         -1.4230  -18.5219  -48.2373 C.3       11 UNK         0.1400 
     19 N          -0.1800  -19.2161  -47.8952 N.am      11 UNK        -0.5000 
     20 C           0.1766  -20.4143  -48.3798 C.2       10 UNK         0.5000 
     21 O          -0.4940  -21.0548  -49.1867 O.2       10 UNK        -0.5000 
     22 CA          1.4767  -21.0216  -47.8253 C.3       10 UNK         0.1400 
     23 CB          2.6941  -20.4769  -48.5868 C.3       10 UNK        -0.1800 
     24 N           1.6484  -20.7697  -46.3944 N.am      10 UNK        -0.5000 
     25 C           0.8286  -21.1966  -45.4260 C.2       9 UNK         0.5000 
     26 O          -0.1639  -21.8925  -45.6365 O.2       9 UNK        -0.5000 
     27 CA          1.1275  -20.7270  -43.9915 C.3       9 UNK         0.1400 
     28 CB          2.2315  -21.5751  -43.3344 C.3       9 UNK        -0.1800 
     29 N           1.4075  -19.2906  -43.8892 N.am      9 UNK        -0.5000 
     30 C           2.4605  -18.5906  -44.3360 C.2       8 UNK         0.5000 
     31 O           3.4071  -19.0777  -44.9541 O.2       8 UNK        -0.5000 
     32 CA          2.4300  -17.0765  -44.0660 C.3       8 UNK         0.1400 
     33 CB          1.6302  -16.3682  -45.1686 C.3       8 UNK        -0.1800 
     34 N           1.8501  -16.7478  -42.7644 N.am      8 UNK        -0.5000 
     35 C           2.3900  -17.0770  -41.5812 C.2       7 UNK         0.5000 
     36 O           3.4969  -17.6004  -41.4524 O.2       7 UNK        -0.5000 
     37 CA          1.5304  -16.8042  -40.3352 C.3       7 UNK         0.1400 
     38 CB          1.7266  -15.3651  -39.8358 C.3       7 UNK        -0.1800 
     39 N           0.1111  -17.0482  -40.5994 N.am      7 UNK        -0.5000 
     40 C          -0.4420  -18.2682  -40.6713 C.2       6 UNK         0.5000 
     41 O           0.1723  -19.3121  -40.4524 O.2       6 UNK        -0.5000 
     42 CA         -1.9262  -18.3390  -41.0761 C.3       6 UNK         0.1400 
     43 CB         -2.8282  -18.2801  -39.8344 C.3       6 UNK        -0.1800 
     44 N          -2.3134  -17.2742  -42.0019 N.am      6 UNK        -0.5000 
     45 C          -1.9322  -17.2080  -43.2842 C.2       5 UNK         0.5000 
     46 O          -1.2356  -18.0585  -43.8398 O.2       5 UNK        -0.5000 
     47 CA         -2.3779  -15.9629  -44.0705 C.3       5 UNK         0.1400 
     48 CB         -3.7377  -16.2087  -44.7416 C.3       5 UNK        -0.1800 
     49 N          -2.4351  -14.7380  -43.2689 N.am      5 UNK        -0.5000 
     50 C          -1.3702  -14.1692  -42.6898 C.2       4 UNK         0.5000 
     51 O          -0.2442  -14.6735  -42.6818 O.2       4 UNK        -0.5000 
     52 CA         -1.6008  -12.8267  -41.9823 C.3       4 UNK         0.1400 
     53 CB         -1.4596  -12.9790  -40.4601 C.3       4 UNK        -0.1800 
     54 N          -0.6212  -11.8587  -42.4664 N.am      4 UNK        -0.5000 
     55 C          -0.7974  -11.0740  -43.5379 C.2       3 UNK         0.5000 
     56 O          -1.8550  -10.9988  -44.1650 O.2       3 UNK        -0.5000 
     57 CA          0.4151  -10.2383  -43.9950 C.3       3 UNK         0.1400 
     58 CB          0.4164   -8.8666  -43.3027 C.3       3 UNK        -0.1800 
     59 N           1.6995  -10.9017  -43.7521 N.am      3 UNK        -0.5000 
     60 C           2.1179  -11.9962  -44.4012 C.2       2 UNK         0.5000 
     61 O           1.4709  -12.5501  -45.2939 O.2       2 UNK        -0.5000 
     62 CA          3.4720  -12.5767  -43.9453 C.3       2 UNK         0.1400 
     63 CB          3.3186  -13.2752  -42.5848 C.3       2 UNK        -0.1800 
     64 N           3.9958  -13.5499  -44.9027 N.am      2 UNK        -0.5000 
     65 C           4.5200  -13.2512  -46.0973 C.2       1 UNK         0.5000 
     66 O           4.7410  -12.1010  -46.4862 O.2       1 UNK        -0.5000 
     67 C          -2.6569  -19.2750  -47.6935 C.2       11 UNK         0.5000 
     68 O          -3.6349  -19.4474  -48.4209 O.2       11 UNK        -0.5000 
     69 N          -2.5748  -19.7507  -46.4404 N.am      12 UNK        -0.5000 
     70 CA         -3.6095  -20.5733  -45.8114 C.3       12 UNK         0.1400 
     71 CB         -3.3062  -20.7560  -44.3169 C.3       12 UNK        -0.1800 
     72 C          -3.7833  -21.9310  -46.5137 C.2       12 UNK         0.5000 
     73 O          -4.9166  -22.3429  -46.7559 O.2       12 UNK        -0.5000 
     74 N          -2.6648  -22.5749  -46.8766 N.am      13 UNK        -0.5000 
     75 CA         -2.6411  -23.8159  -47.6506 C.3       13 UNK         0.1400 
     76 CB         -1.2084  -24.3626  -47.7188 C.3       13 UNK        -0.1800 
     77 C          -3.2301  -23.6492  -49.0623 C.2       13 UNK         0.5000 
     78 O          -3.9547  -24.5342  -49.5162 O.2       13 UNK        -0.5000 
     79 N          -2.9347  -22.5204  -49.7212 N.am      14 UNK        -0.5000 
     80 CA         -3.5013  -22.1387  -51.0149 C.3       14 UNK         0.1400 
     81 CB         -2.7830  -20.8895  -51.5496 C.3       14 UNK        -0.1800 
     82 C          -5.0199  -21.9069  -50.9370 C.2       14 UNK         0.5000 
     83 O          -5.7549  -22.4248  -51.7770 O.2       14 UNK        -0.5000 
     84 N          -5.4664  -21.1713  -49.9086 N.am      15 UNK        -0.5000 
     85 CA         -6.8779  -20.8961  -49.6279 C.3       15 UNK         0.1400 
     86 CB         -6.9816  -19.8623  -48.4964 C.3       15 UNK        -0.1800 
     87 C          -7.6859  -22.1633  -49.2866 C.2       15 UNK         0.5000 
     88 O          -8.8298  -22.2920  -49.7241 O.2       15 UNK        -0.5000 
     89 N          -7.0668  -23.0878  -48.5405 N.am      16 UNK        -0.5000 
     90 CA         -7.6197  -24.3992  -48.1943 C.3       16 UNK         0.1400 
     91 CB         -6.8343  -24.9630  -46.9991 C.3       16 UNK        -0.1800 
     92 C          -7.6008  -25.4085  -49.3611 C.2       16 UNK         0.5000 
     93 O          -8.2301  -26.4611  -49.2482 O.2       16 UNK        -0.5000 
     94 N          -6.8626  -25.0904  -50.4353 N.am      17 UNK        -0.5000 
     95 CA         -6.5761  -25.9255  -51.6068 C.3       17 UNK         0.1400 
     96 CB         -7.8612  -26.2396  -52.4003 C.3       17 UNK        -0.1800 
     97 C          -5.7444  -27.1838  -51.2684 C.2       17 UNK         0.5000 
     98 O          -5.8252  -28.1895  -51.9764 O.2       17 UNK        -0.5000 
     99 N          -4.9422  -27.0968  -50.1988 N.am      18 UNK        -0.5000 
    100 CA        -3.9216  -28.0766  -49.8289 C.3       18 UNK         0.1400 
    101 CB        -3.6260  -27.9520  -48.3262 C.3       18 UNK        -0.1800 
    102 C         -2.6420  -27.8649  -50.6589 C.2       18 UNK         0.5000 
    103 O         -1.9925  -28.8374  -51.0447 O.2       18 UNK        -0.5000 
    104 N         -2.3385  -26.5942  -50.9466 N.am      19 UNK        -0.5000 
    105 CA        -1.3811  -26.1503  -51.9545 C.3       19 UNK         0.1400 
    106 CB        -0.4723  -25.0743  -51.3339 C.3       19 UNK        -0.1800 
    107 C         -2.1618  -25.5903  -53.1580 C.2       19 UNK         0.5000 
    108 O         -3.3940  -25.5262  -53.1213 O.2       19 UNK        -0.5000 
    109 N         -1.4370  -25.1838  -54.2081 N.am      20 UNK        -0.5000 
    110 CA        -1.9980  -24.5211  -55.3875 C.3       20 UNK         0.1400 
    111 CB        -0.8826  -24.2894  -56.4182 C.3       20 UNK        -0.1800 
    112 C         -2.6769  -23.1897  -55.0141 C.2       20 UNK         0.5000 
    113 O         -2.0781  -22.3847  -54.2981 O.2       20 UNK        -0.5000 
    114 N         -3.9094  -22.9894  -55.4949 N.am      21 UNK        -0.5000 
    115 CA        -4.7530  -21.8303  -55.2044 C.3       21 UNK         0.1400 
    116 CB        -6.2193  -22.2024  -55.4868 C.3       21 UNK        -0.1800 
    117 C         -4.2935  -20.5814  -55.9826 C.2       21 UNK         0.5000 
    118 O         -4.9431  -20.1735  -56.9470 O.2       21 UNK        -0.5000 
    119 N         -3.1551  -20.0200  -55.5632 N.am      22 UNK        -0.5000 
    120 CA        -2.5062  -18.8450  -56.1633 C.3       22 UNK         0.1400 
    121 C         -3.2424  -17.4853  -55.9660 C.2       22 UNK         0.5000 
    122 N         -4.2514  -17.3884  -55.1089 N.am      22 UNK        -0.7600 
    123 O         -2.8944  -16.5009  -56.6125 O.2       22 UNK        -0.5000 
    124 C124       -1.0101  -18.7650  -55.7630 C.3       23 UNK        -0.0398 
    125 S125       -0.7146  -18.5586  -53.9683 S.3       23 UNK        -0.2404 
    126 C126       -0.2593  -16.7984  -53.9196 C.3       23 UNK        -0.0205 
    127 H127        7.9941  -13.7755  -49.3479 H         1 UNK         0.0600 
    128 H128        8.9164  -13.0331  -48.0378 H         1 UNK         0.0600 
    129 H129        9.0775  -14.7624  -48.3631 H         1 UNK         0.0600 
    130 H130        5.8505  -14.0460  -48.8085 H         1 UNK         0.3000 
    131 H131        4.9741  -15.3265  -46.3936 H         1 UNK         0.0600 
    132 H132        3.4422  -13.9498  -48.6581 H         1 UNK         0.0800 
    133 H133        2.6485  -14.7117  -47.3148 H         1 UNK         0.0800 
    134 H134        3.7963  -15.0135  -50.7229 H         1 UNK         0.0800 
    135 H135        3.8470  -16.7201  -51.0671 H         1 UNK         0.0800 
    136 H136        2.2118  -16.7991  -52.7907 H         1 UNK         0.1150 
    137 H137       -1.8683  -15.7834  -51.9617 H         1 UNK         0.1150 
    138 H138        1.1518  -15.0128  -49.0378 H         1 UNK         0.1150 
    139 H139       -1.0279  -14.1766  -48.6629 H         1 UNK         0.0800 
    140 H140       -2.1252  -14.0525  -50.0119 H         1 UNK         0.0800 
    141 H141       -1.6319  -16.9815  -46.7056 H         1 UNK         0.0800 
    142 H142       -0.4051  -16.6324  -47.8751 H         1 UNK         0.0800 
    143 H143       -1.4888  -18.5267  -49.3282 H         1 UNK         0.0600 
    144 H144        0.4298  -18.7704  -47.2274 H         1 UNK         0.3000 
    145 H145        1.4315  -22.1023  -47.9733 H         1 UNK         0.0600 
    146 H146        3.6142  -20.9581  -48.2550 H         1 UNK         0.0600 
    147 H147        2.5990  -20.6598  -49.6580 H         1 UNK         0.0600 
    148 H148        2.8094  -19.4015  -48.4462 H         1 UNK         0.0600 
    149 H149        2.4415  -20.1992  -46.1127 H         1 UNK         0.3000 
    150 H150        0.2136  -20.8826  -43.4158 H         1 UNK         0.0600 
    151 H151        1.9515  -22.6290  -43.3183 H         1 UNK         0.0600 
    152 H152        2.3994  -21.2668  -42.3022 H         1 UNK         0.0600 
    153 H153        3.1801  -21.4994  -43.8662 H         1 UNK         0.0600 
    154 H154        0.6435  -18.7521  -43.4949 H         1 UNK         0.3000 
    155 H155        3.4583  -16.7104  -44.0868 H         1 UNK         0.0600 
    156 H156        1.6517  -15.2860  -45.0462 H         1 UNK         0.0600 
    157 H157        0.5864  -16.6770  -45.1714 H         1 UNK         0.0600 
    158 H158        2.0347  -16.6053  -46.1518 H         1 UNK         0.0600 
    159 H159        0.9706  -16.2405  -42.7693 H         1 UNK         0.3000 
    160 H160        1.8608  -17.4816  -39.5448 H         1 UNK         0.0600 
    161 H161        1.4315  -14.6328  -40.5858 H         1 UNK         0.0600 
    162 H162        2.7731  -15.1776  -39.5924 H         1 UNK         0.0600 
    163 H163        1.1436  -15.1769  -38.9342 H         1 UNK         0.0600 
    164 H164       -0.4501  -16.2439  -40.8383 H         1 UNK         0.3000 
    165 H165       -2.0886  -19.2994  -41.5704 H         1 UNK         0.0600 
    166 H166       -2.7247  -17.3322  -39.3049 H         1 UNK         0.0600 
    167 H167       -3.8775  -18.4024  -40.1036 H         1 UNK         0.0600 
    168 H168       -2.5789  -19.0773  -39.1328 H         1 UNK         0.0600 
    169 H169       -2.8903  -16.5330  -41.6321 H         1 UNK         0.3000 
    170 H170       -1.6351  -15.7880  -44.8487 H         1 UNK         0.0600 
    171 H171       -3.7248  -17.1225  -45.3374 H         1 UNK         0.0600 
    172 H172       -4.5371  -16.3102  -44.0067 H         1 UNK         0.0600 
    173 H173       -3.9988  -15.3905  -45.4132 H         1 UNK         0.0600 
    174 H174       -3.3277  -14.2672  -43.2277 H         1 UNK         0.3000 
    175 H175       -2.6119  -12.4727  -42.1949 H         1 UNK         0.0600 
    176 H176       -1.6734  -12.0384  -39.9522 H         1 UNK         0.0600 
    177 H177       -2.1581  -13.7224  -40.0738 H         1 UNK         0.0600 
    178 H178       -0.4556  -13.2894  -40.1725 H         1 UNK         0.0600 
    179 H179        0.2957  -11.9011  -42.0480 H         1 UNK         0.3000 
    180 H180        0.3158  -10.0753  -45.0704 H         1 UNK         0.0600 
    181 H181        0.5350   -8.9599  -42.2224 H         1 UNK         0.0600 
    182 H182       -0.5194   -8.3365  -43.4854 H         1 UNK         0.0600 
    183 H183        1.2233   -8.2362  -43.6768 H         1 UNK         0.0600 
    184 H184        2.2852  -10.5000  -43.0341 H         1 UNK         0.3000 
    185 H185        4.1891  -11.7589  -43.8478 H         1 UNK         0.0600 
    186 H186        4.2565  -13.7259  -42.2594 H         1 UNK         0.0600 
    187 H187        3.0124  -12.5725  -41.8092 H         1 UNK         0.0600 
    188 H188        2.5654  -14.0612  -42.6286 H         1 UNK         0.0600 
    189 H189        3.8333  -14.5169  -44.6716 H         1 UNK         0.3000 
    190 H190       -1.7396  -19.5832  -45.8982 H         1 UNK         0.3000 
    191 H191       -4.5581  -20.0388  -45.8959 H         1 UNK         0.0600 
    192 H192       -3.3537  -19.8046  -43.7892 H         1 UNK         0.0600 
    193 H193       -4.0354  -21.4180  -43.8483 H         1 UNK         0.0600 
    194 H194       -2.3185  -21.1854  -44.1502 H         1 UNK         0.0600 
    195 H195       -1.7654  -22.1983  -46.5877 H         1 UNK         0.3000 
    196 H196       -3.2559  -24.5459  -47.1204 H         1 UNK         0.0600 
    197 H197       -1.1817  -25.3203  -48.2398 H         1 UNK         0.0600 
    198 H198       -0.7999  -24.5240  -46.7212 H         1 UNK         0.0600 
    199 H199       -0.5413  -23.6812  -48.2471 H         1 UNK         0.0600 
    200 H200       -2.2624  -21.8762  -49.3155 H         1 UNK         0.3000 
    201 H201       -3.3257  -22.9573  -51.7158 H         1 UNK         0.0600 
    202 H202       -1.7254  -21.0900  -51.7222 H         1 UNK         0.0600 
    203 H203       -2.8539  -20.0490  -50.8607 H         1 UNK         0.0600 
    204 H204       -3.2079  -20.5657  -52.4993 H         1 UNK         0.0600 
    205 H205       -4.7881  -20.7436  -49.2834 H         1 UNK         0.3000 
    206 H206       -7.3146  -20.4589  -50.5281 H         1 UNK         0.0600 
    207 H207       -6.4754  -18.9342  -48.7631 H         1 UNK         0.0600 
    208 H208       -8.0230  -19.6166  -48.2850 H         1 UNK         0.0600 
    209 H209       -6.5362  -20.2312  -47.5722 H         1 UNK         0.0600 
    210 H210       -6.1548  -22.8662  -48.1501 H         1 UNK         0.3000 
    211 H211       -8.6601  -24.2682  -47.8901 H         1 UNK         0.0600 
    212 H212       -5.7822  -25.1110  -47.2455 H         1 UNK         0.0600 
    213 H213       -7.2360  -25.9261  -46.6820 H         1 UNK         0.0600 
    214 H214       -6.8862  -24.2924  -46.1412 H         1 UNK         0.0600 
    215 H215       -6.3809  -24.2004  -50.4219 H         1 UNK         0.3000 
    216 H216       -5.9418  -25.3146  -52.2503 H         1 UNK         0.0600 
    217 H217       -8.4201  -25.3298  -52.6197 H         1 UNK         0.0600 
    218 H218       -8.5199  -26.9176  -51.8575 H         1 UNK         0.0600 
    219 H219       -7.6239  -26.7109  -53.3546 H         1 UNK         0.0600 
    220 H220       -4.8923  -26.1982  -49.7286 H         1 UNK         0.3000 
    221 H221       -4.2976  -29.0828  -50.0254 H         1 UNK         0.0600 
    222 H222       -3.2444  -26.9636  -48.0693 H         1 UNK         0.0600 
    223 H223       -4.5238  -28.1278  -47.7333 H         1 UNK         0.0600 
    224 H224       -2.8802  -28.6840  -48.0140 H         1 UNK         0.0600 
    225 H225       -2.9835  -25.8796  -50.6263 H         1 UNK         0.3000 
    226 H226       -0.7662  -26.9838  -52.2995 H         1 UNK         0.0600 
    227 H227        0.0208  -25.4458  -50.4358 H         1 UNK         0.0600 
    228 H228        0.3127  -24.7719  -52.0274 H         1 UNK         0.0600 
    229 H229       -1.0298  -24.1773  -51.0648 H         1 UNK         0.0600 
    230 H230       -0.4304  -25.2397  -54.1623 H         1 UNK         0.3000 
    231 H231       -2.7409  -25.1903  -55.8267 H         1 UNK         0.0600 
    232 H232       -1.2756  -23.8132  -57.3174 H         1 UNK         0.0600 
    233 H233       -0.4240  -25.2302  -56.7231 H         1 UNK         0.0600 
    234 H234       -0.0969  -23.6443  -56.0225 H         1 UNK         0.0600 
    235 H235       -4.3174  -23.6917  -56.0945 H         1 UNK         0.3000 
    236 H236       -4.6753  -21.5998  -54.1409 H         1 UNK         0.0600 
    237 H237       -6.8822  -21.3621  -55.2769 H         1 UNK         0.0600 
    238 H238       -6.3721  -22.4920  -56.5272 H         1 UNK         0.0600 
    239 H239       -6.5409  -23.0312  -54.8553 H         1 UNK         0.0600 
    240 H240       -2.6465  -20.4752  -54.8124 H         1 UNK         0.3000 
    241 H241       -2.5230  -19.0121  -57.2420 H         1 UNK         0.0600 
    242 H242       -4.5432  -18.1868  -54.5701 H         1 UNK         0.3800 
    243 H243       -4.7237  -16.5054  -54.9961 H         1 UNK         0.3800 
    244 H244       -0.5083  -19.6831  -56.0716 H         1 UNK         0.0800 
    245 H245       -0.5109  -17.9683  -56.3171 H         1 UNK         0.0800 
    246 H246        0.5686  -16.6188  -54.6073 H         1 UNK         0.0800 
    247 H247       -1.0939  -16.1967  -54.2823 H         1 UNK         0.0800 
@<TRIPOS>BOND
     1    1    2 1    
     2    1  127 1    
     3    1  128 1    
     4    1  129 1    
     5    2    3 2    
     6    2    4 am   BACKBONE|DICT|INTERRES
     7    4    5 1    
     8    4  130 1    
     9    5    6 1    
    10    5   65 1    
    11    5  131 1    
    12    6    7 1    
    13    6  132 1    
    14    6  133 1    
    15    7    8 1    
    16    8    9 1    
    17    8  134 1    
    18    8  135 1    
    19    9   10 ar   
    20    9   14 ar   
    21   10   11 ar   
    22   10  136 1    
    23   11   12 ar   
    24   11  126 1    
    25   12   13 ar   
    26   12  137 1    
    27   13   14 ar   
    28   13   15 1    
    29   14  138 1    
    30   15   16 1    
    31   15  139 1    
    32   15  140 1    
    33   16   17 1    
    34   17   18 1    
    35   17  141 1    
    36   17  142 1    
    37   18   19 1    
    38   18   67 1    
    39   18  143 1    
    40   19   20 am   BACKBONE|DICT|INTERRES
    41   19  144 1    
    42   20   21 2    
    43   20   22 1    
    44   22   23 1    
    45   22   24 1    
    46   22  145 1    
    47   23  146 1    
    48   23  147 1    
    49   23  148 1    
    50   24   25 am   BACKBONE|DICT|INTERRES
    51   24  149 1    
    52   25   26 2    
    53   25   27 1    
    54   27   28 1    
    55   27   29 1    
    56   27  150 1    
    57   28  151 1    
    58   28  152 1    
    59   28  153 1    
    60   29   30 am   BACKBONE|DICT|INTERRES
    61   29  154 1    
    62   30   31 2    
    63   30   32 1    
    64   32   33 1    
    65   32   34 1    
    66   32  155 1    
    67   33  156 1    
    68   33  157 1    
    69   33  158 1    
    70   34   35 am   BACKBONE|DICT|INTERRES
    71   34  159 1    
    72   35   36 2    
    73   35   37 1    
    74   37   38 1    
    75   37   39 1    
    76   37  160 1    
    77   38  161 1    
    78   38  162 1    
    79   38  163 1    
    80   39   40 am   BACKBONE|DICT|INTERRES
    81   39  164 1    
    82   40   41 2    
    83   40   42 1    
    84   42   43 1    
    85   42   44 1    
    86   42  165 1    
    87   43  166 1    
    88   43  167 1    
    89   43  168 1    
    90   44   45 am   BACKBONE|DICT|INTERRES
    91   44  169 1    
    92   45   46 2    
    93   45   47 1    
    94   47   48 1    
    95   47   49 1    
    96   47  170 1    
    97   48  171 1    
    98   48  172 1    
    99   48  173 1    
   100   49   50 am   BACKBONE|DICT|INTERRES
   101   49  174 1    
   102   50   51 2    
   103   50   52 1    
   104   52   53 1    
   105   52   54 1    
   106   52  175 1    
   107   53  176 1    
   108   53  177 1    
   109   53  178 1    
   110   54   55 am   BACKBONE|DICT|INTERRES
   111   54  179 1    
   112   55   56 2    
   113   55   57 1    
   114   57   58 1    
   115   57   59 1    
   116   57  180 1    
   117   58  181 1    
   118   58  182 1    
   119   58  183 1    
   120   59   60 am   BACKBONE|DICT|INTERRES
   121   59  184 1    
   122   60   61 2    
   123   60   62 1    
   124   62   63 1    
   125   62   64 1    
   126   62  185 1    
   127   63  186 1    
   128   63  187 1    
   129   63  188 1    
   130   64   65 am   BACKBONE|DICT|INTERRES
   131   64  189 1    
   132   65   66 2    
   133   67   68 2    
   134   67   69 am   BACKBONE|DICT|INTERRES
   135   69   70 1    
   136   69  190 1    
   137   70   71 1    
   138   70   72 1    
   139   70  191 1    
   140   71  192 1    
   141   71  193 1    
   142   71  194 1    
   143   72   73 2    
   144   72   74 am   BACKBONE|DICT|INTERRES
   145   74   75 1    
   146   74  195 1    
   147   75   76 1    
   148   75   77 1    
   149   75  196 1    
   150   76  197 1    
   151   76  198 1    
   152   76  199 1    
   153   77   78 2    
   154   77   79 am   BACKBONE|DICT|INTERRES
   155   79   80 1    
   156   79  200 1    
   157   80   81 1    
   158   80   82 1    
   159   80  201 1    
   160   81  202 1    
   161   81  203 1    
   162   81  204 1    
   163   82   83 2    
   164   82   84 am   BACKBONE|DICT|INTERRES
   165   84   85 1    
   166   84  205 1    
   167   85   86 1    
   168   85   87 1    
   169   85  206 1    
   170   86  207 1    
   171   86  208 1    
   172   86  209 1    
   173   87   88 2    
   174   87   89 am   BACKBONE|DICT|INTERRES
   175   89   90 1    
   176   89  210 1    
   177   90   91 1    
   178   90   92 1    
   179   90  211 1    
   180   91  212 1    
   181   91  213 1    
   182   91  214 1    
   183   92   93 2    
   184   92   94 am   BACKBONE|DICT|INTERRES
   185   94   95 1    
   186   94  215 1    
   187   95   96 1    
   188   95   97 1    
   189   95  216 1    
   190   96  217 1    
   191   96  218 1    
   192   96  219 1    
   193   97   98 2    
   194   97   99 am   BACKBONE|DICT|INTERRES
   195   99  100 1    
   196   99  220 1    
   197  100  101 1    
   198  100  102 1    
   199  100  221 1    
   200  101  222 1    
   201  101  223 1    
   202  101  224 1    
   203  102  103 2    
   204  102  104 am   BACKBONE|DICT|INTERRES
   205  104  105 1    
   206  104  225 1    
   207  105  106 1    
   208  105  107 1    
   209  105  226 1    
   210  106  227 1    
   211  106  228 1    
   212  106  229 1    
   213  107  108 2    
   214  107  109 am   BACKBONE|DICT|INTERRES
   215  109  110 1    
   216  109  230 1    
   217  110  111 1    
   218  110  112 1    
   219  110  231 1    
   220  111  232 1    
   221  111  233 1    
   222  111  234 1    
   223  112  113 2    
   224  112  114 am   BACKBONE|DICT|INTERRES
   225  114  115 1    
   226  114  235 1    
   227  115  116 1    
   228  115  117 1    
   229  115  236 1    
   230  116  237 1    
   231  116  238 1    
   232  116  239 1    
   233  117  118 2    
   234  117  119 am   BACKBONE|DICT|INTERRES
   235  119  120 1    
   236  119  240 1    
   237  120  121 1    
   238  120  124 1    
   239  120  241 1    
   240  121  122 am   BACKBONE|DICT|INTERRES
   241  121  123 2    
   242  122  242 1    
   243  122  243 1    
   244  124  125 1    
   245  124  244 1    
   246  124  245 1    
   247  125  126 1    
   248  126  246 1    
   249  126  247 1    
@<TRIPOS>SUBSTRUCTURE
     1 UNK         1 GROUP             0       ****    0 ROOT    
