@<TRIPOS>MOLECULE
3R540
247   249    1
SMALL
USER_CHARGES


@<TRIPOS>ATOM
      1 CA          0.6383  -14.8015  -48.8667 C.3       0 UNK        -0.1800 
      2 C           1.8330  -14.1431  -49.5433 C.2       0 UNK         0.5000 
      3 O           1.8225  -13.9622  -50.7604 O.2       0 UNK        -0.5000 
      4 N           2.8596  -13.7955  -48.7577 N.am      1 UNK        -0.5000 
      5 CA          4.1196  -13.1866  -49.2149 C.3       1 UNK         0.1400 
      6 C6          5.3427  -14.1199  -48.9925 C.3       23 UNK        -0.0398 
      7 S7          5.1978  -15.7160  -49.8662 S.3       23 UNK        -0.2404 
      8 C8          4.6214  -16.7832  -48.5060 C.3       23 UNK        -0.0205 
      9 C9          3.8802  -18.0204  -48.9929 C.ar      23 UNK        -0.0193 
     10 C10         2.8206  -17.9022  -49.8973 C.ar      23 UNK        -0.1150 
     11 C11         2.0767  -19.0216  -50.2757 C.ar      23 UNK        -0.0193 
     12 C12         2.4013  -20.2742  -49.7498 C.ar      23 UNK        -0.1150 
     13 C13         3.4534  -20.4061  -48.8388 C.ar      23 UNK        -0.0193 
     14 C14         4.1949  -19.2785  -48.4725 C.ar      23 UNK        -0.1150 
     15 C15         3.7780  -21.7566  -48.2215 C.3       23 UNK        -0.0205 
     16 S16         3.0904  -21.8927  -46.5412 S.3       23 UNK        -0.2404 
     17 C17         1.3369  -22.2701  -46.8808 C.3       23 UNK        -0.0398 
     18 CA          0.9812  -23.7200  -46.4835 C.3       11 UNK         0.1400 
     19 N           1.1869  -23.9628  -45.0553 N.am      11 UNK        -0.5000 
     20 C           1.4444  -25.1578  -44.5110 C.2       10 UNK         0.5000 
     21 O           1.5662  -26.1922  -45.1661 O.2       10 UNK        -0.5000 
     22 CA          1.5344  -25.2072  -42.9725 C.3       10 UNK         0.1400 
     23 CB          2.9693  -24.9165  -42.5088 C.3       10 UNK        -0.1800 
     24 N           0.6173  -24.2679  -42.3194 N.am      10 UNK        -0.5000 
     25 C          -0.7189  -24.3456  -42.3898 C.2       9 UNK         0.5000 
     26 O          -1.3122  -25.2599  -42.9604 O.2       9 UNK        -0.5000 
     27 CA         -1.5304  -23.1852  -41.7796 C.3       9 UNK         0.1400 
     28 CB         -1.9177  -23.5101  -40.3297 C.3       9 UNK        -0.1800 
     29 N          -0.8589  -21.8812  -41.8189 N.am      9 UNK        -0.5000 
     30 C          -0.4195  -21.2563  -42.9209 C.2       8 UNK         0.5000 
     31 O          -0.4766  -21.7467  -44.0504 O.2       8 UNK        -0.5000 
     32 CA          0.2550  -19.8897  -42.6879 C.3       8 UNK         0.1400 
     33 CB          1.6230  -20.0853  -42.0121 C.3       8 UNK        -0.1800 
     34 N           0.4644  -19.1063  -43.9068 N.am      8 UNK        -0.5000 
     35 C          -0.4844  -18.5773  -44.6906 C.2       7 UNK         0.5000 
     36 O          -1.6929  -18.7092  -44.4851 O.2       7 UNK        -0.5000 
     37 CA          0.0293  -17.7168  -45.8684 C.3       7 UNK         0.1400 
     38 CB          1.2131  -18.3599  -46.6113 C.3       7 UNK        -0.1800 
     39 N          -1.0007  -17.3980  -46.8567 N.am      7 UNK        -0.5000 
     40 C          -1.8869  -16.4023  -46.7552 C.2       6 UNK         0.5000 
     41 O          -1.9750  -15.6458  -45.7841 O.2       6 UNK        -0.5000 
     42 CA         -2.8046  -16.1964  -47.9684 C.3       6 UNK         0.1400 
     43 CB         -4.0425  -17.1060  -47.9180 C.3       6 UNK        -0.1800 
     44 N          -3.2217  -14.8010  -48.0104 N.am      6 UNK        -0.5000 
     45 C          -3.3842  -14.0688  -49.1181 C.2       5 UNK         0.5000 
     46 O          -3.2447  -14.5099  -50.2585 O.2       5 UNK        -0.5000 
     47 CA         -3.7452  -12.5827  -48.9264 C.3       5 UNK         0.1400 
     48 CB         -5.2556  -12.3655  -49.1030 C.3       5 UNK        -0.1800 
     49 N          -3.3359  -12.0404  -47.6273 N.am      5 UNK        -0.5000 
     50 C          -2.0714  -11.7526  -47.2950 C.2       4 UNK         0.5000 
     51 O          -1.1033  -11.9553  -48.0306 O.2       4 UNK        -0.5000 
     52 CA         -1.8496  -11.1477  -45.8968 C.3       4 UNK         0.1400 
     53 CB         -1.3246  -12.2142  -44.9237 C.3       4 UNK        -0.1800 
     54 N          -0.8962  -10.0413  -45.9503 N.am      4 UNK        -0.5000 
     55 C          -1.1373   -8.8489  -46.5136 C.2       3 UNK         0.5000 
     56 O          -2.2365   -8.5136  -46.9575 O.2       3 UNK        -0.5000 
     57 CA          0.0446   -7.8606  -46.5948 C.3       3 UNK         0.1400 
     58 CB         -0.0206   -6.8486  -45.4403 C.3       3 UNK        -0.1800 
     59 N           1.3550   -8.5178  -46.5777 N.am      3 UNK        -0.5000 
     60 C           1.8554   -9.2502  -47.5820 C.2       2 UNK         0.5000 
     61 O           1.2771   -9.4085  -48.6593 O.2       2 UNK        -0.5000 
     62 CA          3.2222   -9.9199  -47.3517 C.3       2 UNK         0.1400 
     63 CB          3.5792  -10.1279  -45.8633 C.3       2 UNK        -0.1800 
     64 N           3.2405  -11.2028  -48.0484 N.am      2 UNK        -0.5000 
     65 C           4.3266  -11.8111  -48.5401 C.2       1 UNK         0.5000 
     66 O           5.4587  -11.3303  -48.4616 O.2       1 UNK        -0.5000 
     67 C          -0.4599  -24.0720  -46.9025 C.2       11 UNK         0.5000 
     68 O          -0.6899  -24.3771  -48.0733 O.2       11 UNK        -0.5000 
     69 N          -1.4100  -24.0404  -45.9568 N.am      12 UNK        -0.5000 
     70 CA         -2.7845  -24.4975  -46.1624 C.3       12 UNK         0.1400 
     71 CB         -3.7146  -23.9020  -45.0971 C.3       12 UNK        -0.1800 
     72 C          -2.8630  -26.0317  -46.1919 C.2       12 UNK         0.5000 
     73 O          -3.5729  -26.5818  -47.0313 O.2       12 UNK        -0.5000 
     74 N          -2.0693  -26.6985  -45.3415 N.am      13 UNK        -0.5000 
     75 CA         -1.8559  -28.1490  -45.3577 C.3       13 UNK         0.1400 
     76 CB         -1.0358  -28.5558  -44.1245 C.3       13 UNK        -0.1800 
     77 C          -1.1794  -28.6412  -46.6549 C.2       13 UNK         0.5000 
     78 O          -1.4560  -29.7548  -47.1008 O.2       13 UNK        -0.5000 
     79 N          -0.3491  -27.7816  -47.2629 N.am      14 UNK        -0.5000 
     80 CA          0.2521  -27.9715  -48.5861 C.3       14 UNK         0.1400 
     81 CB          1.5298  -27.1210  -48.6771 C.3       14 UNK        -0.1800 
     82 C          -0.7094  -27.6397  -49.7511 C.2       14 UNK         0.5000 
     83 O          -0.3173  -27.7914  -50.9084 O.2       14 UNK        -0.5000 
     84 N          -1.9345  -27.1906  -49.4352 N.am      15 UNK        -0.5000 
     85 CA         -3.0323  -26.8317  -50.3393 C.3       15 UNK         0.1400 
     86 CB         -3.4625  -28.0352  -51.2042 C.3       15 UNK        -0.1800 
     87 C          -2.7883  -25.5537  -51.1689 C.2       15 UNK         0.5000 
     88 O          -3.4899  -25.3371  -52.1578 O.2       15 UNK        -0.5000 
     89 N          -1.8362  -24.7105  -50.7468 N.am      16 UNK        -0.5000 
     90 CA         -1.5590  -23.4128  -51.3596 C.3       16 UNK         0.1400 
     91 CB         -0.0609  -23.0868  -51.2356 C.3       16 UNK        -0.1800 
     92 C          -2.4390  -22.3398  -50.7038 C.2       16 UNK         0.5000 
     93 O          -3.3446  -21.8080  -51.3444 O.2       16 UNK        -0.5000 
     94 N          -2.2161  -22.1021  -49.4035 N.am      17 UNK        -0.5000 
     95 CA         -2.9383  -21.1075  -48.5997 C.3       17 UNK         0.1400 
     96 CB         -2.0972  -20.7358  -47.3706 C.3       17 UNK        -0.1800 
     97 C          -4.3669  -21.5377  -48.2057 C.2       17 UNK         0.5000 
     98 O          -5.0556  -20.7958  -47.5060 O.2       17 UNK        -0.5000 
     99 N          -4.7962  -22.7187  -48.6727 N.am      18 UNK        -0.5000 
    100 CA        -6.1812  -23.1826  -48.6312 C.3       18 UNK         0.1400 
    101 CB        -6.2201  -24.6740  -48.9958 C.3       18 UNK        -0.1800 
    102 C         -7.0877  -22.3650  -49.5735 C.2       18 UNK         0.5000 
    103 O         -8.2762  -22.2137  -49.2886 O.2       18 UNK        -0.5000 
    104 N         -6.5075  -21.8296  -50.6578 N.am      19 UNK        -0.5000 
    105 CA        -7.1289  -20.8223  -51.5089 C.3       19 UNK         0.1400 
    106 CB        -6.4960  -20.8867  -52.9067 C.3       19 UNK        -0.1800 
    107 C         -6.9106  -19.4358  -50.8838 C.2       19 UNK         0.5000 
    108 O         -5.8028  -19.1419  -50.4291 O.2       19 UNK        -0.5000 
    109 N         -7.9493  -18.5916  -50.9099 N.am      20 UNK        -0.5000 
    110 CA        -7.9547  -17.2514  -50.3100 C.3       20 UNK         0.1400 
    111 CB        -9.3795  -16.6805  -50.3802 C.3       20 UNK        -0.1800 
    112 C         -6.9486  -16.2641  -50.9361 C.2       20 UNK         0.5000 
    113 O         -6.5545  -15.3078  -50.2709 O.2       20 UNK        -0.5000 
    114 N         -6.5537  -16.5197  -52.1897 N.am      21 UNK        -0.5000 
    115 CA        -5.5432  -15.7649  -52.9325 C.3       21 UNK         0.1400 
    116 CB        -6.0695  -15.5332  -54.3597 C.3       21 UNK        -0.1800 
    117 C         -4.1728  -16.4764  -52.9564 C.2       21 UNK         0.5000 
    118 O         -3.2754  -16.0184  -53.6651 O.2       21 UNK        -0.5000 
    119 N         -4.0301  -17.5862  -52.2154 N.am      22 UNK        -0.5000 
    120 CA        -2.8158  -18.4164  -52.1163 C.3       22 UNK         0.1400 
    121 C         -2.4834  -19.2614  -53.3869 C.2       22 UNK         0.5000 
    122 N         -3.3667  -19.3538  -54.3741 N.am      22 UNK        -0.7600 
    123 O         -1.4162  -19.8608  -53.4802 O.2       22 UNK        -0.5000 
    124 C124       -1.5918  -17.6135  -51.5858 C.3       23 UNK        -0.0398 
    125 S125       -0.6257  -18.5077  -50.3209 S.3       23 UNK        -0.2404 
    126 C126        0.9094  -18.8601  -51.2319 C.3       23 UNK        -0.0205 
    127 H127        0.6839  -14.7102  -47.7812 H         1 UNK         0.0600 
    128 H128        0.5984  -15.8605  -49.1201 H         1 UNK         0.0600 
    129 H129       -0.2875  -14.3372  -49.2055 H         1 UNK         0.0600 
    130 H130        2.7965  -13.9539  -47.7620 H         1 UNK         0.3000 
    131 H131        4.0629  -12.9737  -50.2841 H         1 UNK         0.0600 
    132 H132        6.2535  -13.6445  -49.3606 H         1 UNK         0.0800 
    133 H133        5.5072  -14.2970  -47.9284 H         1 UNK         0.0800 
    134 H134        5.4801  -17.0591  -47.8920 H         1 UNK         0.0800 
    135 H135        3.9443  -16.2263  -47.8582 H         1 UNK         0.0800 
    136 H136        2.5581  -16.9309  -50.2911 H         1 UNK         0.1150 
    137 H137        1.8216  -21.1393  -50.0350 H         1 UNK         0.1150 
    138 H138        4.9954  -19.3794  -47.7530 H         1 UNK         0.1150 
    139 H139        3.4090  -22.5729  -48.8445 H         1 UNK         0.0800 
    140 H140        4.8609  -21.8785  -48.1695 H         1 UNK         0.0800 
    141 H141        1.1239  -22.0972  -47.9359 H         1 UNK         0.0800 
    142 H142        0.7244  -21.5575  -46.3287 H         1 UNK         0.0800 
    143 H143        1.6427  -24.3832  -47.0440 H         1 UNK         0.0600 
    144 H144        1.0399  -23.1646  -44.4502 H         1 UNK         0.3000 
    145 H145        1.2681  -26.2180  -42.6563 H         1 UNK         0.0600 
    146 H146        3.0632  -25.0187  -41.4276 H         1 UNK         0.0600 
    147 H147        3.6745  -25.6141  -42.9628 H         1 UNK         0.0600 
    148 H148        3.2843  -23.9080  -42.7805 H         1 UNK         0.0600 
    149 H149        1.0304  -23.4873  -41.8311 H         1 UNK         0.3000 
    150 H150       -2.4485  -23.0901  -42.3615 H         1 UNK         0.0600 
    151 H151       -1.0410  -23.5776  -39.6843 H         1 UNK         0.0600 
    152 H152       -2.4439  -24.4639  -40.2699 H         1 UNK         0.0600 
    153 H153       -2.5813  -22.7495  -39.9179 H         1 UNK         0.0600 
    154 H154       -0.7526  -21.4162  -40.9288 H         1 UNK         0.3000 
    155 H155       -0.3872  -19.3074  -42.0242 H         1 UNK         0.0600 
    156 H156        2.3012  -20.6652  -42.6401 H         1 UNK         0.0600 
    157 H157        1.5287  -20.6095  -41.0604 H         1 UNK         0.0600 
    158 H158        2.0994  -19.1276  -41.8012 H         1 UNK         0.0600 
    159 H159        1.4277  -18.9676  -44.1723 H         1 UNK         0.3000 
    160 H160        0.3871  -16.7813  -45.4333 H         1 UNK         0.0600 
    161 H161        0.9368  -19.3017  -47.0832 H         1 UNK         0.0600 
    162 H162        2.0634  -18.5519  -45.9569 H         1 UNK         0.0600 
    163 H163        1.5689  -17.6934  -47.3950 H         1 UNK         0.0600 
    164 H164       -1.0100  -17.9762  -47.6843 H         1 UNK         0.3000 
    165 H165       -2.2260  -16.4274  -48.8622 H         1 UNK         0.0600 
    166 H166       -4.6723  -16.9609  -48.7959 H         1 UNK         0.0600 
    167 H167       -3.7588  -18.1574  -47.8995 H         1 UNK         0.0600 
    168 H168       -4.6492  -16.9120  -47.0330 H         1 UNK         0.0600 
    169 H169       -3.2797  -14.3510  -47.1067 H         1 UNK         0.3000 
    170 H170       -3.2307  -12.0195  -49.7081 H         1 UNK         0.0600 
    171 H171       -5.5834  -12.7043  -50.0867 H         1 UNK         0.0600 
    172 H172       -5.8315  -12.9175  -48.3592 H         1 UNK         0.0600 
    173 H173       -5.5176  -11.3106  -49.0206 H         1 UNK         0.0600 
    174 H174       -4.0761  -11.8471  -46.9680 H         1 UNK         0.3000 
    175 H175       -2.7983  -10.7654  -45.5139 H         1 UNK         0.0600 
    176 H176       -2.0390  -13.0317  -44.8206 H         1 UNK         0.0600 
    177 H177       -0.3824  -12.6448  -45.2658 H         1 UNK         0.0600 
    178 H178       -1.1635  -11.7982  -43.9290 H         1 UNK         0.0600 
    179 H179        0.0422  -10.2393  -45.6392 H         1 UNK         0.3000 
    180 H180       -0.0511   -7.3122  -47.5343 H         1 UNK         0.0600 
    181 H181        0.0845   -7.3363  -44.4704 H         1 UNK         0.0600 
    182 H182       -0.9739   -6.3181  -45.4392 H         1 UNK         0.0600 
    183 H183        0.7661   -6.0989  -45.5275 H         1 UNK         0.0600 
    184 H184        1.8940   -8.4265  -45.7286 H         1 UNK         0.3000 
    185 H185        3.9668   -9.2594  -47.8007 H         1 UNK         0.0600 
    186 H186        3.6700   -9.1779  -45.3359 H         1 UNK         0.0600 
    187 H187        2.8285  -10.7297  -45.3495 H         1 UNK         0.0600 
    188 H188        4.5376  -10.6361  -45.7562 H         1 UNK         0.0600 
    189 H189        2.3324  -11.6113  -48.2275 H         1 UNK         0.3000 
    190 H190       -1.1596  -23.7256  -45.0289 H         1 UNK         0.3000 
    191 H191       -3.1181  -24.1369  -47.1350 H         1 UNK         0.0600 
    192 H192       -3.6112  -22.8181  -45.0408 H         1 UNK         0.0600 
    193 H193       -4.7570  -24.1166  -45.3358 H         1 UNK         0.0600 
    194 H194       -3.5178  -24.3137  -44.1082 H         1 UNK         0.0600 
    195 H195       -1.5808  -26.1741  -44.6209 H         1 UNK         0.3000 
    196 H196       -2.8335  -28.6307  -45.2918 H         1 UNK         0.0600 
    197 H197       -0.9001  -29.6373  -44.0853 H         1 UNK         0.0600 
    198 H198       -1.5352  -28.2563  -43.2028 H         1 UNK         0.0600 
    199 H199       -0.0454  -28.1008  -44.1304 H         1 UNK         0.0600 
    200 H200       -0.1398  -26.9115  -46.7943 H         1 UNK         0.3000 
    201 H201        0.5376  -29.0202  -48.6897 H         1 UNK         0.0600 
    202 H202        2.0859  -27.3509  -49.5866 H         1 UNK         0.0600 
    203 H203        2.1951  -27.3097  -47.8342 H         1 UNK         0.0600 
    204 H204        1.3044  -26.0557  -48.6979 H         1 UNK         0.0600 
    205 H205       -2.1624  -27.0961  -48.4527 H         1 UNK         0.3000 
    206 H206       -3.8755  -26.5945  -49.6907 H         1 UNK         0.0600 
    207 H207       -3.6356  -28.9195  -50.5909 H         1 UNK         0.0600 
    208 H208       -4.3921  -27.8241  -51.7338 H         1 UNK         0.0600 
    209 H209       -2.7122  -28.2866  -51.9540 H         1 UNK         0.0600 
    210 H210       -1.3345  -24.9241  -49.8907 H         1 UNK         0.3000 
    211 H211       -1.8015  -23.4408  -52.4243 H         1 UNK         0.0600 
    212 H212        0.2784  -23.0717  -50.2004 H         1 UNK         0.0600 
    213 H213        0.1575  -22.1112  -51.6708 H         1 UNK         0.0600 
    214 H214        0.5422  -23.8216  -51.7688 H         1 UNK         0.0600 
    215 H215       -1.5171  -22.6586  -48.9278 H         1 UNK         0.3000 
    216 H216       -3.0480  -20.2054  -49.2042 H         1 UNK         0.0600 
    217 H217       -2.5516  -19.9102  -46.8236 H         1 UNK         0.0600 
    218 H218       -1.0954  -20.4219  -47.6596 H         1 UNK         0.0600 
    219 H219       -2.0076  -21.5615  -46.6693 H         1 UNK         0.0600 
    220 H220       -4.1585  -23.2498  -49.2454 H         1 UNK         0.3000 
    221 H221       -6.5566  -23.0638  -47.6127 H         1 UNK         0.0600 
    222 H222       -5.8396  -24.8538  -50.0021 H         1 UNK         0.0600 
    223 H223       -5.6267  -25.2654  -48.2988 H         1 UNK         0.0600 
    224 H224       -7.2404  -25.0576  -48.9575 H         1 UNK         0.0600 
    225 H225       -5.5100  -21.9499  -50.7855 H         1 UNK         0.3000 
    226 H226       -8.1989  -21.0216  -51.5996 H         1 UNK         0.0600 
    227 H227       -6.9358  -20.1431  -53.5723 H         1 UNK         0.0600 
    228 H228       -5.4216  -20.7033  -52.8693 H         1 UNK         0.0600 
    229 H229       -6.6499  -21.8645  -53.3631 H         1 UNK         0.0600 
    230 H230       -8.8209  -18.9007  -51.3162 H         1 UNK         0.3000 
    231 H231       -7.6825  -17.3606  -49.2580 H         1 UNK         0.0600 
    232 H232       -9.7198  -16.5748  -51.4111 H         1 UNK         0.0600 
    233 H233       -9.4293  -15.6947  -49.9156 H         1 UNK         0.0600 
    234 H234      -10.0884  -17.3208  -49.8549 H         1 UNK         0.0600 
    235 H235       -6.9481  -17.3235  -52.6555 H         1 UNK         0.3000 
    236 H236       -5.3851  -14.7896  -52.4672 H         1 UNK         0.0600 
    237 H237       -7.0260  -15.0104  -54.3459 H         1 UNK         0.0600 
    238 H238       -5.3781  -14.9218  -54.9410 H         1 UNK         0.0600 
    239 H239       -6.2082  -16.4729  -54.8957 H         1 UNK         0.0600 
    240 H240       -4.8062  -17.9008  -51.6425 H         1 UNK         0.3000 
    241 H241       -3.0818  -19.1559  -51.3625 H         1 UNK         0.0600 
    242 H242       -4.2439  -18.8643  -54.3258 H         1 UNK         0.3800 
    243 H243       -3.1422  -19.9082  -55.1848 H         1 UNK         0.3800 
    244 H244       -0.9538  -17.2807  -52.4058 H         1 UNK         0.0800 
    245 H245       -1.9232  -16.6911  -51.1108 H         1 UNK         0.0800 
    246 H246        0.7786  -19.7599  -51.8335 H         1 UNK         0.0800 
    247 H247        1.1301  -18.0522  -51.9307 H         1 UNK         0.0800 
@<TRIPOS>BOND
     1    1    2 1    
     2    1  127 1    
     3    1  128 1    
     4    1  129 1    
     5    2    3 2    
     6    2    4 am   BACKBONE|DICT|INTERRES
     7    4    5 1    
     8    4  130 1    
     9    5    6 1    
    10    5   65 1    
    11    5  131 1    
    12    6    7 1    
    13    6  132 1    
    14    6  133 1    
    15    7    8 1    
    16    8    9 1    
    17    8  134 1    
    18    8  135 1    
    19    9   10 ar   
    20    9   14 ar   
    21   10   11 ar   
    22   10  136 1    
    23   11   12 ar   
    24   11  126 1    
    25   12   13 ar   
    26   12  137 1    
    27   13   14 ar   
    28   13   15 1    
    29   14  138 1    
    30   15   16 1    
    31   15  139 1    
    32   15  140 1    
    33   16   17 1    
    34   17   18 1    
    35   17  141 1    
    36   17  142 1    
    37   18   19 1    
    38   18   67 1    
    39   18  143 1    
    40   19   20 am   BACKBONE|DICT|INTERRES
    41   19  144 1    
    42   20   21 2    
    43   20   22 1    
    44   22   23 1    
    45   22   24 1    
    46   22  145 1    
    47   23  146 1    
    48   23  147 1    
    49   23  148 1    
    50   24   25 am   BACKBONE|DICT|INTERRES
    51   24  149 1    
    52   25   26 2    
    53   25   27 1    
    54   27   28 1    
    55   27   29 1    
    56   27  150 1    
    57   28  151 1    
    58   28  152 1    
    59   28  153 1    
    60   29   30 am   BACKBONE|DICT|INTERRES
    61   29  154 1    
    62   30   31 2    
    63   30   32 1    
    64   32   33 1    
    65   32   34 1    
    66   32  155 1    
    67   33  156 1    
    68   33  157 1    
    69   33  158 1    
    70   34   35 am   BACKBONE|DICT|INTERRES
    71   34  159 1    
    72   35   36 2    
    73   35   37 1    
    74   37   38 1    
    75   37   39 1    
    76   37  160 1    
    77   38  161 1    
    78   38  162 1    
    79   38  163 1    
    80   39   40 am   BACKBONE|DICT|INTERRES
    81   39  164 1    
    82   40   41 2    
    83   40   42 1    
    84   42   43 1    
    85   42   44 1    
    86   42  165 1    
    87   43  166 1    
    88   43  167 1    
    89   43  168 1    
    90   44   45 am   BACKBONE|DICT|INTERRES
    91   44  169 1    
    92   45   46 2    
    93   45   47 1    
    94   47   48 1    
    95   47   49 1    
    96   47  170 1    
    97   48  171 1    
    98   48  172 1    
    99   48  173 1    
   100   49   50 am   BACKBONE|DICT|INTERRES
   101   49  174 1    
   102   50   51 2    
   103   50   52 1    
   104   52   53 1    
   105   52   54 1    
   106   52  175 1    
   107   53  176 1    
   108   53  177 1    
   109   53  178 1    
   110   54   55 am   BACKBONE|DICT|INTERRES
   111   54  179 1    
   112   55   56 2    
   113   55   57 1    
   114   57   58 1    
   115   57   59 1    
   116   57  180 1    
   117   58  181 1    
   118   58  182 1    
   119   58  183 1    
   120   59   60 am   BACKBONE|DICT|INTERRES
   121   59  184 1    
   122   60   61 2    
   123   60   62 1    
   124   62   63 1    
   125   62   64 1    
   126   62  185 1    
   127   63  186 1    
   128   63  187 1    
   129   63  188 1    
   130   64   65 am   BACKBONE|DICT|INTERRES
   131   64  189 1    
   132   65   66 2    
   133   67   68 2    
   134   67   69 am   BACKBONE|DICT|INTERRES
   135   69   70 1    
   136   69  190 1    
   137   70   71 1    
   138   70   72 1    
   139   70  191 1    
   140   71  192 1    
   141   71  193 1    
   142   71  194 1    
   143   72   73 2    
   144   72   74 am   BACKBONE|DICT|INTERRES
   145   74   75 1    
   146   74  195 1    
   147   75   76 1    
   148   75   77 1    
   149   75  196 1    
   150   76  197 1    
   151   76  198 1    
   152   76  199 1    
   153   77   78 2    
   154   77   79 am   BACKBONE|DICT|INTERRES
   155   79   80 1    
   156   79  200 1    
   157   80   81 1    
   158   80   82 1    
   159   80  201 1    
   160   81  202 1    
   161   81  203 1    
   162   81  204 1    
   163   82   83 2    
   164   82   84 am   BACKBONE|DICT|INTERRES
   165   84   85 1    
   166   84  205 1    
   167   85   86 1    
   168   85   87 1    
   169   85  206 1    
   170   86  207 1    
   171   86  208 1    
   172   86  209 1    
   173   87   88 2    
   174   87   89 am   BACKBONE|DICT|INTERRES
   175   89   90 1    
   176   89  210 1    
   177   90   91 1    
   178   90   92 1    
   179   90  211 1    
   180   91  212 1    
   181   91  213 1    
   182   91  214 1    
   183   92   93 2    
   184   92   94 am   BACKBONE|DICT|INTERRES
   185   94   95 1    
   186   94  215 1    
   187   95   96 1    
   188   95   97 1    
   189   95  216 1    
   190   96  217 1    
   191   96  218 1    
   192   96  219 1    
   193   97   98 2    
   194   97   99 am   BACKBONE|DICT|INTERRES
   195   99  100 1    
   196   99  220 1    
   197  100  101 1    
   198  100  102 1    
   199  100  221 1    
   200  101  222 1    
   201  101  223 1    
   202  101  224 1    
   203  102  103 2    
   204  102  104 am   BACKBONE|DICT|INTERRES
   205  104  105 1    
   206  104  225 1    
   207  105  106 1    
   208  105  107 1    
   209  105  226 1    
   210  106  227 1    
   211  106  228 1    
   212  106  229 1    
   213  107  108 2    
   214  107  109 am   BACKBONE|DICT|INTERRES
   215  109  110 1    
   216  109  230 1    
   217  110  111 1    
   218  110  112 1    
   219  110  231 1    
   220  111  232 1    
   221  111  233 1    
   222  111  234 1    
   223  112  113 2    
   224  112  114 am   BACKBONE|DICT|INTERRES
   225  114  115 1    
   226  114  235 1    
   227  115  116 1    
   228  115  117 1    
   229  115  236 1    
   230  116  237 1    
   231  116  238 1    
   232  116  239 1    
   233  117  118 2    
   234  117  119 am   BACKBONE|DICT|INTERRES
   235  119  120 1    
   236  119  240 1    
   237  120  121 1    
   238  120  124 1    
   239  120  241 1    
   240  121  122 am   BACKBONE|DICT|INTERRES
   241  121  123 2    
   242  122  242 1    
   243  122  243 1    
   244  124  125 1    
   245  124  244 1    
   246  124  245 1    
   247  125  126 1    
   248  126  246 1    
   249  126  247 1    
@<TRIPOS>SUBSTRUCTURE
     1 UNK         1 GROUP             0       ****    0 ROOT    
