@<TRIPOS>MOLECULE
3R540
247   249    1
SMALL
USER_CHARGES


@<TRIPOS>ATOM
      1 CA         -0.5100  -11.7946  -44.7368 C.3       0 UNK        -0.1800 
      2 C           0.4723  -11.5341  -45.8678 C.2       0 UNK         0.5000 
      3 O           0.2095  -10.6865  -46.7213 O.2       0 UNK        -0.5000 
      4 N           1.6052  -12.2476  -45.8736 N.am      1 UNK        -0.5000 
      5 CA          2.6564  -12.1601  -46.8963 C.3       1 UNK         0.1400 
      6 C6          3.6756  -13.3176  -46.7748 C.3       23 UNK        -0.0398 
      7 S7          2.9133  -14.9344  -47.1431 S.3       23 UNK        -0.2404 
      8 C8          3.6070  -15.2614  -48.7934 C.3       23 UNK        -0.0205 
      9 C9          3.0304  -16.5341  -49.3904 C.ar      23 UNK        -0.0193 
     10 C10         1.9028  -16.4749  -50.2148 C.ar      23 UNK        -0.1150 
     11 C11         1.3380  -17.6441  -50.7331 C.ar      23 UNK        -0.0193 
     12 C12         1.9352  -18.8737  -50.4440 C.ar      23 UNK        -0.1150 
     13 C13         3.0760  -18.9470  -49.6405 C.ar      23 UNK        -0.0193 
     14 C14         3.6161  -17.7722  -49.1102 C.ar      23 UNK        -0.1150 
     15 C15         3.7254  -20.2942  -49.3532 C.3       23 UNK        -0.0205 
     16 S16         2.9218  -21.1732  -47.9754 S.3       23 UNK        -0.2404 
     17 C17         1.3376  -21.6517  -48.7405 C.3       23 UNK        -0.0398 
     18 CA          0.5992  -22.7665  -47.9694 C.3       11 UNK         0.1400 
     19 N           0.1890  -22.3468  -46.6268 N.am      11 UNK        -0.5000 
     20 C          -0.3793  -23.1451  -45.7126 C.2       10 UNK         0.5000 
     21 O          -0.5653  -24.3508  -45.8747 O.2       10 UNK        -0.5000 
     22 CA         -0.8769  -22.4722  -44.4223 C.3       10 UNK         0.1400 
     23 CB          0.2675  -22.2869  -43.4141 C.3       10 UNK        -0.1800 
     24 N          -1.5180  -21.1849  -44.6915 N.am      10 UNK        -0.5000 
     25 C          -2.6920  -21.0444  -45.3233 C.2       9 UNK         0.5000 
     26 O          -3.3746  -21.9898  -45.7163 O.2       9 UNK        -0.5000 
     27 CA         -3.1632  -19.6055  -45.5961 C.3       9 UNK         0.1400 
     28 CB         -3.8348  -19.0062  -44.3516 C.3       9 UNK        -0.1800 
     29 N          -2.0721  -18.7322  -46.0246 N.am      9 UNK        -0.5000 
     30 C          -1.4236  -18.8482  -47.1924 C.2       8 UNK         0.5000 
     31 O          -1.6879  -19.6963  -48.0439 O.2       8 UNK        -0.5000 
     32 CA         -0.2538  -17.8770  -47.4301 C.3       8 UNK         0.1400 
     33 CB         -0.7814  -16.5392  -47.9712 C.3       8 UNK        -0.1800 
     34 N           0.5559  -17.6176  -46.2407 N.am      8 UNK        -0.5000 
     35 C           1.1276  -18.5402  -45.4535 C.2       7 UNK         0.5000 
     36 O           1.0376  -19.7522  -45.6386 O.2       7 UNK        -0.5000 
     37 CA          1.8729  -18.0217  -44.2113 C.3       7 UNK         0.1400 
     38 CB          3.3776  -17.9026  -44.4932 C.3       7 UNK        -0.1800 
     39 N           1.3634  -16.7325  -43.7390 N.am      7 UNK        -0.5000 
     40 C           0.1383  -16.5159  -43.2418 C.2       6 UNK         0.5000 
     41 O          -0.6987  -17.4098  -43.1014 O.2       6 UNK        -0.5000 
     42 CA         -0.2081  -15.0567  -42.8679 C.3       6 UNK         0.1400 
     43 CB         -1.5539  -14.9328  -42.1327 C.3       6 UNK        -0.1800 
     44 N           0.8289  -14.3953  -42.0688 N.am      6 UNK        -0.5000 
     45 C           2.0019  -13.9458  -42.5301 C.2       5 UNK         0.5000 
     46 O           2.3363  -14.0297  -43.7132 O.2       5 UNK        -0.5000 
     47 CA          2.9264  -13.2798  -41.4951 C.3       5 UNK         0.1400 
     48 CB          4.3897  -13.1844  -41.9786 C.3       5 UNK        -0.1800 
     49 N           2.4172  -11.9665  -41.0829 N.am      5 UNK        -0.5000 
     50 C           2.2489  -10.8889  -41.8626 C.2       4 UNK         0.5000 
     51 O           2.5198  -10.8620  -43.0675 O.2       4 UNK        -0.5000 
     52 CA          1.7120   -9.6220  -41.1625 C.3       4 UNK         0.1400 
     53 CB          2.7485   -9.0609  -40.1751 C.3       4 UNK        -0.1800 
     54 N           1.4269   -8.5924  -42.1554 N.am      4 UNK        -0.5000 
     55 C           0.3108   -8.5087  -42.8845 C.2       3 UNK         0.5000 
     56 O          -0.7447   -9.0685  -42.5875 O.2       3 UNK        -0.5000 
     57 CA          0.4182   -7.7292  -44.2114 C.3       3 UNK         0.1400 
     58 CB          0.3496   -6.2057  -43.9928 C.3       3 UNK        -0.1800 
     59 N           1.5903   -8.1317  -45.0076 N.am      3 UNK        -0.5000 
     60 C           2.8943   -7.9296  -44.7538 C.2       2 UNK         0.5000 
     61 O           3.3104   -7.2234  -43.8336 O.2       2 UNK        -0.5000 
     62 CA          3.8842   -8.7280  -45.6195 C.3       2 UNK         0.1400 
     63 CB          5.3074   -8.7694  -45.0323 C.3       2 UNK        -0.1800 
     64 N           3.3855  -10.0931  -45.7688 N.am      2 UNK        -0.5000 
     65 C           3.3771  -10.7940  -46.9081 C.2       1 UNK         0.5000 
     66 O           3.8862  -10.3936  -47.9561 O.2       1 UNK        -0.5000 
     67 C          -0.6002  -23.2766  -48.7926 C.2       11 UNK         0.5000 
     68 O          -0.5224  -24.3687  -49.3528 O.2       11 UNK        -0.5000 
     69 N          -1.6987  -22.5065  -48.8126 N.am      12 UNK        -0.5000 
     70 CA         -2.9436  -22.8657  -49.4926 C.3       12 UNK         0.1400 
     71 CB         -3.9125  -21.6762  -49.4528 C.3       12 UNK        -0.1800 
     72 C          -3.5956  -24.1348  -48.9116 C.2       12 UNK         0.5000 
     73 O          -4.0518  -24.9843  -49.6770 O.2       12 UNK        -0.5000 
     74 N          -3.5826  -24.2716  -47.5768 N.am      13 UNK        -0.5000 
     75 CA         -4.0342  -25.4683  -46.8657 C.3       13 UNK         0.1400 
     76 CB         -4.0146  -25.2228  -45.3497 C.3       13 UNK        -0.1800 
     77 C          -3.2143  -26.7178  -47.2369 C.2       13 UNK         0.5000 
     78 O          -3.8005  -27.7513  -47.5646 O.2       13 UNK        -0.5000 
     79 N          -1.8796  -26.5827  -47.2236 N.am      14 UNK        -0.5000 
     80 CA         -0.9265  -27.6247  -47.6113 C.3       14 UNK         0.1400 
     81 CB          0.5021  -27.1614  -47.2894 C.3       14 UNK        -0.1800 
     82 C          -1.0453  -28.0404  -49.0896 C.2       14 UNK         0.5000 
     83 O          -0.8965  -29.2234  -49.3985 O.2       14 UNK        -0.5000 
     84 N          -1.3654  -27.0832  -49.9706 N.am      15 UNK        -0.5000 
     85 CA         -1.6285  -27.2685  -51.4005 C.3       15 UNK         0.1400 
     86 CB         -1.4462  -25.9181  -52.1175 C.3       15 UNK        -0.1800 
     87 C          -3.0075  -27.9084  -51.6891 C.2       15 UNK         0.5000 
     88 O          -3.7369  -27.4348  -52.5613 O.2       15 UNK        -0.5000 
     89 N          -3.3300  -28.9856  -50.9591 N.am      16 UNK        -0.5000 
     90 CA         -4.5419  -29.8054  -51.0480 C.3       16 UNK         0.1400 
     91 CB         -4.5542  -30.6023  -52.3697 C.3       16 UNK        -0.1800 
     92 C          -5.8425  -29.0087  -50.8086 C.2       16 UNK         0.5000 
     93 O          -6.8291  -29.2172  -51.5178 O.2       16 UNK        -0.5000 
     94 N          -5.8174  -28.1224  -49.8009 N.am      17 UNK        -0.5000 
     95 CA         -6.9155  -27.2507  -49.3690 C.3       17 UNK         0.1400 
     96 CB         -8.0492  -28.0793  -48.7285 C.3       17 UNK        -0.1800 
     97 C          -7.4058  -26.3039  -50.4845 C.2       17 UNK         0.5000 
     98 O          -8.5970  -26.2729  -50.8033 O.2       17 UNK        -0.5000 
     99 N          -6.4647  -25.5481  -51.0612 N.am      18 UNK        -0.5000 
    100 CA        -6.7256  -24.4885  -52.0322 C.3       18 UNK         0.1400 
    101 CB        -5.4049  -24.1190  -52.7312 C.3       18 UNK        -0.1800 
    102 C         -7.3457  -23.2465  -51.3624 C.2       18 UNK         0.5000 
    103 O         -7.2466  -23.0749  -50.1441 O.2       18 UNK        -0.5000 
    104 N         -7.9433  -22.3827  -52.1860 N.am      19 UNK        -0.5000 
    105 CA        -8.4346  -21.0619  -51.8116 C.3       19 UNK         0.1400 
    106 CB        -9.9669  -21.0937  -51.6957 C.3       19 UNK        -0.1800 
    107 C         -7.9817  -20.0815  -52.8993 C.2       19 UNK         0.5000 
    108 O         -7.9493  -20.4595  -54.0744 O.2       19 UNK        -0.5000 
    109 N         -7.6239  -18.8570  -52.4888 N.am      20 UNK        -0.5000 
    110 CA        -7.0837  -17.7395  -53.2801 C.3       20 UNK         0.1400 
    111 CB        -8.0785  -17.2773  -54.3630 C.3       20 UNK        -0.1800 
    112 C         -5.6833  -17.9977  -53.8773 C.2       20 UNK         0.5000 
    113 O         -4.8024  -17.1472  -53.7435 O.2       20 UNK        -0.5000 
    114 N         -5.4975  -19.1604  -54.5105 N.am      21 UNK        -0.5000 
    115 CA        -4.2261  -19.6590  -55.0255 C.3       21 UNK         0.1400 
    116 CB        -4.5099  -20.8280  -55.9818 C.3       21 UNK        -0.1800 
    117 C         -3.2905  -20.1112  -53.8888 C.2       21 UNK         0.5000 
    118 O         -3.7600  -20.5658  -52.8427 O.2       21 UNK        -0.5000 
    119 N         -1.9812  -20.0092  -54.1398 N.am      22 UNK        -0.5000 
    120 CA        -0.9080  -20.3958  -53.2079 C.3       22 UNK         0.1400 
    121 C         -0.6410  -21.9265  -53.1041 C.2       22 UNK         0.5000 
    122 N         -1.2739  -22.7742  -53.9054 N.am      22 UNK        -0.7600 
    123 O          0.1548  -22.3511  -52.2717 O.2       22 UNK        -0.5000 
    124 C124        0.4041  -19.6210  -53.5122 C.3       23 UNK        -0.0398 
    125 S125        0.2552  -17.8078  -53.3218 S.3       23 UNK        -0.2404 
    126 C126        0.0370  -17.5813  -51.5235 C.3       23 UNK        -0.0205 
    127 H127       -1.1226  -10.9122  -44.5546 H         1 UNK         0.0600 
    128 H128        0.0082  -12.0387  -43.8104 H         1 UNK         0.0600 
    129 H129       -1.1743  -12.6176  -44.9979 H         1 UNK         0.0600 
    130 H130        1.7956  -12.9027  -45.1182 H         1 UNK         0.3000 
    131 H131        2.1661  -12.2502  -47.8681 H         1 UNK         0.0600 
    132 H132        4.0948  -13.3526  -45.7676 H         1 UNK         0.0800 
    133 H133        4.5222  -13.1661  -47.4470 H         1 UNK         0.0800 
    134 H134        4.6927  -15.3426  -48.7226 H         1 UNK         0.0800 
    135 H135        3.4008  -14.4139  -49.4491 H         1 UNK         0.0800 
    136 H136        1.4417  -15.5189  -50.4194 H         1 UNK         0.1150 
    137 H137        1.4948  -19.7845  -50.8158 H         1 UNK         0.1150 
    138 H138        4.4879  -17.8206  -48.4729 H         1 UNK         0.1150 
    139 H139        3.7085  -20.9170  -50.2489 H         1 UNK         0.0800 
    140 H140        4.7786  -20.1523  -49.1064 H         1 UNK         0.0800 
    141 H141        1.5413  -21.9758  -49.7632 H         1 UNK         0.0800 
    142 H142        0.7057  -20.7662  -48.8113 H         1 UNK         0.0800 
    143 H143        1.2869  -23.6064  -47.8495 H         1 UNK         0.0600 
    144 H144        0.3657  -21.3758  -46.3807 H         1 UNK         0.3000 
    145 H145       -1.6203  -23.1306  -43.9683 H         1 UNK         0.0600 
    146 H146       -0.0928  -21.8435  -42.4858 H         1 UNK         0.0600 
    147 H147        0.7198  -23.2468  -43.1620 H         1 UNK         0.0600 
    148 H148        1.0585  -21.6478  -43.8064 H         1 UNK         0.0600 
    149 H149       -0.9869  -20.3564  -44.4640 H         1 UNK         0.3000 
    150 H150       -3.9030  -19.6437  -46.3986 H         1 UNK         0.0600 
    151 H151       -4.6646  -19.6305  -44.0173 H         1 UNK         0.0600 
    152 H152       -4.2375  -18.0149  -44.5598 H         1 UNK         0.0600 
    153 H153       -3.1353  -18.9153  -43.5194 H         1 UNK         0.0600 
    154 H154       -1.7597  -18.0354  -45.3628 H         1 UNK         0.3000 
    155 H155        0.4035  -18.3276  -48.1724 H         1 UNK         0.0600 
    156 H156       -1.4460  -16.0503  -47.2579 H         1 UNK         0.0600 
    157 H157       -1.3419  -16.6856  -48.8951 H         1 UNK         0.0600 
    158 H158        0.0330  -15.8492  -48.1897 H         1 UNK         0.0600 
    159 H159        0.7161  -16.6479  -46.0123 H         1 UNK         0.3000 
    160 H160        1.7297  -18.7535  -43.4137 H         1 UNK         0.0600 
    161 H161        3.9248  -17.6053  -43.5986 H         1 UNK         0.0600 
    162 H162        3.7882  -18.8573  -44.8248 H         1 UNK         0.0600 
    163 H163        3.5853  -17.1696  -45.2726 H         1 UNK         0.0600 
    164 H164        1.9728  -15.9272  -43.8489 H         1 UNK         0.3000 
    165 H165       -0.3041  -14.5229  -43.8137 H         1 UNK         0.0600 
    166 H166       -1.8030  -13.8889  -41.9409 H         1 UNK         0.0600 
    167 H167       -2.3672  -15.3528  -42.7259 H         1 UNK         0.0600 
    168 H168       -1.5389  -15.4568  -41.1765 H         1 UNK         0.0600 
    169 H169        0.6310  -14.2987  -41.0834 H         1 UNK         0.3000 
    170 H170        2.9198  -13.9132  -40.6068 H         1 UNK         0.0600 
    171 H171        4.4889  -12.5877  -42.8858 H         1 UNK         0.0600 
    172 H172        5.0279  -12.7396  -41.2153 H         1 UNK         0.0600 
    173 H173        4.7884  -14.1750  -42.1999 H         1 UNK         0.0600 
    174 H174        2.1598  -11.8914  -40.1087 H         1 UNK         0.3000 
    175 H175        0.7993   -9.8783  -40.6208 H         1 UNK         0.0600 
    176 H176        3.6910   -8.8276  -40.6726 H         1 UNK         0.0600 
    177 H177        2.3863   -8.1479  -39.7021 H         1 UNK         0.0600 
    178 H178        2.9647   -9.7724  -39.3777 H         1 UNK         0.0600 
    179 H179        2.2382   -8.1095  -42.5302 H         1 UNK         0.3000 
    180 H180       -0.4494   -8.0103  -44.8107 H         1 UNK         0.0600 
    181 H181        1.1491   -5.8438  -43.3465 H         1 UNK         0.0600 
    182 H182       -0.5943   -5.9271  -43.5230 H         1 UNK         0.0600 
    183 H183        0.4130   -5.6688  -44.9391 H         1 UNK         0.0600 
    184 H184        1.3741   -8.7643  -45.7678 H         1 UNK         0.3000 
    185 H185        3.9213   -8.2272  -46.5890 H         1 UNK         0.0600 
    186 H186        5.7199   -7.7652  -44.9283 H         1 UNK         0.0600 
    187 H187        5.3185   -9.2372  -44.0469 H         1 UNK         0.0600 
    188 H188        5.9826   -9.3318  -45.6773 H         1 UNK         0.0600 
    189 H189        2.9572  -10.4946  -44.9361 H         1 UNK         0.3000 
    190 H190       -1.6817  -21.6003  -48.3525 H         1 UNK         0.3000 
    191 H191       -2.7001  -23.0654  -50.5382 H         1 UNK         0.0600 
    192 H192       -4.1848  -21.4103  -48.4309 H         1 UNK         0.0600 
    193 H193       -4.8309  -21.9040  -49.9931 H         1 UNK         0.0600 
    194 H194       -3.4740  -20.7965  -49.9245 H         1 UNK         0.0600 
    195 H195       -3.2382  -23.5059  -47.0060 H         1 UNK         0.3000 
    196 H196       -5.0695  -25.6483  -47.1538 H         1 UNK         0.0600 
    197 H197       -4.3669  -26.1014  -44.8081 H         1 UNK         0.0600 
    198 H198       -4.6652  -24.3916  -45.0774 H         1 UNK         0.0600 
    199 H199       -3.0126  -24.9948  -44.9876 H         1 UNK         0.0600 
    200 H200       -1.4801  -25.6998  -46.9162 H         1 UNK         0.3000 
    201 H201       -1.1404  -28.5073  -47.0052 H         1 UNK         0.0600 
    202 H202        0.6172  -26.9497  -46.2263 H         1 UNK         0.0600 
    203 H203        0.7661  -26.2581  -47.8399 H         1 UNK         0.0600 
    204 H204        1.2309  -27.9301  -47.5491 H         1 UNK         0.0600 
    205 H205       -1.4199  -26.1271  -49.6326 H         1 UNK         0.3000 
    206 H206       -0.8767  -27.9536  -51.7971 H         1 UNK         0.0600 
    207 H207       -0.4554  -25.5022  -51.9328 H         1 UNK         0.0600 
    208 H208       -1.5550  -26.0285  -53.1969 H         1 UNK         0.0600 
    209 H209       -2.1826  -25.1860  -51.7843 H         1 UNK         0.0600 
    210 H210       -2.6431  -29.2873  -50.2748 H         1 UNK         0.3000 
    211 H211       -4.4789  -30.5272  -50.2324 H         1 UNK         0.0600 
    212 H212       -4.6598  -29.9479  -53.2356 H         1 UNK         0.0600 
    213 H213       -5.3825  -31.3115  -52.3921 H         1 UNK         0.0600 
    214 H214       -3.6355  -31.1757  -52.4929 H         1 UNK         0.0600 
    215 H215       -4.9563  -28.0244  -49.2724 H         1 UNK         0.3000 
    216 H216       -6.5089  -26.6079  -48.5901 H         1 UNK         0.0600 
    217 H217       -8.8198  -27.4286  -48.3133 H         1 UNK         0.0600 
    218 H218       -7.6725  -28.6963  -47.9127 H         1 UNK         0.0600 
    219 H219       -8.5323  -28.7373  -49.4513 H         1 UNK         0.0600 
    220 H220       -5.5204  -25.5770  -50.6838 H         1 UNK         0.3000 
    221 H221       -7.4245  -24.8678  -52.7809 H         1 UNK         0.0600 
    222 H222       -4.6804  -23.7011  -52.0315 H         1 UNK         0.0600 
    223 H223       -4.9490  -24.9903  -53.2018 H         1 UNK         0.0600 
    224 H224       -5.5656  -23.3756  -53.5128 H         1 UNK         0.0600 
    225 H225       -7.9362  -22.5526  -53.1839 H         1 UNK         0.3000 
    226 H226       -8.0054  -20.7493  -50.8568 H         1 UNK         0.0600 
    227 H227      -10.2875  -21.7994  -50.9290 H         1 UNK         0.0600 
    228 H228      -10.3584  -20.1131  -51.4214 H         1 UNK         0.0600 
    229 H229      -10.4364  -21.3852  -52.6365 H         1 UNK         0.0600 
    230 H230       -7.6732  -18.6710  -51.4964 H         1 UNK         0.3000 
    231 H231       -6.9705  -16.9137  -52.5755 H         1 UNK         0.0600 
    232 H232       -9.0481  -17.0332  -53.9288 H         1 UNK         0.0600 
    233 H233       -8.2356  -18.0375  -55.1288 H         1 UNK         0.0600 
    234 H234       -7.7134  -16.3816  -54.8669 H         1 UNK         0.0600 
    235 H235       -6.2861  -19.8011  -54.5357 H         1 UNK         0.3000 
    236 H236       -3.7417  -18.8558  -55.5852 H         1 UNK         0.0600 
    237 H237       -3.5873  -21.2122  -56.4188 H         1 UNK         0.0600 
    238 H238       -5.0021  -21.6556  -55.4690 H         1 UNK         0.0600 
    239 H239       -5.1525  -20.5160  -56.8056 H         1 UNK         0.0600 
    240 H240       -1.6782  -19.6348  -55.0273 H         1 UNK         0.3000 
    241 H241       -1.2382  -20.1225  -52.2058 H         1 UNK         0.0600 
    242 H242       -1.0857  -23.7596  -53.8224 H         1 UNK         0.3800 
    243 H243       -1.9328  -22.4420  -54.5898 H         1 UNK         0.3800 
    244 H244        1.2374  -19.9738  -52.9085 H         1 UNK         0.0800 
    245 H245        0.7089  -19.8168  -54.5415 H         1 UNK         0.0800 
    246 H246       -0.6689  -18.3059  -51.1197 H         1 UNK         0.0800 
    247 H247       -0.4348  -16.6095  -51.3711 H         1 UNK         0.0800 
@<TRIPOS>BOND
     1    1    2 1    
     2    1  127 1    
     3    1  128 1    
     4    1  129 1    
     5    2    3 2    
     6    2    4 am   BACKBONE|DICT|INTERRES
     7    4    5 1    
     8    4  130 1    
     9    5    6 1    
    10    5   65 1    
    11    5  131 1    
    12    6    7 1    
    13    6  132 1    
    14    6  133 1    
    15    7    8 1    
    16    8    9 1    
    17    8  134 1    
    18    8  135 1    
    19    9   10 ar   
    20    9   14 ar   
    21   10   11 ar   
    22   10  136 1    
    23   11   12 ar   
    24   11  126 1    
    25   12   13 ar   
    26   12  137 1    
    27   13   14 ar   
    28   13   15 1    
    29   14  138 1    
    30   15   16 1    
    31   15  139 1    
    32   15  140 1    
    33   16   17 1    
    34   17   18 1    
    35   17  141 1    
    36   17  142 1    
    37   18   19 1    
    38   18   67 1    
    39   18  143 1    
    40   19   20 am   BACKBONE|DICT|INTERRES
    41   19  144 1    
    42   20   21 2    
    43   20   22 1    
    44   22   23 1    
    45   22   24 1    
    46   22  145 1    
    47   23  146 1    
    48   23  147 1    
    49   23  148 1    
    50   24   25 am   BACKBONE|DICT|INTERRES
    51   24  149 1    
    52   25   26 2    
    53   25   27 1    
    54   27   28 1    
    55   27   29 1    
    56   27  150 1    
    57   28  151 1    
    58   28  152 1    
    59   28  153 1    
    60   29   30 am   BACKBONE|DICT|INTERRES
    61   29  154 1    
    62   30   31 2    
    63   30   32 1    
    64   32   33 1    
    65   32   34 1    
    66   32  155 1    
    67   33  156 1    
    68   33  157 1    
    69   33  158 1    
    70   34   35 am   BACKBONE|DICT|INTERRES
    71   34  159 1    
    72   35   36 2    
    73   35   37 1    
    74   37   38 1    
    75   37   39 1    
    76   37  160 1    
    77   38  161 1    
    78   38  162 1    
    79   38  163 1    
    80   39   40 am   BACKBONE|DICT|INTERRES
    81   39  164 1    
    82   40   41 2    
    83   40   42 1    
    84   42   43 1    
    85   42   44 1    
    86   42  165 1    
    87   43  166 1    
    88   43  167 1    
    89   43  168 1    
    90   44   45 am   BACKBONE|DICT|INTERRES
    91   44  169 1    
    92   45   46 2    
    93   45   47 1    
    94   47   48 1    
    95   47   49 1    
    96   47  170 1    
    97   48  171 1    
    98   48  172 1    
    99   48  173 1    
   100   49   50 am   BACKBONE|DICT|INTERRES
   101   49  174 1    
   102   50   51 2    
   103   50   52 1    
   104   52   53 1    
   105   52   54 1    
   106   52  175 1    
   107   53  176 1    
   108   53  177 1    
   109   53  178 1    
   110   54   55 am   BACKBONE|DICT|INTERRES
   111   54  179 1    
   112   55   56 2    
   113   55   57 1    
   114   57   58 1    
   115   57   59 1    
   116   57  180 1    
   117   58  181 1    
   118   58  182 1    
   119   58  183 1    
   120   59   60 am   BACKBONE|DICT|INTERRES
   121   59  184 1    
   122   60   61 2    
   123   60   62 1    
   124   62   63 1    
   125   62   64 1    
   126   62  185 1    
   127   63  186 1    
   128   63  187 1    
   129   63  188 1    
   130   64   65 am   BACKBONE|DICT|INTERRES
   131   64  189 1    
   132   65   66 2    
   133   67   68 2    
   134   67   69 am   BACKBONE|DICT|INTERRES
   135   69   70 1    
   136   69  190 1    
   137   70   71 1    
   138   70   72 1    
   139   70  191 1    
   140   71  192 1    
   141   71  193 1    
   142   71  194 1    
   143   72   73 2    
   144   72   74 am   BACKBONE|DICT|INTERRES
   145   74   75 1    
   146   74  195 1    
   147   75   76 1    
   148   75   77 1    
   149   75  196 1    
   150   76  197 1    
   151   76  198 1    
   152   76  199 1    
   153   77   78 2    
   154   77   79 am   BACKBONE|DICT|INTERRES
   155   79   80 1    
   156   79  200 1    
   157   80   81 1    
   158   80   82 1    
   159   80  201 1    
   160   81  202 1    
   161   81  203 1    
   162   81  204 1    
   163   82   83 2    
   164   82   84 am   BACKBONE|DICT|INTERRES
   165   84   85 1    
   166   84  205 1    
   167   85   86 1    
   168   85   87 1    
   169   85  206 1    
   170   86  207 1    
   171   86  208 1    
   172   86  209 1    
   173   87   88 2    
   174   87   89 am   BACKBONE|DICT|INTERRES
   175   89   90 1    
   176   89  210 1    
   177   90   91 1    
   178   90   92 1    
   179   90  211 1    
   180   91  212 1    
   181   91  213 1    
   182   91  214 1    
   183   92   93 2    
   184   92   94 am   BACKBONE|DICT|INTERRES
   185   94   95 1    
   186   94  215 1    
   187   95   96 1    
   188   95   97 1    
   189   95  216 1    
   190   96  217 1    
   191   96  218 1    
   192   96  219 1    
   193   97   98 2    
   194   97   99 am   BACKBONE|DICT|INTERRES
   195   99  100 1    
   196   99  220 1    
   197  100  101 1    
   198  100  102 1    
   199  100  221 1    
   200  101  222 1    
   201  101  223 1    
   202  101  224 1    
   203  102  103 2    
   204  102  104 am   BACKBONE|DICT|INTERRES
   205  104  105 1    
   206  104  225 1    
   207  105  106 1    
   208  105  107 1    
   209  105  226 1    
   210  106  227 1    
   211  106  228 1    
   212  106  229 1    
   213  107  108 2    
   214  107  109 am   BACKBONE|DICT|INTERRES
   215  109  110 1    
   216  109  230 1    
   217  110  111 1    
   218  110  112 1    
   219  110  231 1    
   220  111  232 1    
   221  111  233 1    
   222  111  234 1    
   223  112  113 2    
   224  112  114 am   BACKBONE|DICT|INTERRES
   225  114  115 1    
   226  114  235 1    
   227  115  116 1    
   228  115  117 1    
   229  115  236 1    
   230  116  237 1    
   231  116  238 1    
   232  116  239 1    
   233  117  118 2    
   234  117  119 am   BACKBONE|DICT|INTERRES
   235  119  120 1    
   236  119  240 1    
   237  120  121 1    
   238  120  124 1    
   239  120  241 1    
   240  121  122 am   BACKBONE|DICT|INTERRES
   241  121  123 2    
   242  122  242 1    
   243  122  243 1    
   244  124  125 1    
   245  124  244 1    
   246  124  245 1    
   247  125  126 1    
   248  126  246 1    
   249  126  247 1    
@<TRIPOS>SUBSTRUCTURE
     1 UNK         1 GROUP             0       ****    0 ROOT    
