@<TRIPOS>MOLECULE
3R540
247   249    1
SMALL
USER_CHARGES


@<TRIPOS>ATOM
      1 CA         -2.2879  -11.9070  -45.0065 C.3       0 UNK        -0.1800 
      2 C          -1.2049  -11.1961  -45.8054 C.2       0 UNK         0.5000 
      3 O          -0.6070  -10.2407  -45.3115 O.2       0 UNK        -0.5000 
      4 N          -0.9543  -11.6551  -47.0379 N.am      1 UNK        -0.5000 
      5 CA          0.0692  -11.1162  -47.9438 C.3       1 UNK         0.1400 
      6 C6         -0.2658  -11.4120  -49.4285 C.3       23 UNK        -0.0398 
      7 S7         -0.4830  -13.1864  -49.8176 S.3       23 UNK        -0.2404 
      8 C8          1.0967  -13.5506  -50.6427 C.3       23 UNK        -0.0205 
      9 C9          1.1771  -15.0108  -51.0546 C.ar      23 UNK        -0.0193 
     10 C10         0.8365  -15.3979  -52.3537 C.ar      23 UNK        -0.1150 
     11 C11         0.9213  -16.7389  -52.7376 C.ar      23 UNK        -0.0193 
     12 C12         1.3343  -17.6964  -51.8068 C.ar      23 UNK        -0.1150 
     13 C13         1.6831  -17.3242  -50.5051 C.ar      23 UNK        -0.0193 
     14 C14         1.6098  -15.9746  -50.1394 C.ar      23 UNK        -0.1150 
     15 C15         2.1859  -18.3882  -49.5329 C.3       23 UNK        -0.0205 
     16 S16         1.6047  -18.1758  -47.8188 S.3       23 UNK        -0.2404 
     17 C17        -0.1754  -18.5400  -47.9690 C.3       23 UNK        -0.0398 
     18 CA         -0.5304  -20.0044  -47.6123 C.3       11 UNK         0.1400 
     19 N          -0.1211  -20.3976  -46.2579 N.am      11 UNK        -0.5000 
     20 C          -0.1828  -21.6492  -45.7791 C.2       10 UNK         0.5000 
     21 O          -0.5256  -22.6194  -46.4550 O.2       10 UNK        -0.5000 
     22 CA          0.1310  -21.8492  -44.2841 C.3       10 UNK         0.1400 
     23 CB          1.6414  -21.9868  -44.0402 C.3       10 UNK        -0.1800 
     24 N          -0.4209  -20.7776  -43.4530 N.am      10 UNK        -0.5000 
     25 C          -1.7332  -20.5900  -43.2499 C.2       9 UNK         0.5000 
     26 O          -2.6017  -21.3393  -43.6946 O.2       9 UNK        -0.5000 
     27 CA         -2.1550  -19.3363  -42.4604 C.3       9 UNK         0.1400 
     28 CB         -2.0957  -19.5974  -40.9484 C.3       9 UNK        -0.1800 
     29 N          -1.3502  -18.1602  -42.7891 N.am      9 UNK        -0.5000 
     30 C          -1.3012  -17.5855  -43.9991 C.2       8 UNK         0.5000 
     31 O          -1.9899  -17.9440  -44.9537 O.2       8 UNK        -0.5000 
     32 CA         -0.2649  -16.4641  -44.1947 C.3       8 UNK         0.1400 
     33 CB         -0.8283  -15.1134  -43.7300 C.3       8 UNK        -0.1800 
     34 N           1.0043  -16.7363  -43.5151 N.am      8 UNK        -0.5000 
     35 C           1.7935  -17.7889  -43.7764 C.2       7 UNK         0.5000 
     36 O           1.5304  -18.6417  -44.6198 O.2       7 UNK        -0.5000 
     37 CA          3.0455  -17.9616  -42.9023 C.3       7 UNK         0.1400 
     38 CB          4.1851  -17.0350  -43.3532 C.3       7 UNK        -0.1800 
     39 N           2.7391  -17.7336  -41.4923 N.am      7 UNK        -0.5000 
     40 C           2.0132  -18.5719  -40.7386 C.2       6 UNK         0.5000 
     41 O           1.5949  -19.6602  -41.1343 O.2       6 UNK        -0.5000 
     42 CA          1.6644  -18.0918  -39.3175 C.3       6 UNK         0.1400 
     43 CB          2.7885  -18.4503  -38.3342 C.3       6 UNK        -0.1800 
     44 N           1.4118  -16.6504  -39.2594 N.am      6 UNK        -0.5000 
     45 C           0.3674  -16.0406  -39.8383 C.2       5 UNK         0.5000 
     46 O          -0.5204  -16.6378  -40.4453 O.2       5 UNK        -0.5000 
     47 CA          0.3405  -14.5020  -39.7706 C.3       5 UNK         0.1400 
     48 CB         -0.3340  -14.0299  -38.4742 C.3       5 UNK        -0.1800 
     49 N           1.6736  -13.9007  -39.8745 N.am      5 UNK        -0.5000 
     50 C           2.4619  -13.9891  -40.9532 C.2       4 UNK         0.5000 
     51 O           2.1482  -14.5894  -41.9845 O.2       4 UNK        -0.5000 
     52 CA          3.8515  -13.3533  -40.8372 C.3       4 UNK         0.1400 
     53 CB          4.8135  -14.2863  -40.0800 C.3       4 UNK        -0.1800 
     54 N           4.3733  -13.0978  -42.1750 N.am      4 UNK        -0.5000 
     55 C           5.2375  -12.1289  -42.4959 C.2       3 UNK         0.5000 
     56 O           5.7124  -11.3455  -41.6719 O.2       3 UNK        -0.5000 
     57 CA          5.6647  -12.0070  -43.9745 C.3       3 UNK         0.1400 
     58 CB          7.1074  -12.5065  -44.1539 C.3       3 UNK        -0.1800 
     59 N           4.8067  -12.7145  -44.9306 N.am      3 UNK        -0.5000 
     60 C           3.5482  -12.3762  -45.2376 C.2       2 UNK         0.5000 
     61 O           2.9353  -11.4591  -44.6864 O.2       2 UNK        -0.5000 
     62 CA          2.8745  -13.2314  -46.3307 C.3       2 UNK         0.1400 
     63 CB          2.6001  -14.6526  -45.8189 C.3       2 UNK        -0.1800 
     64 N           1.6139  -12.6556  -46.7948 N.am      2 UNK        -0.5000 
     65 C           1.5000  -11.5771  -47.5819 C.2       1 UNK         0.5000 
     66 O           2.4656  -10.9642  -48.0409 O.2       1 UNK        -0.5000 
     67 C          -2.0336  -20.2634  -47.8420 C.2       11 UNK         0.5000 
     68 O          -2.3977  -20.8309  -48.8707 O.2       11 UNK        -0.5000 
     69 N          -2.8728  -19.8884  -46.8649 N.am      12 UNK        -0.5000 
     70 CA         -4.3158  -20.1367  -46.8642 C.3       12 UNK         0.1400 
     71 CB         -4.9660  -19.4073  -45.6796 C.3       12 UNK        -0.1800 
     72 C          -4.6652  -21.6364  -46.8440 C.2       12 UNK         0.5000 
     73 O          -5.5769  -22.0561  -47.5580 O.2       12 UNK        -0.5000 
     74 N          -3.9129  -22.4241  -46.0627 N.am      13 UNK        -0.5000 
     75 CA         -4.0186  -23.8813  -46.0214 C.3       13 UNK         0.1400 
     76 CB         -3.1588  -24.4446  -44.8803 C.3       13 UNK        -0.1800 
     77 C          -3.6519  -24.5290  -47.3674 C.2       13 UNK         0.5000 
     78 O          -4.4066  -25.3717  -47.8469 O.2       13 UNK        -0.5000 
     79 N          -2.5391  -24.0946  -47.9778 N.am      14 UNK        -0.5000 
     80 CA         -2.0938  -24.5346  -49.3037 C.3       14 UNK         0.1400 
     81 CB         -0.7053  -23.9511  -49.6037 C.3       14 UNK        -0.1800 
     82 C          -3.0903  -24.1732  -50.4212 C.2       14 UNK         0.5000 
     83 O          -3.3608  -25.0062  -51.2914 O.2       14 UNK        -0.5000 
     84 N          -3.6446  -22.9538  -50.3501 N.am      15 UNK        -0.5000 
     85 CA         -4.7006  -22.4475  -51.2246 C.3       15 UNK         0.1400 
     86 CB         -5.0249  -20.9880  -50.8712 C.3       15 UNK        -0.1800 
     87 C          -5.9652  -23.3160  -51.1832 C.2       15 UNK         0.5000 
     88 O          -6.4533  -23.7169  -52.2399 O.2       15 UNK        -0.5000 
     89 N          -6.4396  -23.6168  -49.9676 N.am      16 UNK        -0.5000 
     90 CA         -7.5886  -24.4854  -49.7214 C.3       16 UNK         0.1400 
     91 CB         -7.9869  -24.3877  -48.2408 C.3       16 UNK        -0.1800 
     92 C          -7.3347  -25.9513  -50.1201 C.2       16 UNK         0.5000 
     93 O          -8.2418  -26.5986  -50.6447 O.2       16 UNK        -0.5000 
     94 N          -6.1184  -26.4482  -49.8562 N.am      17 UNK        -0.5000 
     95 CA         -5.7105  -27.8264  -50.1150 C.3       17 UNK         0.1400 
     96 CB         -4.3795  -28.1264  -49.4080 C.3       17 UNK        -0.1800 
     97 C          -5.6112  -28.1688  -51.6089 C.2       17 UNK         0.5000 
     98 O          -6.1369  -29.2086  -52.0116 O.2       17 UNK        -0.5000 
     99 N          -4.9307  -27.3240  -52.3990 N.am      18 UNK        -0.5000 
    100 CA        -4.6492  -27.6314  -53.8039 C.3       18 UNK         0.1400 
    101 CB        -3.5038  -28.6598  -53.8993 C.3       18 UNK        -0.1800 
    102 C         -4.3265  -26.4169  -54.6851 C.2       18 UNK         0.5000 
    103 O         -4.6382  -26.4674  -55.8760 O.2       18 UNK        -0.5000 
    104 N         -3.6692  -25.3802  -54.1422 N.am      19 UNK        -0.5000 
    105 CA        -3.0977  -24.3014  -54.9587 C.3       19 UNK         0.1400 
    106 CB        -2.0525  -23.5180  -54.1506 C.3       19 UNK        -0.1800 
    107 C         -4.1440  -23.3713  -55.6036 C.2       19 UNK         0.5000 
    108 O         -3.8903  -22.8650  -56.6959 O.2       19 UNK        -0.5000 
    109 N         -5.2894  -23.1832  -54.9315 N.am      20 UNK        -0.5000 
    110 CA        -6.5148  -22.5111  -55.3861 C.3       20 UNK         0.1400 
    111 CB        -7.3900  -23.5521  -56.1124 C.3       20 UNK        -0.1800 
    112 C         -6.3314  -21.2120  -56.2200 C.2       20 UNK         0.5000 
    113 O         -6.8002  -21.1576  -57.3570 O.2       20 UNK        -0.5000 
    114 N         -5.6834  -20.1532  -55.7120 N.am      21 UNK        -0.5000 
    115 CA        -5.0208  -20.0256  -54.4123 C.3       21 UNK         0.1400 
    116 CB        -5.4878  -18.7148  -53.7595 C.3       21 UNK        -0.1800 
    117 C         -3.4846  -20.0275  -54.5366 C.2       21 UNK         0.5000 
    118 O         -2.8082  -20.2413  -53.5321 O.2       21 UNK        -0.5000 
    119 N         -2.9665  -19.7904  -55.7482 N.am      22 UNK        -0.5000 
    120 CA        -1.5380  -19.6021  -56.0542 C.3       22 UNK         0.1400 
    121 C         -1.0855  -20.3627  -57.3369 C.2       22 UNK         0.5000 
    122 N         -1.8391  -21.3242  -57.8542 N.am      22 UNK        -0.7600 
    123 O         -0.0163  -20.0918  -57.8768 O.2       22 UNK        -0.5000 
    124 C124       -1.1665  -18.0910  -56.1060 C.3       23 UNK        -0.0398 
    125 S125       -1.1788  -17.2948  -54.4626 S.3       23 UNK        -0.2404 
    126 C126        0.6094  -17.1498  -54.1675 C.3       23 UNK        -0.0205 
    127 H127       -2.6746  -12.7794  -45.5337 H         1 UNK         0.0600 
    128 H128       -3.1191  -11.2282  -44.8158 H         1 UNK         0.0600 
    129 H129       -1.8906  -12.2372  -44.0467 H         1 UNK         0.0600 
    130 H130       -1.4840  -12.4352  -47.4021 H         1 UNK         0.3000 
    131 H131        0.0685  -10.0295  -47.8334 H         1 UNK         0.0600 
    132 H132       -1.1972  -10.9072  -49.6883 H         1 UNK         0.0800 
    133 H133        0.4872  -10.9757  -50.0874 H         1 UNK         0.0800 
    134 H134        1.9259  -13.3121  -49.9752 H         1 UNK         0.0800 
    135 H135        1.2079  -12.9064  -51.5164 H         1 UNK         0.0800 
    136 H136        0.5125  -14.6557  -53.0699 H         1 UNK         0.1150 
    137 H137        1.4042  -18.7333  -52.1049 H         1 UNK         0.1150 
    138 H138        1.8885  -15.6694  -49.1407 H         1 UNK         0.1150 
    139 H139        1.9027  -19.3858  -49.8725 H         1 UNK         0.0800 
    140 H140        3.2761  -18.3613  -49.5326 H         1 UNK         0.0800 
    141 H141       -0.4994  -18.3044  -48.9844 H         1 UNK         0.0800 
    142 H142       -0.7094  -17.8475  -47.3176 H         1 UNK         0.0800 
    143 H143        0.0118  -20.6501  -48.3064 H         1 UNK         0.0600 
    144 H144        0.2494  -19.6639  -45.6597 H         1 UNK         0.3000 
    145 H145       -0.3379  -22.7844  -43.9715 H         1 UNK         0.0600 
    146 H146        2.1932  -21.1087  -44.3729 H         1 UNK         0.0600 
    147 H147        1.8581  -22.1368  -42.9824 H         1 UNK         0.0600 
    148 H148        2.0425  -22.8450  -44.5804 H         1 UNK         0.0600 
    149 H149        0.2372  -20.1152  -43.0632 H         1 UNK         0.3000 
    150 H150       -3.1906  -19.1125  -42.7240 H         1 UNK         0.0600 
    151 H151       -2.7099  -20.4567  -40.6762 H         1 UNK         0.0600 
    152 H152       -2.4671  -18.7407  -40.3859 H         1 UNK         0.0600 
    153 H153       -1.0785  -19.8012  -40.6137 H         1 UNK         0.0600 
    154 H154       -0.8038  -17.7546  -42.0352 H         1 UNK         0.3000 
    155 H155       -0.0538  -16.3938  -45.2636 H         1 UNK         0.0600 
    156 H156       -0.1209  -14.3025  -43.9022 H         1 UNK         0.0600 
    157 H157       -1.7427  -14.8702  -44.2719 H         1 UNK         0.0600 
    158 H158       -1.0724  -15.1238  -42.6683 H         1 UNK         0.0600 
    159 H159        1.3110  -16.0543  -42.8268 H         1 UNK         0.3000 
    160 H160        3.3902  -18.9920  -43.0153 H         1 UNK         0.0600 
    161 H161        4.4481  -17.2258  -44.3944 H         1 UNK         0.0600 
    162 H162        5.0832  -17.1974  -42.7572 H         1 UNK         0.0600 
    163 H163        3.9168  -15.9831  -43.2714 H         1 UNK         0.0600 
    164 H164        3.0020  -16.8394  -41.1075 H         1 UNK         0.3000 
    165 H165        0.7558  -18.6106  -39.0044 H         1 UNK         0.0600 
    166 H166        2.5198  -18.1798  -37.3129 H         1 UNK         0.0600 
    167 H167        2.9871  -19.5229  -38.3436 H         1 UNK         0.0600 
    168 H168        3.7206  -17.9414  -38.5828 H         1 UNK         0.0600 
    169 H169        2.0921  -16.0852  -38.7737 H         1 UNK         0.3000 
    170 H170       -0.2546  -14.1434  -40.6126 H         1 UNK         0.0600 
    171 H171       -1.3373  -14.4482  -38.3820 H         1 UNK         0.0600 
    172 H172        0.2304  -14.3328  -37.5913 H         1 UNK         0.0600 
    173 H173       -0.4332  -12.9445  -38.4539 H         1 UNK         0.0600 
    174 H174        2.0040  -13.3967  -39.0639 H         1 UNK         0.3000 
    175 H175        3.7489  -12.4104  -40.2958 H         1 UNK         0.0600 
    176 H176        4.9427  -15.2370  -40.5988 H         1 UNK         0.0600 
    177 H177        5.7981  -13.8314  -39.9700 H         1 UNK         0.0600 
    178 H178        4.4462  -14.5045  -39.0766 H         1 UNK         0.0600 
    179 H179        3.9624  -13.6635  -42.9053 H         1 UNK         0.3000 
    180 H180        5.6399  -10.9448  -44.2269 H         1 UNK         0.0600 
    181 H181        7.1938  -13.5713  -43.9335 H         1 UNK         0.0600 
    182 H182        7.7918  -11.9777  -43.4891 H         1 UNK         0.0600 
    183 H183        7.4590  -12.3434  -45.1729 H         1 UNK         0.0600 
    184 H184        5.2346  -13.4889  -45.4172 H         1 UNK         0.3000 
    185 H185        3.5533  -13.2947  -47.1840 H         1 UNK         0.0600 
    186 H186        2.0325  -15.2392  -46.5417 H         1 UNK         0.0600 
    187 H187        3.5299  -15.1894  -45.6322 H         1 UNK         0.0600 
    188 H188        2.0399  -14.6308  -44.8855 H         1 UNK         0.0600 
    189 H189        0.7671  -13.0701  -46.4378 H         1 UNK         0.3000 
    190 H190       -2.4999  -19.3762  -46.0692 H         1 UNK         0.3000 
    191 H191       -4.7230  -19.7129  -47.7839 H         1 UNK         0.0600 
    192 H192       -4.5909  -19.7744  -44.7245 H         1 UNK         0.0600 
    193 H193       -6.0478  -19.5460  -45.6827 H         1 UNK         0.0600 
    194 H194       -4.7747  -18.3350  -45.7237 H         1 UNK         0.0600 
    195 H195       -3.2278  -21.9967  -45.4473 H         1 UNK         0.3000 
    196 H196       -5.0604  -24.1302  -45.8084 H         1 UNK         0.0600 
    197 H197       -3.2603  -25.5286  -44.8161 H         1 UNK         0.0600 
    198 H198       -3.4620  -24.0320  -43.9180 H         1 UNK         0.0600 
    199 H199       -2.1014  -24.2233  -45.0208 H         1 UNK         0.0600 
    200 H200       -1.9495  -23.4192  -47.4987 H         1 UNK         0.3000 
    201 H201       -2.0050  -25.6221  -49.2793 H         1 UNK         0.0600 
    202 H202        0.0240  -24.2679  -48.8579 H         1 UNK         0.0600 
    203 H203       -0.7187  -22.8610  -49.6140 H         1 UNK         0.0600 
    204 H204       -0.3433  -24.2847  -50.5770 H         1 UNK         0.0600 
    205 H205       -3.3054  -22.3106  -49.6392 H         1 UNK         0.3000 
    206 H206       -4.3275  -22.4660  -52.2466 H         1 UNK         0.0600 
    207 H207       -4.1670  -20.3406  -51.0534 H         1 UNK         0.0600 
    208 H208       -5.8557  -20.6112  -51.4677 H         1 UNK         0.0600 
    209 H209       -5.3085  -20.8753  -49.8273 H         1 UNK         0.0600 
    210 H210       -5.9849  -23.2202  -49.1504 H         1 UNK         0.3000 
    211 H211       -8.4224  -24.1175  -50.3230 H         1 UNK         0.0600 
    212 H212       -7.1776  -24.7112  -47.5849 H         1 UNK         0.0600 
    213 H213       -8.8552  -25.0119  -48.0264 H         1 UNK         0.0600 
    214 H214       -8.2459  -23.3641  -47.9696 H         1 UNK         0.0600 
    215 H215       -5.4525  -25.8694  -49.3512 H         1 UNK         0.3000 
    216 H216       -6.4685  -28.4808  -49.6792 H         1 UNK         0.0600 
    217 H217       -4.0509  -29.1472  -49.6072 H         1 UNK         0.0600 
    218 H218       -4.4759  -28.0245  -48.3272 H         1 UNK         0.0600 
    219 H219       -3.5870  -27.4558  -49.7405 H         1 UNK         0.0600 
    220 H220       -4.5323  -26.4777  -52.0047 H         1 UNK         0.3000 
    221 H221       -5.5444  -28.0791  -54.2420 H         1 UNK         0.0600 
    222 H222       -2.5984  -28.2928  -53.4144 H         1 UNK         0.0600 
    223 H223       -3.7730  -29.6068  -53.4317 H         1 UNK         0.0600 
    224 H224       -3.2547  -28.8778  -54.9388 H         1 UNK         0.0600 
    225 H225       -3.4499  -25.3698  -53.1503 H         1 UNK         0.3000 
    226 H226       -2.5598  -24.7722  -55.7850 H         1 UNK         0.0600 
    227 H227       -1.2445  -24.1701  -53.8190 H         1 UNK         0.0600 
    228 H228       -1.6035  -22.7289  -54.7552 H         1 UNK         0.0600 
    229 H229       -2.4782  -23.0474  -53.2681 H         1 UNK         0.0600 
    230 H230       -5.3881  -23.6518  -54.0379 H         1 UNK         0.3000 
    231 H231       -7.0581  -22.2152  -54.4879 H         1 UNK         0.0600 
    232 H232       -8.3513  -23.1279  -56.4051 H         1 UNK         0.0600 
    233 H233       -7.5982  -24.4070  -55.4686 H         1 UNK         0.0600 
    234 H234       -6.9027  -23.9254  -57.0140 H         1 UNK         0.0600 
    235 H235       -5.6390  -19.3267  -56.2891 H         1 UNK         0.3000 
    236 H236       -5.2999  -20.8407  -53.7492 H         1 UNK         0.0600 
    237 H237       -6.5653  -18.7194  -53.5936 H         1 UNK         0.0600 
    238 H238       -5.2463  -17.8486  -54.3768 H         1 UNK         0.0600 
    239 H239       -5.0110  -18.5653  -52.7899 H         1 UNK         0.0600 
    240 H240       -3.5921  -19.6956  -56.5344 H         1 UNK         0.3000 
    241 H241       -0.9450  -20.0625  -55.2620 H         1 UNK         0.0600 
    242 H242       -1.5168  -21.7948  -58.6846 H         1 UNK         0.3800 
    243 H243       -2.6768  -21.6693  -57.3909 H         1 UNK         0.3800 
    244 H244       -0.1804  -17.9371  -56.5467 H         1 UNK         0.0800 
    245 H245       -1.8612  -17.5559  -56.7549 H         1 UNK         0.0800 
    246 H246        1.0908  -18.1026  -54.3945 H         1 UNK         0.0800 
    247 H247        1.0317  -16.4196  -54.8597 H         1 UNK         0.0800 
@<TRIPOS>BOND
     1    1    2 1    
     2    1  127 1    
     3    1  128 1    
     4    1  129 1    
     5    2    3 2    
     6    2    4 am   BACKBONE|DICT|INTERRES
     7    4    5 1    
     8    4  130 1    
     9    5    6 1    
    10    5   65 1    
    11    5  131 1    
    12    6    7 1    
    13    6  132 1    
    14    6  133 1    
    15    7    8 1    
    16    8    9 1    
    17    8  134 1    
    18    8  135 1    
    19    9   10 ar   
    20    9   14 ar   
    21   10   11 ar   
    22   10  136 1    
    23   11   12 ar   
    24   11  126 1    
    25   12   13 ar   
    26   12  137 1    
    27   13   14 ar   
    28   13   15 1    
    29   14  138 1    
    30   15   16 1    
    31   15  139 1    
    32   15  140 1    
    33   16   17 1    
    34   17   18 1    
    35   17  141 1    
    36   17  142 1    
    37   18   19 1    
    38   18   67 1    
    39   18  143 1    
    40   19   20 am   BACKBONE|DICT|INTERRES
    41   19  144 1    
    42   20   21 2    
    43   20   22 1    
    44   22   23 1    
    45   22   24 1    
    46   22  145 1    
    47   23  146 1    
    48   23  147 1    
    49   23  148 1    
    50   24   25 am   BACKBONE|DICT|INTERRES
    51   24  149 1    
    52   25   26 2    
    53   25   27 1    
    54   27   28 1    
    55   27   29 1    
    56   27  150 1    
    57   28  151 1    
    58   28  152 1    
    59   28  153 1    
    60   29   30 am   BACKBONE|DICT|INTERRES
    61   29  154 1    
    62   30   31 2    
    63   30   32 1    
    64   32   33 1    
    65   32   34 1    
    66   32  155 1    
    67   33  156 1    
    68   33  157 1    
    69   33  158 1    
    70   34   35 am   BACKBONE|DICT|INTERRES
    71   34  159 1    
    72   35   36 2    
    73   35   37 1    
    74   37   38 1    
    75   37   39 1    
    76   37  160 1    
    77   38  161 1    
    78   38  162 1    
    79   38  163 1    
    80   39   40 am   BACKBONE|DICT|INTERRES
    81   39  164 1    
    82   40   41 2    
    83   40   42 1    
    84   42   43 1    
    85   42   44 1    
    86   42  165 1    
    87   43  166 1    
    88   43  167 1    
    89   43  168 1    
    90   44   45 am   BACKBONE|DICT|INTERRES
    91   44  169 1    
    92   45   46 2    
    93   45   47 1    
    94   47   48 1    
    95   47   49 1    
    96   47  170 1    
    97   48  171 1    
    98   48  172 1    
    99   48  173 1    
   100   49   50 am   BACKBONE|DICT|INTERRES
   101   49  174 1    
   102   50   51 2    
   103   50   52 1    
   104   52   53 1    
   105   52   54 1    
   106   52  175 1    
   107   53  176 1    
   108   53  177 1    
   109   53  178 1    
   110   54   55 am   BACKBONE|DICT|INTERRES
   111   54  179 1    
   112   55   56 2    
   113   55   57 1    
   114   57   58 1    
   115   57   59 1    
   116   57  180 1    
   117   58  181 1    
   118   58  182 1    
   119   58  183 1    
   120   59   60 am   BACKBONE|DICT|INTERRES
   121   59  184 1    
   122   60   61 2    
   123   60   62 1    
   124   62   63 1    
   125   62   64 1    
   126   62  185 1    
   127   63  186 1    
   128   63  187 1    
   129   63  188 1    
   130   64   65 am   BACKBONE|DICT|INTERRES
   131   64  189 1    
   132   65   66 2    
   133   67   68 2    
   134   67   69 am   BACKBONE|DICT|INTERRES
   135   69   70 1    
   136   69  190 1    
   137   70   71 1    
   138   70   72 1    
   139   70  191 1    
   140   71  192 1    
   141   71  193 1    
   142   71  194 1    
   143   72   73 2    
   144   72   74 am   BACKBONE|DICT|INTERRES
   145   74   75 1    
   146   74  195 1    
   147   75   76 1    
   148   75   77 1    
   149   75  196 1    
   150   76  197 1    
   151   76  198 1    
   152   76  199 1    
   153   77   78 2    
   154   77   79 am   BACKBONE|DICT|INTERRES
   155   79   80 1    
   156   79  200 1    
   157   80   81 1    
   158   80   82 1    
   159   80  201 1    
   160   81  202 1    
   161   81  203 1    
   162   81  204 1    
   163   82   83 2    
   164   82   84 am   BACKBONE|DICT|INTERRES
   165   84   85 1    
   166   84  205 1    
   167   85   86 1    
   168   85   87 1    
   169   85  206 1    
   170   86  207 1    
   171   86  208 1    
   172   86  209 1    
   173   87   88 2    
   174   87   89 am   BACKBONE|DICT|INTERRES
   175   89   90 1    
   176   89  210 1    
   177   90   91 1    
   178   90   92 1    
   179   90  211 1    
   180   91  212 1    
   181   91  213 1    
   182   91  214 1    
   183   92   93 2    
   184   92   94 am   BACKBONE|DICT|INTERRES
   185   94   95 1    
   186   94  215 1    
   187   95   96 1    
   188   95   97 1    
   189   95  216 1    
   190   96  217 1    
   191   96  218 1    
   192   96  219 1    
   193   97   98 2    
   194   97   99 am   BACKBONE|DICT|INTERRES
   195   99  100 1    
   196   99  220 1    
   197  100  101 1    
   198  100  102 1    
   199  100  221 1    
   200  101  222 1    
   201  101  223 1    
   202  101  224 1    
   203  102  103 2    
   204  102  104 am   BACKBONE|DICT|INTERRES
   205  104  105 1    
   206  104  225 1    
   207  105  106 1    
   208  105  107 1    
   209  105  226 1    
   210  106  227 1    
   211  106  228 1    
   212  106  229 1    
   213  107  108 2    
   214  107  109 am   BACKBONE|DICT|INTERRES
   215  109  110 1    
   216  109  230 1    
   217  110  111 1    
   218  110  112 1    
   219  110  231 1    
   220  111  232 1    
   221  111  233 1    
   222  111  234 1    
   223  112  113 2    
   224  112  114 am   BACKBONE|DICT|INTERRES
   225  114  115 1    
   226  114  235 1    
   227  115  116 1    
   228  115  117 1    
   229  115  236 1    
   230  116  237 1    
   231  116  238 1    
   232  116  239 1    
   233  117  118 2    
   234  117  119 am   BACKBONE|DICT|INTERRES
   235  119  120 1    
   236  119  240 1    
   237  120  121 1    
   238  120  124 1    
   239  120  241 1    
   240  121  122 am   BACKBONE|DICT|INTERRES
   241  121  123 2    
   242  122  242 1    
   243  122  243 1    
   244  124  125 1    
   245  124  244 1    
   246  124  245 1    
   247  125  126 1    
   248  126  246 1    
   249  126  247 1    
@<TRIPOS>SUBSTRUCTURE
     1 UNK         1 GROUP             0       ****    0 ROOT    
