@<TRIPOS>MOLECULE
3R540
247   249    1
SMALL
USER_CHARGES


@<TRIPOS>ATOM
      1 CA          0.9815  -14.1232  -48.4501 C.3       0 UNK        -0.1800 
      2 C           1.5460  -14.5320  -47.0976 C.2       0 UNK         0.5000 
      3 O           1.2828  -13.8702  -46.0956 O.2       0 UNK        -0.5000 
      4 N           2.3027  -15.6356  -47.0605 N.am      1 UNK        -0.5000 
      5 CA          2.9369  -16.2086  -45.8634 C.3       1 UNK         0.1400 
      6 C6          3.9198  -17.3530  -46.2278 C.3       23 UNK        -0.0398 
      7 S7          3.2100  -18.6244  -47.3303 S.3       23 UNK        -0.2404 
      8 C8          4.1662  -18.3651  -48.8574 C.3       23 UNK        -0.0205 
      9 C9          3.5100  -19.1011  -50.0120 C.ar      23 UNK        -0.0193 
     10 C10         2.7253  -18.4105  -50.9373 C.ar      23 UNK        -0.1150 
     11 C11         2.0376  -19.0915  -51.9459 C.ar      23 UNK        -0.0193 
     12 C12         2.1439  -20.4879  -52.0174 C.ar      23 UNK        -0.1150 
     13 C13         2.9445  -21.1875  -51.1083 C.ar      23 UNK        -0.0193 
     14 C14         3.6422  -20.4849  -50.1232 C.ar      23 UNK        -0.1150 
     15 C15         3.0474  -22.7048  -51.1716 C.3       23 UNK        -0.0205 
     16 S16         1.5962  -23.5414  -50.4492 S.3       23 UNK        -0.2404 
     17 C17         1.6099  -22.9658  -48.7109 C.3       23 UNK        -0.0398 
     18 CA          0.2124  -22.5955  -48.1565 C.3       11 UNK         0.1400 
     19 N           0.2699  -22.3473  -46.7105 N.am      11 UNK        -0.5000 
     20 C          -0.7483  -22.0045  -45.9076 C.2       10 UNK         0.5000 
     21 O          -1.8820  -21.7507  -46.3148 O.2       10 UNK        -0.5000 
     22 CA         -0.4726  -21.9489  -44.3915 C.3       10 UNK         0.1400 
     23 CB         -1.2503  -23.0612  -43.6709 C.3       10 UNK        -0.1800 
     24 N           0.9457  -22.0589  -44.0353 N.am      10 UNK        -0.5000 
     25 C           1.8378  -21.0709  -44.1730 C.2       9 UNK         0.5000 
     26 O           1.5700  -19.9801  -44.6719 O.2       9 UNK        -0.5000 
     27 CA          3.2781  -21.3773  -43.7233 C.3       9 UNK         0.1400 
     28 CB          4.1243  -21.8278  -44.9247 C.3       9 UNK        -0.1800 
     29 N           3.9319  -20.2328  -43.0858 N.am      9 UNK        -0.5000 
     30 C           3.5369  -19.6510  -41.9448 C.2       8 UNK         0.5000 
     31 O           2.5604  -20.0291  -41.2930 O.2       8 UNK        -0.5000 
     32 CA          4.3938  -18.4889  -41.4045 C.3       8 UNK         0.1400 
     33 CB          5.4812  -17.9791  -42.3709 C.3       8 UNK        -0.1800 
     34 N           3.5302  -17.3690  -41.0461 N.am      8 UNK        -0.5000 
     35 C           3.2607  -16.9698  -39.7977 C.2       7 UNK         0.5000 
     36 O           3.7090  -17.5225  -38.7905 O.2       7 UNK        -0.5000 
     37 CA          2.3548  -15.7264  -39.6612 C.3       7 UNK         0.1400 
     38 CB          2.3039  -15.1679  -38.2243 C.3       7 UNK        -0.1800 
     39 N           2.6907  -14.6563  -40.6053 N.am      7 UNK        -0.5000 
     40 C           3.8743  -14.0472  -40.7784 C.2       6 UNK         0.5000 
     41 O           4.8937  -14.3111  -40.1399 O.2       6 UNK        -0.5000 
     42 CA          3.9148  -12.9306  -41.8332 C.3       6 UNK         0.1400 
     43 CB          3.8264  -13.5113  -43.2530 C.3       6 UNK        -0.1800 
     44 N           2.8121  -11.9938  -41.6289 N.am      6 UNK        -0.5000 
     45 C           2.9272  -10.7791  -41.0754 C.2       5 UNK         0.5000 
     46 O           3.9988  -10.2860  -40.7208 O.2       5 UNK        -0.5000 
     47 CA          1.6283   -9.9683  -40.8837 C.3       5 UNK         0.1400 
     48 CB          1.4162   -9.0093  -42.0653 C.3       5 UNK        -0.1800 
     49 N           0.4390  -10.8086  -40.7385 N.am      5 UNK        -0.5000 
     50 C           0.1774  -11.5883  -39.6805 C.2       4 UNK         0.5000 
     51 O           0.8656  -11.6048  -38.6598 O.2       4 UNK        -0.5000 
     52 CA         -1.0452  -12.5242  -39.7835 C.3       4 UNK         0.1400 
     53 CB         -2.2328  -11.9414  -39.0023 C.3       4 UNK        -0.1800 
     54 N          -1.4815  -12.8286  -41.1530 N.am      4 UNK        -0.5000 
     55 C          -0.7407  -13.4441  -42.0835 C.2       3 UNK         0.5000 
     56 O           0.4471  -13.7339  -41.9293 O.2       3 UNK        -0.5000 
     57 CA         -1.4244  -13.7404  -43.4275 C.3       3 UNK         0.1400 
     58 CB         -1.2430  -12.5552  -44.3874 C.3       3 UNK        -0.1800 
     59 N          -0.8740  -14.9504  -44.0394 N.am      3 UNK        -0.5000 
     60 C          -1.0934  -16.1914  -43.5776 C.2       2 UNK         0.5000 
     61 O          -1.8374  -16.4369  -42.6268 O.2       2 UNK        -0.5000 
     62 CA         -0.3990  -17.3636  -44.2966 C.3       2 UNK         0.1400 
     63 CB         -1.4191  -18.1548  -45.1323 C.3       2 UNK        -0.1800 
     64 N           0.6944  -16.9427  -45.1701 N.am      2 UNK        -0.5000 
     65 C           1.9339  -16.6370  -44.7644 C.2       1 UNK         0.5000 
     66 O           2.2950  -16.6536  -43.5859 O.2       1 UNK        -0.5000 
     67 C          -0.4866  -21.4755  -48.9622 C.2       11 UNK         0.5000 
     68 O          -1.3070  -21.7922  -49.8219 O.2       11 UNK        -0.5000 
     69 N          -0.2322  -20.2030  -48.6202 N.am      12 UNK        -0.5000 
     70 CA         -0.8516  -19.0409  -49.2716 C.3       12 UNK         0.1400 
     71 CB         -0.1620  -17.7559  -48.7905 C.3       12 UNK        -0.1800 
     72 C          -2.3801  -18.9247  -49.0806 C.2       12 UNK         0.5000 
     73 O          -3.0188  -18.1893  -49.8347 O.2       12 UNK        -0.5000 
     74 N          -2.9379  -19.6280  -48.0870 N.am      13 UNK        -0.5000 
     75 CA         -4.3767  -19.7552  -47.8679 C.3       13 UNK         0.1400 
     76 CB         -4.6861  -19.5304  -46.3795 C.3       13 UNK        -0.1800 
     77 C          -4.8687  -21.1385  -48.3222 C.2       13 UNK         0.5000 
     78 O          -5.9043  -21.2312  -48.9816 O.2       13 UNK        -0.5000 
     79 N          -4.1188  -22.1922  -47.9712 N.am      14 UNK        -0.5000 
     80 CA         -4.4636  -23.5860  -48.2423 C.3       14 UNK         0.1400 
     81 CB         -3.4914  -24.5131  -47.4989 C.3       14 UNK        -0.1800 
     82 C          -4.5102  -23.9274  -49.7403 C.2       14 UNK         0.5000 
     83 O          -5.4447  -24.6031  -50.1682 O.2       14 UNK        -0.5000 
     84 N          -3.5379  -23.4379  -50.5223 N.am      15 UNK        -0.5000 
     85 CA         -3.4771  -23.6666  -51.9675 C.3       15 UNK         0.1400 
     86 CB         -2.0624  -23.3699  -52.4834 C.3       15 UNK        -0.1800 
     87 C          -4.5408  -22.8588  -52.7335 C.2       15 UNK         0.5000 
     88 O          -5.0246  -23.3259  -53.7653 O.2       15 UNK        -0.5000 
     89 N          -4.9339  -21.6953  -52.1977 N.am      16 UNK        -0.5000 
     90 CA         -6.0502  -20.8967  -52.7033 C.3       16 UNK         0.1400 
     91 CB         -6.0401  -19.5041  -52.0553 C.3       16 UNK        -0.1800 
     92 C          -7.4028  -21.5926  -52.4762 C.2       16 UNK         0.5000 
     93 O          -8.2664  -21.5395  -53.3506 O.2       16 UNK        -0.5000 
     94 N          -7.5553  -22.2498  -51.3199 N.am      17 UNK        -0.5000 
     95 CA         -8.7407  -23.0250  -50.9677 C.3       17 UNK         0.1400 
     96 CB         -8.7547  -23.2729  -49.4507 C.3       17 UNK        -0.1800 
     97 C          -8.8306  -24.3511  -51.7454 C.2       17 UNK         0.5000 
     98 O          -9.8812  -24.6490  -52.3152 O.2       17 UNK        -0.5000 
     99 N          -7.7434  -25.1336  -51.7325 N.am      18 UNK        -0.5000 
    100 CA        -7.7223  -26.5051  -52.2393 C.3       18 UNK         0.1400 
    101 CB        -6.6167  -27.2954  -51.5211 C.3       18 UNK        -0.1800 
    102 C         -7.5385  -26.6024  -53.7620 C.2       18 UNK         0.5000 
    103 O         -8.2289  -27.4004  -54.3979 O.2       18 UNK        -0.5000 
    104 N         -6.5929  -25.8307  -54.3134 N.am      19 UNK        -0.5000 
    105 CA        -6.1314  -25.9660  -55.6992 C.3       19 UNK         0.1400 
    106 CB        -4.6012  -26.1339  -55.6874 C.3       19 UNK        -0.1800 
    107 C         -6.5357  -24.7810  -56.5929 C.2       19 UNK         0.5000 
    108 O         -6.2866  -24.8371  -57.7979 O.2       19 UNK        -0.5000 
    109 N         -7.1225  -23.7296  -56.0000 N.am      20 UNK        -0.5000 
    110 CA        -7.4407  -22.4361  -56.6200 C.3       20 UNK         0.1400 
    111 CB        -8.5210  -22.5895  -57.7118 C.3       20 UNK        -0.1800 
    112 C         -6.1821  -21.6829  -57.1073 C.2       20 UNK         0.5000 
    113 O         -6.2413  -20.9552  -58.1008 O.2       20 UNK        -0.5000 
    114 N         -5.0625  -21.8833  -56.3995 N.am      21 UNK        -0.5000 
    115 CA        -3.7695  -21.2565  -56.6619 C.3       21 UNK         0.1400 
    116 CB        -2.6645  -22.2660  -56.3002 C.3       21 UNK        -0.1800 
    117 C         -3.6366  -19.9234  -55.8945 C.2       21 UNK         0.5000 
    118 O         -4.6450  -19.2985  -55.5557 O.2       21 UNK        -0.5000 
    119 N         -2.3932  -19.4949  -55.6473 N.am      22 UNK        -0.5000 
    120 CA        -2.0666  -18.3304  -54.8133 C.3       22 UNK         0.1400 
    121 C         -2.4148  -18.5387  -53.3098 C.2       22 UNK         0.5000 
    122 N         -2.6640  -17.4686  -52.5681 N.am      22 UNK        -0.7600 
    123 O         -2.4214  -19.6548  -52.7983 O.2       22 UNK        -0.5000 
    124 C124       -0.5958  -17.8802  -55.0224 C.3       23 UNK        -0.0398 
    125 S125        0.6653  -19.0750  -54.4451 S.3       23 UNK        -0.2404 
    126 C126        1.1456  -18.2722  -52.8764 C.3       23 UNK        -0.0205 
    127 H127        1.3110  -13.1159  -48.7044 H         1 UNK         0.0600 
    128 H128       -0.1080  -14.1291  -48.4178 H         1 UNK         0.0600 
    129 H129        1.3021  -14.7975  -49.2447 H         1 UNK         0.0600 
    130 H130        2.4690  -16.1489  -47.9134 H         1 UNK         0.3000 
    131 H131        3.5333  -15.4090  -45.4213 H         1 UNK         0.0600 
    132 H132        4.2828  -17.8581  -45.3339 H         1 UNK         0.0800 
    133 H133        4.8075  -16.9281  -46.6979 H         1 UNK         0.0800 
    134 H134        5.1867  -18.7239  -48.7158 H         1 UNK         0.0800 
    135 H135        4.2360  -17.2990  -49.0781 H         1 UNK         0.0800 
    136 H136        2.6199  -17.3381  -50.8506 H         1 UNK         0.1150 
    137 H137        1.5930  -21.0426  -52.7629 H         1 UNK         0.1150 
    138 H138        4.2521  -21.0187  -49.4077 H         1 UNK         0.1150 
    139 H139        3.9486  -23.0501  -50.6626 H         1 UNK         0.0800 
    140 H140        3.1498  -23.0154  -52.2123 H         1 UNK         0.0800 
    141 H141        2.2880  -22.1252  -48.5826 H         1 UNK         0.0800 
    142 H142        2.0351  -23.7750  -48.1157 H         1 UNK         0.0800 
    143 H143       -0.4113  -23.4826  -48.2727 H         1 UNK         0.0600 
    144 H144        1.1602  -22.5151  -46.2677 H         1 UNK         0.3000 
    145 H145       -0.8461  -20.9881  -44.0314 H         1 UNK         0.0600 
    146 H146       -2.3194  -22.9894  -43.8764 H         1 UNK         0.0600 
    147 H147       -1.1253  -22.9935  -42.5901 H         1 UNK         0.0600 
    148 H148       -0.9219  -24.0521  -43.9870 H         1 UNK         0.0600 
    149 H149        1.2391  -22.9358  -43.6288 H         1 UNK         0.3000 
    150 H150        3.2507  -22.1897  -42.9942 H         1 UNK         0.0600 
    151 H151        4.2059  -21.0416  -45.6763 H         1 UNK         0.0600 
    152 H152        3.6856  -22.7005  -45.4099 H         1 UNK         0.0600 
    153 H153        5.1331  -22.1031  -44.6167 H         1 UNK         0.0600 
    154 H154        4.7312  -19.8508  -43.5677 H         1 UNK         0.3000 
    155 H155        4.9041  -18.8776  -40.5212 H         1 UNK         0.0600 
    156 H156        6.1644  -18.7742  -42.6715 H         1 UNK         0.0600 
    157 H157        6.0862  -17.2087  -41.8921 H         1 UNK         0.0600 
    158 H158        5.0497  -17.5370  -43.2668 H         1 UNK         0.0600 
    159 H159        3.0662  -16.9094  -41.8262 H         1 UNK         0.3000 
    160 H160        1.3480  -16.0552  -39.9226 H         1 UNK         0.0600 
    161 H161        3.2867  -14.8408  -37.8837 H         1 UNK         0.0600 
    162 H162        1.9460  -15.9217  -37.5222 H         1 UNK         0.0600 
    163 H163        1.6266  -14.3166  -38.1572 H         1 UNK         0.0600 
    164 H164        1.9147  -14.3581  -41.1952 H         1 UNK         0.3000 
    165 H165        4.8756  -12.4198  -41.7416 H         1 UNK         0.0600 
    166 H166        4.5845  -14.2794  -43.4110 H         1 UNK         0.0600 
    167 H167        2.8517  -13.9616  -43.4433 H         1 UNK         0.0600 
    168 H168        3.9829  -12.7369  -44.0039 H         1 UNK         0.0600 
    169 H169        1.8851  -12.3481  -41.8373 H         1 UNK         0.3000 
    170 H170        1.7402   -9.3733  -39.9748 H         1 UNK         0.0600 
    171 H171        0.5403   -8.3790  -41.9102 H         1 UNK         0.0600 
    172 H172        1.2807   -9.5499  -43.0030 H         1 UNK         0.0600 
    173 H173        2.2739   -8.3467  -42.1893 H         1 UNK         0.0600 
    174 H174       -0.1887  -10.8496  -41.5273 H         1 UNK         0.3000 
    175 H175       -0.7606  -13.4690  -39.3157 H         1 UNK         0.0600 
    176 H176       -1.9565  -11.7310  -37.9681 H         1 UNK         0.0600 
    177 H177       -2.5851  -11.0086  -39.4442 H         1 UNK         0.0600 
    178 H178       -3.0698  -12.6395  -38.9762 H         1 UNK         0.0600 
    179 H179       -2.4412  -12.6011  -41.3706 H         1 UNK         0.3000 
    180 H180       -2.4924  -13.8942  -43.2590 H         1 UNK         0.0600 
    181 H181       -0.1901  -12.3070  -44.5267 H         1 UNK         0.0600 
    182 H182       -1.7397  -11.6630  -44.0046 H         1 UNK         0.0600 
    183 H183       -1.6693  -12.7695  -45.3676 H         1 UNK         0.0600 
    184 H184       -0.1916  -14.8116  -44.7747 H         1 UNK         0.3000 
    185 H185        0.0047  -18.0284  -43.5298 H         1 UNK         0.0600 
    186 H186       -2.1946  -18.5843  -44.4972 H         1 UNK         0.0600 
    187 H187       -1.9140  -17.5233  -45.8710 H         1 UNK         0.0600 
    188 H188       -0.9415  -18.9790  -45.6609 H         1 UNK         0.0600 
    189 H189        0.4977  -16.8942  -46.1568 H         1 UNK         0.3000 
    190 H190        0.4358  -20.0173  -47.8856 H         1 UNK         0.3000 
    191 H191       -0.6754  -19.1393  -50.3447 H         1 UNK         0.0600 
    192 H192        0.9062  -17.7803  -48.9901 H         1 UNK         0.0600 
    193 H193       -0.5646  -16.8805  -49.3019 H         1 UNK         0.0600 
    194 H194       -0.2999  -17.6044  -47.7226 H         1 UNK         0.0600 
    195 H195       -2.3452  -20.2269  -47.5232 H         1 UNK         0.3000 
    196 H196       -4.9243  -19.0043  -48.4412 H         1 UNK         0.0600 
    197 H197       -5.7525  -19.6442  -46.1811 H         1 UNK         0.0600 
    198 H198       -4.4037  -18.5245  -46.0692 H         1 UNK         0.0600 
    199 H199       -4.1550  -20.2380  -45.7416 H         1 UNK         0.0600 
    200 H200       -3.2872  -22.0360  -47.4066 H         1 UNK         0.3000 
    201 H201       -5.4632  -23.7580  -47.8377 H         1 UNK         0.0600 
    202 H202       -3.7684  -25.5590  -47.6365 H         1 UNK         0.0600 
    203 H203       -3.4955  -24.3130  -46.4271 H         1 UNK         0.0600 
    204 H204       -2.4700  -24.3951  -47.8574 H         1 UNK         0.0600 
    205 H205       -2.8040  -22.8541  -50.1253 H         1 UNK         0.3000 
    206 H206       -3.6766  -24.7251  -52.1486 H         1 UNK         0.0600 
    207 H207       -1.8420  -22.3018  -52.4720 H         1 UNK         0.0600 
    208 H208       -1.3073  -23.8718  -51.8783 H         1 UNK         0.0600 
    209 H209       -1.9398  -23.7266  -53.5053 H         1 UNK         0.0600 
    210 H210       -4.4771  -21.3695  -51.3586 H         1 UNK         0.3000 
    211 H211       -5.9197  -20.7720  -53.7787 H         1 UNK         0.0600 
    212 H212       -5.1049  -18.9838  -52.2530 H         1 UNK         0.0600 
    213 H213       -6.8438  -18.8849  -52.4554 H         1 UNK         0.0600 
    214 H214       -6.1716  -19.5531  -50.9750 H         1 UNK         0.0600 
    215 H215       -6.8172  -22.1976  -50.6268 H         1 UNK         0.3000 
    216 H216       -9.6240  -22.4324  -51.2156 H         1 UNK         0.0600 
    217 H217       -7.8807  -23.8363  -49.1226 H         1 UNK         0.0600 
    218 H218       -9.6400  -23.8372  -49.1552 H         1 UNK         0.0600 
    219 H219       -8.7686  -22.3324  -48.8996 H         1 UNK         0.0600 
    220 H220       -6.9202  -24.8301  -51.2150 H         1 UNK         0.3000 
    221 H221       -8.6745  -26.9797  -51.9915 H         1 UNK         0.0600 
    222 H222       -5.6279  -26.8809  -51.7218 H         1 UNK         0.0600 
    223 H223       -6.7672  -27.2908  -50.4414 H         1 UNK         0.0600 
    224 H224       -6.6074  -28.3372  -51.8441 H         1 UNK         0.0600 
    225 H225       -6.0909  -25.1621  -53.7412 H         1 UNK         0.3000 
    226 H226       -6.5550  -26.8608  -56.1596 H         1 UNK         0.0600 
    227 H227       -4.3039  -26.9901  -55.0817 H         1 UNK         0.0600 
    228 H228       -4.2175  -26.3024  -56.6943 H         1 UNK         0.0600 
    229 H229       -4.0970  -25.2525  -55.2911 H         1 UNK         0.0600 
    230 H230       -7.2646  -23.7813  -55.0011 H         1 UNK         0.3000 
    231 H231       -7.8687  -21.8141  -55.8362 H         1 UNK         0.0600 
    232 H232       -8.1470  -23.1244  -58.5849 H         1 UNK         0.0600 
    233 H233       -8.8700  -21.6145  -58.0535 H         1 UNK         0.0600 
    234 H234       -9.3895  -23.1286  -57.3333 H         1 UNK         0.0600 
    235 H235       -5.1141  -22.4666  -55.5702 H         1 UNK         0.3000 
    236 H236       -3.6848  -21.0312  -57.7268 H         1 UNK         0.0600 
    237 H237       -2.6037  -22.4111  -55.2230 H         1 UNK         0.0600 
    238 H238       -2.8509  -23.2379  -56.7581 H         1 UNK         0.0600 
    239 H239       -1.6863  -21.9331  -56.6480 H         1 UNK         0.0600 
    240 H240       -1.6110  -20.0727  -55.9166 H         1 UNK         0.3000 
    241 H241       -2.6992  -17.5136  -55.1669 H         1 UNK         0.0600 
    242 H242       -2.6744  -16.5352  -52.9465 H         1 UNK         0.3800 
    243 H243       -2.8738  -17.6198  -51.5838 H         1 UNK         0.3800 
    244 H244       -0.4207  -17.7006  -56.0839 H         1 UNK         0.0800 
    245 H245       -0.4302  -16.9148  -54.5415 H         1 UNK         0.0800 
    246 H246        1.6470  -17.3343  -53.1206 H         1 UNK         0.0800 
    247 H247        0.2475  -18.0057  -52.3196 H         1 UNK         0.0800 
@<TRIPOS>BOND
     1    1    2 1    
     2    1  127 1    
     3    1  128 1    
     4    1  129 1    
     5    2    3 2    
     6    2    4 am   BACKBONE|DICT|INTERRES
     7    4    5 1    
     8    4  130 1    
     9    5    6 1    
    10    5   65 1    
    11    5  131 1    
    12    6    7 1    
    13    6  132 1    
    14    6  133 1    
    15    7    8 1    
    16    8    9 1    
    17    8  134 1    
    18    8  135 1    
    19    9   10 ar   
    20    9   14 ar   
    21   10   11 ar   
    22   10  136 1    
    23   11   12 ar   
    24   11  126 1    
    25   12   13 ar   
    26   12  137 1    
    27   13   14 ar   
    28   13   15 1    
    29   14  138 1    
    30   15   16 1    
    31   15  139 1    
    32   15  140 1    
    33   16   17 1    
    34   17   18 1    
    35   17  141 1    
    36   17  142 1    
    37   18   19 1    
    38   18   67 1    
    39   18  143 1    
    40   19   20 am   BACKBONE|DICT|INTERRES
    41   19  144 1    
    42   20   21 2    
    43   20   22 1    
    44   22   23 1    
    45   22   24 1    
    46   22  145 1    
    47   23  146 1    
    48   23  147 1    
    49   23  148 1    
    50   24   25 am   BACKBONE|DICT|INTERRES
    51   24  149 1    
    52   25   26 2    
    53   25   27 1    
    54   27   28 1    
    55   27   29 1    
    56   27  150 1    
    57   28  151 1    
    58   28  152 1    
    59   28  153 1    
    60   29   30 am   BACKBONE|DICT|INTERRES
    61   29  154 1    
    62   30   31 2    
    63   30   32 1    
    64   32   33 1    
    65   32   34 1    
    66   32  155 1    
    67   33  156 1    
    68   33  157 1    
    69   33  158 1    
    70   34   35 am   BACKBONE|DICT|INTERRES
    71   34  159 1    
    72   35   36 2    
    73   35   37 1    
    74   37   38 1    
    75   37   39 1    
    76   37  160 1    
    77   38  161 1    
    78   38  162 1    
    79   38  163 1    
    80   39   40 am   BACKBONE|DICT|INTERRES
    81   39  164 1    
    82   40   41 2    
    83   40   42 1    
    84   42   43 1    
    85   42   44 1    
    86   42  165 1    
    87   43  166 1    
    88   43  167 1    
    89   43  168 1    
    90   44   45 am   BACKBONE|DICT|INTERRES
    91   44  169 1    
    92   45   46 2    
    93   45   47 1    
    94   47   48 1    
    95   47   49 1    
    96   47  170 1    
    97   48  171 1    
    98   48  172 1    
    99   48  173 1    
   100   49   50 am   BACKBONE|DICT|INTERRES
   101   49  174 1    
   102   50   51 2    
   103   50   52 1    
   104   52   53 1    
   105   52   54 1    
   106   52  175 1    
   107   53  176 1    
   108   53  177 1    
   109   53  178 1    
   110   54   55 am   BACKBONE|DICT|INTERRES
   111   54  179 1    
   112   55   56 2    
   113   55   57 1    
   114   57   58 1    
   115   57   59 1    
   116   57  180 1    
   117   58  181 1    
   118   58  182 1    
   119   58  183 1    
   120   59   60 am   BACKBONE|DICT|INTERRES
   121   59  184 1    
   122   60   61 2    
   123   60   62 1    
   124   62   63 1    
   125   62   64 1    
   126   62  185 1    
   127   63  186 1    
   128   63  187 1    
   129   63  188 1    
   130   64   65 am   BACKBONE|DICT|INTERRES
   131   64  189 1    
   132   65   66 2    
   133   67   68 2    
   134   67   69 am   BACKBONE|DICT|INTERRES
   135   69   70 1    
   136   69  190 1    
   137   70   71 1    
   138   70   72 1    
   139   70  191 1    
   140   71  192 1    
   141   71  193 1    
   142   71  194 1    
   143   72   73 2    
   144   72   74 am   BACKBONE|DICT|INTERRES
   145   74   75 1    
   146   74  195 1    
   147   75   76 1    
   148   75   77 1    
   149   75  196 1    
   150   76  197 1    
   151   76  198 1    
   152   76  199 1    
   153   77   78 2    
   154   77   79 am   BACKBONE|DICT|INTERRES
   155   79   80 1    
   156   79  200 1    
   157   80   81 1    
   158   80   82 1    
   159   80  201 1    
   160   81  202 1    
   161   81  203 1    
   162   81  204 1    
   163   82   83 2    
   164   82   84 am   BACKBONE|DICT|INTERRES
   165   84   85 1    
   166   84  205 1    
   167   85   86 1    
   168   85   87 1    
   169   85  206 1    
   170   86  207 1    
   171   86  208 1    
   172   86  209 1    
   173   87   88 2    
   174   87   89 am   BACKBONE|DICT|INTERRES
   175   89   90 1    
   176   89  210 1    
   177   90   91 1    
   178   90   92 1    
   179   90  211 1    
   180   91  212 1    
   181   91  213 1    
   182   91  214 1    
   183   92   93 2    
   184   92   94 am   BACKBONE|DICT|INTERRES
   185   94   95 1    
   186   94  215 1    
   187   95   96 1    
   188   95   97 1    
   189   95  216 1    
   190   96  217 1    
   191   96  218 1    
   192   96  219 1    
   193   97   98 2    
   194   97   99 am   BACKBONE|DICT|INTERRES
   195   99  100 1    
   196   99  220 1    
   197  100  101 1    
   198  100  102 1    
   199  100  221 1    
   200  101  222 1    
   201  101  223 1    
   202  101  224 1    
   203  102  103 2    
   204  102  104 am   BACKBONE|DICT|INTERRES
   205  104  105 1    
   206  104  225 1    
   207  105  106 1    
   208  105  107 1    
   209  105  226 1    
   210  106  227 1    
   211  106  228 1    
   212  106  229 1    
   213  107  108 2    
   214  107  109 am   BACKBONE|DICT|INTERRES
   215  109  110 1    
   216  109  230 1    
   217  110  111 1    
   218  110  112 1    
   219  110  231 1    
   220  111  232 1    
   221  111  233 1    
   222  111  234 1    
   223  112  113 2    
   224  112  114 am   BACKBONE|DICT|INTERRES
   225  114  115 1    
   226  114  235 1    
   227  115  116 1    
   228  115  117 1    
   229  115  236 1    
   230  116  237 1    
   231  116  238 1    
   232  116  239 1    
   233  117  118 2    
   234  117  119 am   BACKBONE|DICT|INTERRES
   235  119  120 1    
   236  119  240 1    
   237  120  121 1    
   238  120  124 1    
   239  120  241 1    
   240  121  122 am   BACKBONE|DICT|INTERRES
   241  121  123 2    
   242  122  242 1    
   243  122  243 1    
   244  124  125 1    
   245  124  244 1    
   246  124  245 1    
   247  125  126 1    
   248  126  246 1    
   249  126  247 1    
@<TRIPOS>SUBSTRUCTURE
     1 UNK         1 GROUP             0       ****    0 ROOT    
