@<TRIPOS>MOLECULE
3R540
247   249    1
SMALL
USER_CHARGES


@<TRIPOS>ATOM
      1 CA          1.4279  -12.8530  -48.1149 C.3       0 UNK        -0.1800 
      2 C           0.1945  -13.5811  -47.6042 C.2       0 UNK         0.5000 
      3 O          -0.4805  -13.0851  -46.7013 O.2       0 UNK        -0.5000 
      4 N          -0.1176  -14.7466  -48.1879 N.am      1 UNK        -0.5000 
      5 CA         -1.2336  -15.6269  -47.8095 C.3       1 UNK         0.1400 
      6 C6         -1.2558  -16.9284  -48.6448 C.3       23 UNK        -0.0398 
      7 S7          0.1791  -17.9998  -48.3151 S.3       23 UNK        -0.2404 
      8 C8          1.1623  -17.8354  -49.8424 C.3       23 UNK        -0.0205 
      9 C9          2.1664  -18.9726  -49.9848 C.ar      23 UNK        -0.0193 
     10 C10         2.1690  -19.7784  -51.1281 C.ar      23 UNK        -0.1150 
     11 C11         3.0675  -20.8441  -51.2467 C.ar      23 UNK        -0.0193 
     12 C12         3.9582  -21.1116  -50.2018 C.ar      23 UNK        -0.1150 
     13 C13         3.9723  -20.3086  -49.0581 C.ar      23 UNK        -0.0193 
     14 C14         3.0936  -19.2253  -48.9704 C.ar      23 UNK        -0.1150 
     15 C15         4.9330  -20.6055  -47.9137 C.3       23 UNK        -0.0205 
     16 S16         4.3838  -22.0004  -46.8715 S.3       23 UNK        -0.2404 
     17 C17         2.7543  -21.4301  -46.2808 C.3       23 UNK        -0.0398 
     18 CA          1.6647  -22.5084  -46.4936 C.3       11 UNK         0.1400 
     19 N           1.6648  -23.5001  -45.4148 N.am      11 UNK        -0.5000 
     20 C           0.9735  -24.6479  -45.4221 C.2       10 UNK         0.5000 
     21 O           0.2889  -25.0313  -46.3677 O.2       10 UNK        -0.5000 
     22 CA          1.0097  -25.4812  -44.1290 C.3       10 UNK         0.1400 
     23 CB          2.2855  -26.3342  -44.0675 C.3       10 UNK        -0.1800 
     24 N           0.9223  -24.6485  -42.9291 N.am      10 UNK        -0.5000 
     25 C          -0.1361  -23.8929  -42.6007 C.2       9 UNK         0.5000 
     26 O          -1.1813  -23.8600  -43.2487 O.2       9 UNK        -0.5000 
     27 CA          0.0257  -22.9797  -41.3719 C.3       9 UNK         0.1400 
     28 CB         -0.3812  -23.7202  -40.0896 C.3       9 UNK        -0.1800 
     29 N           1.3918  -22.4679  -41.2287 N.am      9 UNK        -0.5000 
     30 C           1.9737  -21.6261  -42.0918 C.2       8 UNK         0.5000 
     31 O           1.4105  -21.1677  -43.0906 O.2       8 UNK        -0.5000 
     32 CA          3.4439  -21.2859  -41.8252 C.3       8 UNK         0.1400 
     33 CB          4.3696  -22.2949  -42.5308 C.3       8 UNK        -0.1800 
     34 N           3.6995  -19.9337  -42.3042 N.am      8 UNK        -0.5000 
     35 C           4.7343  -19.1593  -41.9594 C.2       7 UNK         0.5000 
     36 O           5.6376  -19.5371  -41.2116 O.2       7 UNK        -0.5000 
     37 CA          4.7573  -17.7055  -42.4815 C.3       7 UNK         0.1400 
     38 CB          6.0549  -17.3921  -43.2549 C.3       7 UNK        -0.1800 
     39 N           3.5634  -17.3036  -43.2397 N.am      7 UNK        -0.5000 
     40 C           3.1937  -17.6733  -44.4753 C.2       6 UNK         0.5000 
     41 O           3.8379  -18.4386  -45.1898 O.2       6 UNK        -0.5000 
     42 CA          1.8441  -17.1340  -44.9830 C.3       6 UNK         0.1400 
     43 CB          0.7758  -18.2272  -44.8675 C.3       6 UNK        -0.1800 
     44 N           1.3626  -15.9595  -44.2568 N.am      6 UNK        -0.5000 
     45 C           1.8435  -14.7169  -44.3815 C.2       5 UNK         0.5000 
     46 O           2.8084  -14.4279  -45.0901 O.2       5 UNK        -0.5000 
     47 CA          1.0777  -13.6260  -43.6073 C.3       5 UNK         0.1400 
     48 CB          1.5493  -12.2017  -43.9518 C.3       5 UNK        -0.1800 
     49 N          -0.3542  -13.7274  -43.8877 N.am      5 UNK        -0.5000 
     50 C          -1.2469  -14.4366  -43.1842 C.2       4 UNK         0.5000 
     51 O          -0.9417  -15.0936  -42.1882 O.2       4 UNK        -0.5000 
     52 CA         -2.7003  -14.4702  -43.7088 C.3       4 UNK         0.1400 
     53 CB         -3.7425  -14.5405  -42.5740 C.3       4 UNK        -0.1800 
     54 N          -3.0134  -13.3935  -44.6554 N.am      4 UNK        -0.5000 
     55 C          -3.0463  -12.0710  -44.4215 C.2       3 UNK         0.5000 
     56 O          -2.8974  -11.5708  -43.3062 O.2       3 UNK        -0.5000 
     57 CA         -3.2398  -11.1460  -45.6414 C.3       3 UNK         0.1400 
     58 CB         -2.1464  -10.0642  -45.6867 C.3       3 UNK        -0.1800 
     59 N          -3.1924  -11.8936  -46.8986 N.am      3 UNK        -0.5000 
     60 C          -4.2506  -12.2335  -47.6459 C.2       2 UNK         0.5000 
     61 O          -5.4069  -11.8971  -47.3899 O.2       2 UNK        -0.5000 
     62 CA         -3.9717  -13.1118  -48.8835 C.3       2 UNK         0.1400 
     63 CB         -3.8314  -12.2304  -50.1345 C.3       2 UNK        -0.1800 
     64 N          -2.7711  -13.9437  -48.7534 N.am      2 UNK        -0.5000 
     65 C          -2.6147  -14.9381  -47.8671 C.2       1 UNK         0.5000 
     66 O          -3.4895  -15.2884  -47.0760 O.2       1 UNK        -0.5000 
     67 C           0.2710  -21.8754  -46.6672 C.2       11 UNK         0.5000 
     68 O          -0.2236  -21.8069  -47.7929 O.2       11 UNK        -0.5000 
     69 N          -0.3575  -21.4765  -45.5499 N.am      12 UNK        -0.5000 
     70 CA         -1.7105  -20.9156  -45.5252 C.3       12 UNK         0.1400 
     71 CB         -2.0695  -20.4728  -44.0984 C.3       12 UNK        -0.1800 
     72 C          -2.7683  -21.8941  -46.0656 C.2       12 UNK         0.5000 
     73 O          -3.6335  -21.4812  -46.8388 O.2       12 UNK        -0.5000 
     74 N          -2.6532  -23.1706  -45.6726 N.am      13 UNK        -0.5000 
     75 CA         -3.4969  -24.2708  -46.1325 C.3       13 UNK         0.1400 
     76 CB         -3.2569  -25.5061  -45.2515 C.3       13 UNK        -0.1800 
     77 C          -3.2800  -24.6096  -47.6176 C.2       13 UNK         0.5000 
     78 O          -4.2619  -24.7895  -48.3372 O.2       13 UNK        -0.5000 
     79 N          -2.0134  -24.6689  -48.0569 N.am      14 UNK        -0.5000 
     80 CA         -1.6231  -24.9471  -49.4425 C.3       14 UNK         0.1400 
     81 CB         -0.1000  -25.1263  -49.5364 C.3       14 UNK        -0.1800 
     82 C          -2.0927  -23.8629  -50.4248 C.2       14 UNK         0.5000 
     83 O          -2.5678  -24.1932  -51.5106 O.2       14 UNK        -0.5000 
     84 N          -1.9726  -22.5935  -50.0169 N.am      15 UNK        -0.5000 
     85 CA         -2.4642  -21.4417  -50.7697 C.3       15 UNK         0.1400 
     86 CB         -1.7184  -20.1897  -50.2964 C.3       15 UNK        -0.1800 
     87 C          -3.9812  -21.2373  -50.6415 C.2       15 UNK         0.5000 
     88 O          -4.5485  -20.4938  -51.4406 O.2       15 UNK        -0.5000 
     89 N          -4.5992  -21.8500  -49.6218 N.am      16 UNK        -0.5000 
     90 CA         -6.0015  -21.7126  -49.2173 C.3       16 UNK         0.1400 
     91 CB         -6.9247  -22.3822  -50.2558 C.3       16 UNK        -0.1800 
     92 C          -6.3725  -20.2433  -48.9223 C.2       16 UNK         0.5000 
     93 O          -7.4155  -19.7661  -49.3666 O.2       16 UNK        -0.5000 
     94 N          -5.4656  -19.5379  -48.2275 N.am      17 UNK        -0.5000 
     95 CA         -5.4764  -18.0876  -47.9852 C.3       17 UNK         0.1400 
     96 CB         -6.6248  -17.6940  -47.0343 C.3       17 UNK        -0.1800 
     97 C          -5.4565  -17.2594  -49.2936 C.2       17 UNK         0.5000 
     98 O          -6.1342  -16.2364  -49.3965 O.2       17 UNK        -0.5000 
     99 N          -4.6694  -17.7395  -50.2685 N.am      18 UNK        -0.5000 
    100 CA        -4.4673  -17.2075  -51.6216 C.3       18 UNK         0.1400 
    101 CB        -3.8971  -15.7753  -51.5905 C.3       18 UNK        -0.1800 
    102 C         -5.6991  -17.3362  -52.5425 C.2       18 UNK         0.5000 
    103 O         -5.8243  -16.5732  -53.5027 O.2       18 UNK        -0.5000 
    104 N         -6.5683  -18.3227  -52.2865 N.am      19 UNK        -0.5000 
    105 CA        -7.7469  -18.6351  -53.0993 C.3       19 UNK         0.1400 
    106 CB        -8.8162  -19.2991  -52.2153 C.3       19 UNK        -0.1800 
    107 C         -7.3848  -19.4828  -54.3387 C.2       19 UNK         0.5000 
    108 O         -7.9340  -20.5696  -54.5275 O.2       19 UNK        -0.5000 
    109 N         -6.4692  -18.9536  -55.1638 N.am      20 UNK        -0.5000 
    110 CA        -5.9991  -19.4909  -56.4462 C.3       20 UNK         0.1400 
    111 CB        -7.1174  -19.3947  -57.5056 C.3       20 UNK        -0.1800 
    112 C         -5.3891  -20.9063  -56.3401 C.2       20 UNK         0.5000 
    113 O         -5.7204  -21.7873  -57.1368 O.2       20 UNK        -0.5000 
    114 N         -4.4992  -21.0955  -55.3601 N.am      21 UNK        -0.5000 
    115 CA        -3.7524  -22.3292  -55.1281 C.3       21 UNK         0.1400 
    116 CB        -4.4750  -23.1690  -54.0625 C.3       21 UNK        -0.1800 
    117 C         -2.3085  -21.9877  -54.7230 C.2       21 UNK         0.5000 
    118 O         -2.0192  -20.8341  -54.3945 O.2       21 UNK        -0.5000 
    119 N         -1.4265  -22.9949  -54.7771 N.am      22 UNK        -0.5000 
    120 CA         0.0341  -22.8885  -54.5807 C.3       22 UNK         0.1400 
    121 C          0.7902  -22.1967  -55.7613 C.2       22 UNK         0.5000 
    122 N          0.1695  -21.9903  -56.9170 N.am      22 UNK        -0.7600 
    123 O          1.9679  -21.8708  -55.6547 O.2       22 UNK        -0.5000 
    124 C124        0.4206  -22.3306  -53.1769 C.3       23 UNK        -0.0398 
    125 S125        1.9319  -23.0769  -52.4724 S.3       23 UNK        -0.2404 
    126 C126        3.1075  -21.6853  -52.5146 C.3       23 UNK        -0.0205 
    127 H127        1.1619  -11.8461  -48.4361 H         1 UNK         0.0600 
    128 H128        1.8848  -13.3714  -48.9580 H         1 UNK         0.0600 
    129 H129        2.1702  -12.7740  -47.3210 H         1 UNK         0.0600 
    130 H130        0.4803  -15.0978  -48.9210 H         1 UNK         0.3000 
    131 H131       -1.0740  -15.8996  -46.7638 H         1 UNK         0.0600 
    132 H132       -1.3175  -16.7068  -49.7104 H         1 UNK         0.0800 
    133 H133       -2.1415  -17.5204  -48.4080 H         1 UNK         0.0800 
    134 H134        1.6940  -16.8836  -49.8345 H         1 UNK         0.0800 
    135 H135        0.4931  -17.8179  -50.7037 H         1 UNK         0.0800 
    136 H136        1.4732  -19.5733  -51.9284 H         1 UNK         0.1150 
    137 H137        4.6453  -21.9426  -50.2791 H         1 UNK         0.1150 
    138 H138        3.1028  -18.5979  -48.0896 H         1 UNK         0.1150 
    139 H139        5.9187  -20.8359  -48.3199 H         1 UNK         0.0800 
    140 H140        5.0636  -19.7232  -47.2851 H         1 UNK         0.0800 
    141 H141        2.4911  -20.5055  -46.7887 H         1 UNK         0.0800 
    142 H142        2.8421  -21.1518  -45.2317 H         1 UNK         0.0800 
    143 H143        1.8756  -23.0348  -47.4275 H         1 UNK         0.0600 
    144 H144        2.1727  -23.2519  -44.5804 H         1 UNK         0.3000 
    145 H145        0.1478  -26.1519  -44.1391 H         1 UNK         0.0600 
    146 H146        2.2837  -26.9835  -43.1918 H         1 UNK         0.0600 
    147 H147        2.3676  -26.9757  -44.9461 H         1 UNK         0.0600 
    148 H148        3.1839  -25.7169  -44.0266 H         1 UNK         0.0600 
    149 H149        1.7353  -24.6208  -42.3324 H         1 UNK         0.3000 
    150 H150       -0.6441  -22.1271  -41.5017 H         1 UNK         0.0600 
    151 H151       -1.4031  -24.0948  -40.1637 H         1 UNK         0.0600 
    152 H152       -0.3409  -23.0596  -39.2233 H         1 UNK         0.0600 
    153 H153        0.2681  -24.5741  -39.8923 H         1 UNK         0.0600 
    154 H154        1.9171  -22.8012  -40.4330 H         1 UNK         0.3000 
    155 H155        3.6197  -21.3190  -40.7480 H         1 UNK         0.0600 
    156 H156        4.2605  -22.2546  -43.6146 H         1 UNK         0.0600 
    157 H157        4.1536  -23.3161  -42.2151 H         1 UNK         0.0600 
    158 H158        5.4168  -22.1028  -42.2976 H         1 UNK         0.0600 
    159 H159        2.9848  -19.5641  -42.9169 H         1 UNK         0.3000 
    160 H160        4.7561  -17.0756  -41.5909 H         1 UNK         0.0600 
    161 H161        6.0633  -16.3624  -43.6123 H         1 UNK         0.0600 
    162 H162        6.1870  -18.0490  -44.1148 H         1 UNK         0.0600 
    163 H163        6.9289  -17.5203  -42.6154 H         1 UNK         0.0600 
    164 H164        2.9326  -16.6894  -42.7448 H         1 UNK         0.3000 
    165 H165        1.9632  -16.8682  -46.0355 H         1 UNK         0.0600 
    166 H166       -0.1912  -17.8832  -45.2343 H         1 UNK         0.0600 
    167 H167        1.0528  -19.0993  -45.4571 H         1 UNK         0.0600 
    168 H168        0.6497  -18.5540  -43.8350 H         1 UNK         0.0600 
    169 H169        0.5735  -16.0987  -43.6395 H         1 UNK         0.3000 
    170 H170        1.2613  -13.7895  -42.5435 H         1 UNK         0.0600 
    171 H171        2.6072  -12.0719  -43.7208 H         1 UNK         0.0600 
    172 H172        1.4120  -11.9742  -45.0092 H         1 UNK         0.0600 
    173 H173        0.9979  -11.4569  -43.3777 H         1 UNK         0.0600 
    174 H174       -0.6541  -13.3022  -44.7599 H         1 UNK         0.3000 
    175 H175       -2.7832  -15.3955  -44.2806 H         1 UNK         0.0600 
    176 H176       -3.6677  -13.6881  -41.8987 H         1 UNK         0.0600 
    177 H177       -4.7570  -14.5671  -42.9718 H         1 UNK         0.0600 
    178 H178       -3.6075  -15.4416  -41.9747 H         1 UNK         0.0600 
    179 H179       -3.1737  -13.7011  -45.6066 H         1 UNK         0.3000 
    180 H180       -4.2064  -10.6521  -45.5255 H         1 UNK         0.0600 
    181 H181       -1.1493  -10.5027  -45.7473 H         1 UNK         0.0600 
    182 H182       -2.1755   -9.4359  -44.7957 H         1 UNK         0.0600 
    183 H183       -2.2767   -9.4086  -46.5478 H         1 UNK         0.0600 
    184 H184       -2.2762  -12.2447  -47.1576 H         1 UNK         0.3000 
    185 H185       -4.8290  -13.7743  -49.0190 H         1 UNK         0.0600 
    186 H186       -4.7303  -11.6331  -50.2930 H         1 UNK         0.0600 
    187 H187       -2.9907  -11.5409  -50.0476 H         1 UNK         0.0600 
    188 H188       -3.6799  -12.8297  -51.0318 H         1 UNK         0.0600 
    189 H189       -1.9910  -13.7051  -49.3482 H         1 UNK         0.3000 
    190 H190        0.1262  -21.5480  -44.6612 H         1 UNK         0.3000 
    191 H191       -1.7118  -20.0333  -46.1689 H         1 UNK         0.0600 
    192 H192       -2.1090  -21.3176  -43.4111 H         1 UNK         0.0600 
    193 H193       -3.0468  -19.9892  -44.0773 H         1 UNK         0.0600 
    194 H194       -1.3476  -19.7603  -43.7039 H         1 UNK         0.0600 
    195 H195       -1.9426  -23.4040  -44.9850 H         1 UNK         0.3000 
    196 H196       -4.5384  -23.9661  -46.0102 H         1 UNK         0.0600 
    197 H197       -3.8865  -26.3395  -45.5655 H         1 UNK         0.0600 
    198 H198       -3.4915  -25.2961  -44.2078 H         1 UNK         0.0600 
    199 H199       -2.2199  -25.8399  -45.2991 H         1 UNK         0.0600 
    200 H200       -1.2528  -24.5581  -47.3914 H         1 UNK         0.3000 
    201 H201       -2.0937  -25.8870  -49.7380 H         1 UNK         0.0600 
    202 H202        0.2361  -25.9694  -48.9331 H         1 UNK         0.0600 
    203 H203        0.4317  -24.2364  -49.1973 H         1 UNK         0.0600 
    204 H204        0.2093  -25.3198  -50.5645 H         1 UNK         0.0600 
    205 H205       -1.5048  -22.3981  -49.1346 H         1 UNK         0.3000 
    206 H206       -2.2533  -21.5856  -51.8276 H         1 UNK         0.0600 
    207 H207       -1.9341  -19.9721  -49.2497 H         1 UNK         0.0600 
    208 H208       -1.9940  -19.3151  -50.8859 H         1 UNK         0.0600 
    209 H209       -0.6406  -20.3192  -50.3924 H         1 UNK         0.0600 
    210 H210       -4.0300  -22.4130  -49.0040 H         1 UNK         0.3000 
    211 H211       -6.1093  -22.2532  -48.2759 H         1 UNK         0.0600 
    212 H212       -6.8567  -21.9001  -51.2312 H         1 UNK         0.0600 
    213 H213       -7.9676  -22.3423  -49.9396 H         1 UNK         0.0600 
    214 H214       -6.6653  -23.4328  -50.3868 H         1 UNK         0.0600 
    215 H215       -4.6705  -20.0510  -47.8573 H         1 UNK         0.3000 
    216 H216       -4.5411  -17.8613  -47.4718 H         1 UNK         0.0600 
    217 H217       -6.5456  -16.6454  -46.7442 H         1 UNK         0.0600 
    218 H218       -6.5991  -18.2856  -46.1193 H         1 UNK         0.0600 
    219 H219       -7.6019  -17.8324  -47.4976 H         1 UNK         0.0600 
    220 H220       -4.2441  -18.6415  -50.1098 H         1 UNK         0.3000 
    221 H221       -3.7050  -17.8432  -52.0738 H         1 UNK         0.0600 
    222 H222       -4.6329  -15.0584  -51.2276 H         1 UNK         0.0600 
    223 H223       -3.0176  -15.7107  -50.9541 H         1 UNK         0.0600 
    224 H224       -3.5941  -15.4515  -52.5867 H         1 UNK         0.0600 
    225 H225       -6.3660  -18.9566  -51.5239 H         1 UNK         0.3000 
    226 H226       -8.1760  -17.7015  -53.4691 H         1 UNK         0.0600 
    227 H227       -9.7355  -19.4718  -52.7760 H         1 UNK         0.0600 
    228 H228       -8.4811  -20.2620  -51.8312 H         1 UNK         0.0600 
    229 H229       -9.0705  -18.6682  -51.3633 H         1 UNK         0.0600 
    230 H230       -6.0799  -18.0569  -54.8911 H         1 UNK         0.3000 
    231 H231       -5.1875  -18.8380  -56.7705 H         1 UNK         0.0600 
    232 H232       -7.4960  -18.3759  -57.5876 H         1 UNK         0.0600 
    233 H233       -7.9584  -20.0465  -57.2670 H         1 UNK         0.0600 
    234 H234       -6.7493  -19.6823  -58.4912 H         1 UNK         0.0600 
    235 H235       -4.2296  -20.3200  -54.7692 H         1 UNK         0.3000 
    236 H236       -3.6969  -22.9065  -56.0534 H         1 UNK         0.0600 
    237 H237       -5.4899  -23.4133  -54.3765 H         1 UNK         0.0600 
    238 H238       -3.9566  -24.1111  -53.8827 H         1 UNK         0.0600 
    239 H239       -4.5414  -22.6429  -53.1117 H         1 UNK         0.0600 
    240 H240       -1.7563  -23.9117  -55.0446 H         1 UNK         0.3000 
    241 H241        0.3730  -23.9242  -54.6189 H         1 UNK         0.0600 
    242 H242       -0.7900  -22.2663  -57.0464 H         1 UNK         0.3800 
    243 H243        0.6723  -21.5560  -57.6751 H         1 UNK         0.3800 
    244 H244       -0.3634  -22.5726  -52.4644 H         1 UNK         0.0800 
    245 H245        0.4834  -21.2425  -53.1884 H         1 UNK         0.0800 
    246 H246        4.1113  -22.0893  -52.6539 H         1 UNK         0.0800 
    247 H247        2.9210  -21.0541  -53.3836 H         1 UNK         0.0800 
@<TRIPOS>BOND
     1    1    2 1    
     2    1  127 1    
     3    1  128 1    
     4    1  129 1    
     5    2    3 2    
     6    2    4 am   BACKBONE|DICT|INTERRES
     7    4    5 1    
     8    4  130 1    
     9    5    6 1    
    10    5   65 1    
    11    5  131 1    
    12    6    7 1    
    13    6  132 1    
    14    6  133 1    
    15    7    8 1    
    16    8    9 1    
    17    8  134 1    
    18    8  135 1    
    19    9   10 ar   
    20    9   14 ar   
    21   10   11 ar   
    22   10  136 1    
    23   11   12 ar   
    24   11  126 1    
    25   12   13 ar   
    26   12  137 1    
    27   13   14 ar   
    28   13   15 1    
    29   14  138 1    
    30   15   16 1    
    31   15  139 1    
    32   15  140 1    
    33   16   17 1    
    34   17   18 1    
    35   17  141 1    
    36   17  142 1    
    37   18   19 1    
    38   18   67 1    
    39   18  143 1    
    40   19   20 am   BACKBONE|DICT|INTERRES
    41   19  144 1    
    42   20   21 2    
    43   20   22 1    
    44   22   23 1    
    45   22   24 1    
    46   22  145 1    
    47   23  146 1    
    48   23  147 1    
    49   23  148 1    
    50   24   25 am   BACKBONE|DICT|INTERRES
    51   24  149 1    
    52   25   26 2    
    53   25   27 1    
    54   27   28 1    
    55   27   29 1    
    56   27  150 1    
    57   28  151 1    
    58   28  152 1    
    59   28  153 1    
    60   29   30 am   BACKBONE|DICT|INTERRES
    61   29  154 1    
    62   30   31 2    
    63   30   32 1    
    64   32   33 1    
    65   32   34 1    
    66   32  155 1    
    67   33  156 1    
    68   33  157 1    
    69   33  158 1    
    70   34   35 am   BACKBONE|DICT|INTERRES
    71   34  159 1    
    72   35   36 2    
    73   35   37 1    
    74   37   38 1    
    75   37   39 1    
    76   37  160 1    
    77   38  161 1    
    78   38  162 1    
    79   38  163 1    
    80   39   40 am   BACKBONE|DICT|INTERRES
    81   39  164 1    
    82   40   41 2    
    83   40   42 1    
    84   42   43 1    
    85   42   44 1    
    86   42  165 1    
    87   43  166 1    
    88   43  167 1    
    89   43  168 1    
    90   44   45 am   BACKBONE|DICT|INTERRES
    91   44  169 1    
    92   45   46 2    
    93   45   47 1    
    94   47   48 1    
    95   47   49 1    
    96   47  170 1    
    97   48  171 1    
    98   48  172 1    
    99   48  173 1    
   100   49   50 am   BACKBONE|DICT|INTERRES
   101   49  174 1    
   102   50   51 2    
   103   50   52 1    
   104   52   53 1    
   105   52   54 1    
   106   52  175 1    
   107   53  176 1    
   108   53  177 1    
   109   53  178 1    
   110   54   55 am   BACKBONE|DICT|INTERRES
   111   54  179 1    
   112   55   56 2    
   113   55   57 1    
   114   57   58 1    
   115   57   59 1    
   116   57  180 1    
   117   58  181 1    
   118   58  182 1    
   119   58  183 1    
   120   59   60 am   BACKBONE|DICT|INTERRES
   121   59  184 1    
   122   60   61 2    
   123   60   62 1    
   124   62   63 1    
   125   62   64 1    
   126   62  185 1    
   127   63  186 1    
   128   63  187 1    
   129   63  188 1    
   130   64   65 am   BACKBONE|DICT|INTERRES
   131   64  189 1    
   132   65   66 2    
   133   67   68 2    
   134   67   69 am   BACKBONE|DICT|INTERRES
   135   69   70 1    
   136   69  190 1    
   137   70   71 1    
   138   70   72 1    
   139   70  191 1    
   140   71  192 1    
   141   71  193 1    
   142   71  194 1    
   143   72   73 2    
   144   72   74 am   BACKBONE|DICT|INTERRES
   145   74   75 1    
   146   74  195 1    
   147   75   76 1    
   148   75   77 1    
   149   75  196 1    
   150   76  197 1    
   151   76  198 1    
   152   76  199 1    
   153   77   78 2    
   154   77   79 am   BACKBONE|DICT|INTERRES
   155   79   80 1    
   156   79  200 1    
   157   80   81 1    
   158   80   82 1    
   159   80  201 1    
   160   81  202 1    
   161   81  203 1    
   162   81  204 1    
   163   82   83 2    
   164   82   84 am   BACKBONE|DICT|INTERRES
   165   84   85 1    
   166   84  205 1    
   167   85   86 1    
   168   85   87 1    
   169   85  206 1    
   170   86  207 1    
   171   86  208 1    
   172   86  209 1    
   173   87   88 2    
   174   87   89 am   BACKBONE|DICT|INTERRES
   175   89   90 1    
   176   89  210 1    
   177   90   91 1    
   178   90   92 1    
   179   90  211 1    
   180   91  212 1    
   181   91  213 1    
   182   91  214 1    
   183   92   93 2    
   184   92   94 am   BACKBONE|DICT|INTERRES
   185   94   95 1    
   186   94  215 1    
   187   95   96 1    
   188   95   97 1    
   189   95  216 1    
   190   96  217 1    
   191   96  218 1    
   192   96  219 1    
   193   97   98 2    
   194   97   99 am   BACKBONE|DICT|INTERRES
   195   99  100 1    
   196   99  220 1    
   197  100  101 1    
   198  100  102 1    
   199  100  221 1    
   200  101  222 1    
   201  101  223 1    
   202  101  224 1    
   203  102  103 2    
   204  102  104 am   BACKBONE|DICT|INTERRES
   205  104  105 1    
   206  104  225 1    
   207  105  106 1    
   208  105  107 1    
   209  105  226 1    
   210  106  227 1    
   211  106  228 1    
   212  106  229 1    
   213  107  108 2    
   214  107  109 am   BACKBONE|DICT|INTERRES
   215  109  110 1    
   216  109  230 1    
   217  110  111 1    
   218  110  112 1    
   219  110  231 1    
   220  111  232 1    
   221  111  233 1    
   222  111  234 1    
   223  112  113 2    
   224  112  114 am   BACKBONE|DICT|INTERRES
   225  114  115 1    
   226  114  235 1    
   227  115  116 1    
   228  115  117 1    
   229  115  236 1    
   230  116  237 1    
   231  116  238 1    
   232  116  239 1    
   233  117  118 2    
   234  117  119 am   BACKBONE|DICT|INTERRES
   235  119  120 1    
   236  119  240 1    
   237  120  121 1    
   238  120  124 1    
   239  120  241 1    
   240  121  122 am   BACKBONE|DICT|INTERRES
   241  121  123 2    
   242  122  242 1    
   243  122  243 1    
   244  124  125 1    
   245  124  244 1    
   246  124  245 1    
   247  125  126 1    
   248  126  246 1    
   249  126  247 1    
@<TRIPOS>SUBSTRUCTURE
     1 UNK         1 GROUP             0       ****    0 ROOT    
