@<TRIPOS>MOLECULE
3R540
247   249    1
SMALL
USER_CHARGES


@<TRIPOS>ATOM
      1 CA          6.3122  -17.5448  -45.5763 C.3       0 UNK        -0.1800 
      2 C           6.0440  -17.5695  -47.0812 C.2       0 UNK         0.5000 
      3 O           6.6813  -18.3434  -47.7922 O.2       0 UNK        -0.5000 
      4 N           5.1109  -16.7679  -47.6140 N.am      1 UNK        -0.5000 
      5 CA          4.3499  -15.7095  -46.9432 C.3       1 UNK         0.1400 
      6 C6          3.0818  -15.2786  -47.7406 C.3       23 UNK        -0.0398 
      7 S7          3.2811  -15.2023  -49.5596 S.3       23 UNK        -0.2404 
      8 C8          2.3807  -16.6975  -50.0992 C.3       23 UNK        -0.0205 
      9 C9          0.9861  -16.3813  -50.6279 C.ar      23 UNK        -0.0193 
     10 C10         0.7064  -16.5196  -51.9924 C.ar      23 UNK        -0.1150 
     11 C11        -0.5729  -16.2595  -52.4959 C.ar      23 UNK        -0.0193 
     12 C12        -1.5729  -15.8357  -51.6140 C.ar      23 UNK        -0.1150 
     13 C13        -1.3153  -15.7084  -50.2472 C.ar      23 UNK        -0.0193 
     14 C14        -0.0332  -15.9801  -49.7585 C.ar      23 UNK        -0.1150 
     15 C15        -2.4343  -15.2815  -49.3101 C.3       23 UNK        -0.0205 
     16 S16        -3.4085  -16.7111  -48.7357 S.3       23 UNK        -0.2404 
     17 C17        -2.3136  -17.3990  -47.4499 C.3       23 UNK        -0.0398 
     18 CA         -1.5640  -18.6806  -47.8893 C.3       11 UNK         0.1400 
     19 N          -0.3673  -18.9185  -47.0809 N.am      11 UNK        -0.5000 
     20 C           0.5379  -19.8812  -47.3044 C.2       10 UNK         0.5000 
     21 O           0.4928  -20.6585  -48.2553 O.2       10 UNK        -0.5000 
     22 CA          1.6614  -20.0364  -46.2682 C.3       10 UNK         0.1400 
     23 CB          2.7884  -19.0366  -46.5400 C.3       10 UNK        -0.1800 
     24 N           1.1896  -19.8888  -44.8918 N.am      10 UNK        -0.5000 
     25 C           0.3414  -20.7414  -44.2986 C.2       9 UNK         0.5000 
     26 O          -0.1332  -21.7333  -44.8539 O.2       9 UNK        -0.5000 
     27 CA         -0.0701  -20.4167  -42.8531 C.3       9 UNK         0.1400 
     28 CB          1.0690  -20.7470  -41.8768 C.3       9 UNK        -0.1800 
     29 N          -0.4753  -19.0227  -42.6801 N.am      9 UNK        -0.5000 
     30 C          -1.5333  -18.4570  -43.2785 C.2       8 UNK         0.5000 
     31 O          -2.2939  -19.0530  -44.0435 O.2       8 UNK        -0.5000 
     32 CA         -1.7440  -16.9526  -43.0196 C.3       8 UNK         0.1400 
     33 CB         -2.3309  -16.7118  -41.6209 C.3       8 UNK        -0.1800 
     34 N          -0.5225  -16.1602  -43.1845 N.am      8 UNK        -0.5000 
     35 C           0.2045  -16.1232  -44.3093 C.2       7 UNK         0.5000 
     36 O          -0.0473  -16.7754  -45.3180 O.2       7 UNK        -0.5000 
     37 CA          1.4580  -15.2457  -44.3060 C.3       7 UNK         0.1400 
     38 CB          1.0918  -13.7626  -44.4381 C.3       7 UNK        -0.1800 
     39 N           2.3133  -15.4958  -43.1472 N.am      7 UNK        -0.5000 
     40 C           2.9037  -16.6761  -42.9010 C.2       6 UNK         0.5000 
     41 O           2.8873  -17.6268  -43.6822 O.2       6 UNK        -0.5000 
     42 CA          3.5773  -16.8408  -41.5307 C.3       6 UNK         0.1400 
     43 CB          4.9885  -16.2326  -41.5332 C.3       6 UNK        -0.1800 
     44 N           2.7708  -16.2576  -40.4570 N.am      6 UNK        -0.5000 
     45 C           1.5779  -16.7379  -40.0718 C.2       5 UNK         0.5000 
     46 O           1.0566  -17.7415  -40.5577 O.2       5 UNK        -0.5000 
     47 CA          0.8188  -15.9548  -38.9857 C.3       5 UNK         0.1400 
     48 CB          1.1794  -16.4848  -37.5902 C.3       5 UNK        -0.1800 
     49 N           1.0605  -14.5130  -39.0306 N.am      5 UNK        -0.5000 
     50 C           0.7058  -13.7011  -40.0358 C.2       4 UNK         0.5000 
     51 O           0.1148  -14.0920  -41.0459 O.2       4 UNK        -0.5000 
     52 CA          1.0759  -12.2050  -39.8937 C.3       4 UNK         0.1400 
     53 CB          1.9627  -11.8923  -38.6667 C.3       4 UNK        -0.1800 
     54 N           1.6958  -11.6338  -41.0956 N.am      4 UNK        -0.5000 
     55 C           2.7478  -12.1144  -41.7736 C.2       3 UNK         0.5000 
     56 O           3.2776  -13.2008  -41.5308 O.2       3 UNK        -0.5000 
     57 CA          3.2540  -11.2264  -42.9321 C.3       3 UNK         0.1400 
     58 CB          3.8517   -9.9033  -42.4093 C.3       3 UNK        -0.1800 
     59 N           4.1885  -11.9052  -43.8433 N.am      3 UNK        -0.5000 
     60 C           5.4353  -12.3339  -43.5947 C.2       2 UNK         0.5000 
     61 O           6.0276  -12.1731  -42.5265 O.2       2 UNK        -0.5000 
     62 CA          6.1219  -13.0797  -44.7537 C.3       2 UNK         0.1400 
     63 CB          7.4485  -13.7506  -44.3413 C.3       2 UNK        -0.1800 
     64 N           5.2180  -14.0811  -45.3250 N.am      2 UNK        -0.5000 
     65 C           5.2682  -14.5198  -46.5902 C.2       1 UNK         0.5000 
     66 O           6.0185  -14.0516  -47.4486 O.2       1 UNK        -0.5000 
     67 C          -2.4886  -19.9113  -47.8917 C.2       11 UNK         0.5000 
     68 O          -2.8711  -20.3691  -48.9659 O.2       11 UNK        -0.5000 
     69 N          -2.7779  -20.4618  -46.7023 N.am      12 UNK        -0.5000 
     70 CA         -3.5865  -21.6702  -46.5294 C.3       12 UNK         0.1400 
     71 CB         -3.8298  -21.9162  -45.0330 C.3       12 UNK        -0.1800 
     72 C          -2.9645  -22.9115  -47.1960 C.2       12 UNK         0.5000 
     73 O          -3.6731  -23.6511  -47.8827 O.2       12 UNK        -0.5000 
     74 N          -1.6491  -23.0939  -47.0111 N.am      13 UNK        -0.5000 
     75 CA         -0.8672  -24.1744  -47.6126 C.3       13 UNK         0.1400 
     76 CB          0.5487  -24.1788  -47.0168 C.3       13 UNK        -0.1800 
     77 C          -0.8137  -24.0923  -49.1488 C.2       13 UNK         0.5000 
     78 O          -0.9768  -25.1157  -49.8140 O.2       13 UNK        -0.5000 
     79 N          -0.6096  -22.8798  -49.6820 N.am      14 UNK        -0.5000 
     80 CA         -0.6013  -22.5951  -51.1160 C.3       14 UNK         0.1400 
     81 CB         -0.0534  -21.1797  -51.3560 C.3       14 UNK        -0.1800 
     82 C          -1.9905  -22.7504  -51.7569 C.2       14 UNK         0.5000 
     83 O          -2.0872  -23.2602  -52.8724 O.2       14 UNK        -0.5000 
     84 N          -3.0351  -22.3008  -51.0486 N.am      15 UNK        -0.5000 
     85 CA         -4.4264  -22.3621  -51.4880 C.3       15 UNK         0.1400 
     86 CB         -5.2914  -21.4730  -50.5824 C.3       15 UNK        -0.1800 
     87 C          -4.9940  -23.7845  -51.5333 C.2       15 UNK         0.5000 
     88 O          -5.8048  -24.0691  -52.4153 O.2       15 UNK        -0.5000 
     89 N          -4.5834  -24.6317  -50.5773 N.am      16 UNK        -0.5000 
     90 CA         -5.0149  -26.0219  -50.3974 C.3       16 UNK         0.1400 
     91 CB         -4.4913  -26.9015  -51.5525 C.3       16 UNK        -0.1800 
     92 C          -6.5429  -26.1185  -50.2073 C.2       16 UNK         0.5000 
     93 O          -7.2219  -26.8222  -50.9554 O.2       16 UNK        -0.5000 
     94 N          -7.0583  -25.3382  -49.2443 N.am      17 UNK        -0.5000 
     95 CA         -8.4854  -25.1243  -48.9589 C.3       17 UNK         0.1400 
     96 CB         -9.1547  -26.4214  -48.4571 C.3       17 UNK        -0.1800 
     97 C          -9.2349  -24.4703  -50.1429 C.2       17 UNK         0.5000 
     98 O         -10.3874  -24.8073  -50.4166 O.2       17 UNK        -0.5000 
     99 N          -8.5379  -23.5487  -50.8244 N.am      18 UNK        -0.5000 
    100 CA        -8.9484  -22.7711  -52.0007 C.3       18 UNK         0.1400 
    101 CB       -10.1997  -21.9195  -51.7030 C.3       18 UNK        -0.1800 
    102 C         -9.0886  -23.5877  -53.3026 C.2       18 UNK         0.5000 
    103 O         -9.5421  -23.0361  -54.3063 O.2       18 UNK        -0.5000 
    104 N         -8.6627  -24.8587  -53.3002 N.am      19 UNK        -0.5000 
    105 CA        -8.6778  -25.7384  -54.4706 C.3       19 UNK         0.1400 
    106 CB        -8.4424  -27.1869  -54.0186 C.3       19 UNK        -0.1800 
    107 C         -7.6457  -25.3402  -55.5434 C.2       19 UNK         0.5000 
    108 O         -7.8865  -25.5788  -56.7275 O.2       19 UNK        -0.5000 
    109 N         -6.5259  -24.7429  -55.1157 N.am      20 UNK        -0.5000 
    110 CA        -5.4160  -24.3179  -55.9707 C.3       20 UNK         0.1400 
    111 CB        -4.1149  -24.9036  -55.3965 C.3       20 UNK        -0.1800 
    112 C         -5.3242  -22.7842  -56.0986 C.2       20 UNK         0.5000 
    113 O         -4.3410  -22.2923  -56.6570 O.2       20 UNK        -0.5000 
    114 N         -6.3258  -22.0563  -55.5761 N.am      21 UNK        -0.5000 
    115 CA        -6.4175  -20.5948  -55.4439 C.3       21 UNK         0.1400 
    116 CB        -6.4367  -19.8909  -56.8171 C.3       21 UNK        -0.1800 
    117 C         -5.3302  -20.0503  -54.4983 C.2       21 UNK         0.5000 
    118 O         -5.6191  -19.8138  -53.3269 O.2       21 UNK        -0.5000 
    119 N         -4.1005  -19.9401  -55.0066 N.am      22 UNK        -0.5000 
    120 CA        -2.8446  -19.8561  -54.2494 C.3       22 UNK         0.1400 
    121 C         -1.6127  -20.2865  -55.0998 C.2       22 UNK         0.5000 
    122 N         -1.7810  -21.0953  -56.1415 N.am      22 UNK        -0.7600 
    123 O         -0.4834  -19.8977  -54.8179 O.2       22 UNK        -0.5000 
    124 C124       -2.6566  -18.5531  -53.4264 C.3       23 UNK        -0.0398 
    125 S125       -2.5314  -17.0195  -54.4114 S.3       23 UNK        -0.2404 
    126 C126       -0.8440  -16.4438  -53.9916 C.3       23 UNK        -0.0205 
    127 H127        6.8533  -16.6425  -45.2941 H         1 UNK         0.0600 
    128 H128        6.9232  -18.4001  -45.2876 H         1 UNK         0.0600 
    129 H129        5.3889  -17.5994  -45.0010 H         1 UNK         0.0600 
    130 H130        4.9815  -16.7892  -48.6153 H         1 UNK         0.3000 
    131 H131        3.9975  -16.1299  -46.0020 H         1 UNK         0.0600 
    132 H132        2.2694  -15.9693  -47.5176 H         1 UNK         0.0800 
    133 H133        2.7167  -14.3081  -47.3993 H         1 UNK         0.0800 
    134 H134        2.3086  -17.4241  -49.2890 H         1 UNK         0.0800 
    135 H135        2.9726  -17.1841  -50.8759 H         1 UNK         0.0800 
    136 H136        1.4877  -16.8408  -52.6671 H         1 UNK         0.1150 
    137 H137       -2.5649  -15.6213  -51.9849 H         1 UNK         0.1150 
    138 H138        0.1706  -15.8831  -48.7020 H         1 UNK         0.1150 
    139 H139       -2.0362  -14.7244  -48.4606 H         1 UNK         0.0800 
    140 H140       -3.1023  -14.5932  -49.8302 H         1 UNK         0.0800 
    141 H141       -2.8895  -17.5672  -46.5381 H         1 UNK         0.0800 
    142 H142       -1.5971  -16.6209  -47.1988 H         1 UNK         0.0800 
    143 H143       -1.2145  -18.5353  -48.9139 H         1 UNK         0.0600 
    144 H144       -0.2342  -18.2944  -46.2874 H         1 UNK         0.3000 
    145 H145        2.0723  -21.0424  -46.3748 H         1 UNK         0.0600 
    146 H146        3.6344  -19.2126  -45.8762 H         1 UNK         0.0600 
    147 H147        3.1538  -19.1215  -47.5641 H         1 UNK         0.0600 
    148 H148        2.4501  -18.0127  -46.3890 H         1 UNK         0.0600 
    149 H149        1.5416  -19.0909  -44.3737 H         1 UNK         0.3000 
    150 H150       -0.9263  -21.0464  -42.6027 H         1 UNK         0.0600 
    151 H151        1.3894  -21.7840  -41.9844 H         1 UNK         0.0600 
    152 H152        0.7522  -20.6097  -40.8428 H         1 UNK         0.0600 
    153 H153        1.9403  -20.1125  -42.0450 H         1 UNK         0.0600 
    154 H154        0.0933  -18.4614  -42.0510 H         1 UNK         0.3000 
    155 H155       -2.4654  -16.5911  -43.7552 H         1 UNK         0.0600 
    156 H156       -1.6614  -17.0651  -40.8371 H         1 UNK         0.0600 
    157 H157       -3.2796  -17.2365  -41.5017 H         1 UNK         0.0600 
    158 H158       -2.5199  -15.6521  -41.4481 H         1 UNK         0.0600 
    159 H159       -0.2436  -15.5736  -42.4043 H         1 UNK         0.3000 
    160 H160        2.0215  -15.5176  -45.1937 H         1 UNK         0.0600 
    161 H161        1.9679  -13.1670  -44.6788 H         1 UNK         0.0600 
    162 H162        0.6418  -13.3680  -43.5280 H         1 UNK         0.0600 
    163 H163        0.3763  -13.6079  -45.2471 H         1 UNK         0.0600 
    164 H164        2.3826  -14.7645  -42.4463 H         1 UNK         0.3000 
    165 H165        3.6729  -17.9113  -41.3363 H         1 UNK         0.0600 
    166 H166        5.4888  -16.3963  -40.5787 H         1 UNK         0.0600 
    167 H167        5.6074  -16.6904  -42.3061 H         1 UNK         0.0600 
    168 H168        4.9739  -15.1595  -41.7225 H         1 UNK         0.0600 
    169 H169        3.1054  -15.3953  -40.0507 H         1 UNK         0.3000 
    170 H170       -0.2485  -16.1181  -39.1449 H         1 UNK         0.0600 
    171 H171        0.9862  -17.5561  -37.5179 H         1 UNK         0.0600 
    172 H172        2.2331  -16.3250  -37.3580 H         1 UNK         0.0600 
    173 H173        0.5864  -15.9965  -36.8167 H         1 UNK         0.0600 
    174 H174        1.5471  -14.1132  -38.2415 H         1 UNK         0.3000 
    175 H175        0.1300  -11.6789  -39.7588 H         1 UNK         0.0600 
    176 H176        2.9227  -12.4081  -38.7165 H         1 UNK         0.0600 
    177 H177        2.1694  -10.8240  -38.5998 H         1 UNK         0.0600 
    178 H178        1.4729  -12.1754  -37.7341 H         1 UNK         0.0600 
    179 H179        1.2900  -10.7630  -41.4075 H         1 UNK         0.3000 
    180 H180        2.3823  -10.9764  -43.5387 H         1 UNK         0.0600 
    181 H181        4.6687  -10.0732  -41.7076 H         1 UNK         0.0600 
    182 H182        3.1001   -9.3091  -41.8889 H         1 UNK         0.0600 
    183 H183        4.2336   -9.2923  -43.2272 H         1 UNK         0.0600 
    184 H184        3.8214  -12.0906  -44.7653 H         1 UNK         0.3000 
    185 H185        6.3439  -12.3227  -45.5090 H         1 UNK         0.0600 
    186 H186        8.1475  -13.0213  -43.9302 H         1 UNK         0.0600 
    187 H187        7.2885  -14.5191  -43.5841 H         1 UNK         0.0600 
    188 H188        7.9397  -14.2179  -45.1947 H         1 UNK         0.0600 
    189 H189        4.5714  -14.4974  -44.6693 H         1 UNK         0.3000 
    190 H190       -2.4217  -20.0299  -45.8554 H         1 UNK         0.3000 
    191 H191       -4.5531  -21.4912  -47.0045 H         1 UNK         0.0600 
    192 H192       -2.8945  -22.0561  -44.4899 H         1 UNK         0.0600 
    193 H193       -4.4391  -22.8072  -44.8765 H         1 UNK         0.0600 
    194 H194       -4.3563  -21.0773  -44.5774 H         1 UNK         0.0600 
    195 H195       -1.1465  -22.4549  -46.4017 H         1 UNK         0.3000 
    196 H196       -1.3484  -25.1182  -47.3480 H         1 UNK         0.0600 
    197 H197        1.1473  -24.9883  -47.4363 H         1 UNK         0.0600 
    198 H198        0.5208  -24.3206  -45.9363 H         1 UNK         0.0600 
    199 H199        1.0725  -23.2438  -47.2173 H         1 UNK         0.0600 
    200 H200       -0.4296  -22.0909  -49.0654 H         1 UNK         0.3000 
    201 H201        0.0717  -23.3066  -51.5988 H         1 UNK         0.0600 
    202 H202        0.9560  -21.0745  -50.9584 H         1 UNK         0.0600 
    203 H203       -0.6786  -20.4184  -50.8872 H         1 UNK         0.0600 
    204 H204       -0.0043  -20.9563  -52.4211 H         1 UNK         0.0600 
    205 H205       -2.8638  -21.8194  -50.1688 H         1 UNK         0.3000 
    206 H206       -4.4755  -21.9778  -52.5050 H         1 UNK         0.0600 
    207 H207       -4.9588  -20.4356  -50.6225 H         1 UNK         0.0600 
    208 H208       -6.3334  -21.4796  -50.8969 H         1 UNK         0.0600 
    209 H209       -5.2557  -21.7980  -49.5421 H         1 UNK         0.0600 
    210 H210       -3.9626  -24.2714  -49.8598 H         1 UNK         0.3000 
    211 H211       -4.5574  -26.3765  -49.4727 H         1 UNK         0.0600 
    212 H212       -4.7251  -27.9523  -51.3787 H         1 UNK         0.0600 
    213 H213       -3.4084  -26.8195  -51.6471 H         1 UNK         0.0600 
    214 H214       -4.9317  -26.6235  -52.5108 H         1 UNK         0.0600 
    215 H215       -6.4133  -24.7920  -48.6890 H         1 UNK         0.3000 
    216 H216       -8.5270  -24.4014  -48.1430 H         1 UNK         0.0600 
    217 H217      -10.1683  -26.2256  -48.1053 H         1 UNK         0.0600 
    218 H218       -8.6012  -26.8537  -47.6236 H         1 UNK         0.0600 
    219 H219       -9.2236  -27.1753  -49.2416 H         1 UNK         0.0600 
    220 H220       -7.5847  -23.3987  -50.5305 H         1 UNK         0.3000 
    221 H221       -8.1314  -22.0762  -52.1953 H         1 UNK         0.0600 
    222 H222      -11.0923  -22.5341  -51.5859 H         1 UNK         0.0600 
    223 H223      -10.0714  -21.3342  -50.7925 H         1 UNK         0.0600 
    224 H224      -10.3959  -21.2158  -52.5128 H         1 UNK         0.0600 
    225 H225       -8.2596  -25.2372  -52.4527 H         1 UNK         0.3000 
    226 H226       -9.6694  -25.6812  -54.9244 H         1 UNK         0.0600 
    227 H227       -9.1686  -27.4902  -53.2641 H         1 UNK         0.0600 
    228 H228       -8.5355  -27.8773  -54.8578 H         1 UNK         0.0600 
    229 H229       -7.4452  -27.3180  -53.5966 H         1 UNK         0.0600 
    230 H230       -6.4028  -24.5809  -54.1174 H         1 UNK         0.3000 
    231 H231       -5.5402  -24.7087  -56.9823 H         1 UNK         0.0600 
    232 H232       -4.1667  -25.9906  -55.3336 H         1 UNK         0.0600 
    233 H233       -3.9115  -24.5222  -54.3961 H         1 UNK         0.0600 
    234 H234       -3.2568  -24.6563  -56.0225 H         1 UNK         0.0600 
    235 H235       -7.0852  -22.5728  -55.1548 H         1 UNK         0.3000 
    236 H236       -7.3776  -20.3944  -54.9653 H         1 UNK         0.0600 
    237 H237       -5.5318  -20.0693  -57.3974 H         1 UNK         0.0600 
    238 H238       -7.2829  -20.2299  -57.4147 H         1 UNK         0.0600 
    239 H239       -6.5378  -18.8117  -56.6963 H         1 UNK         0.0600 
    240 H240       -3.9808  -20.1729  -55.9833 H         1 UNK         0.3000 
    241 H241       -2.9056  -20.6504  -53.5089 H         1 UNK         0.0600 
    242 H242       -2.6787  -21.5249  -56.3522 H         1 UNK         0.3800 
    243 H243       -0.9726  -21.3630  -56.6797 H         1 UNK         0.3800 
    244 H244       -1.7773  -18.6581  -52.7898 H         1 UNK         0.0800 
    245 H245       -3.4862  -18.4290  -52.7302 H         1 UNK         0.0800 
    246 H246       -0.1314  -17.1540  -54.4142 H         1 UNK         0.0800 
    247 H247       -0.6659  -15.4928  -54.4946 H         1 UNK         0.0800 
@<TRIPOS>BOND
     1    1    2 1    
     2    1  127 1    
     3    1  128 1    
     4    1  129 1    
     5    2    3 2    
     6    2    4 am   BACKBONE|DICT|INTERRES
     7    4    5 1    
     8    4  130 1    
     9    5    6 1    
    10    5   65 1    
    11    5  131 1    
    12    6    7 1    
    13    6  132 1    
    14    6  133 1    
    15    7    8 1    
    16    8    9 1    
    17    8  134 1    
    18    8  135 1    
    19    9   10 ar   
    20    9   14 ar   
    21   10   11 ar   
    22   10  136 1    
    23   11   12 ar   
    24   11  126 1    
    25   12   13 ar   
    26   12  137 1    
    27   13   14 ar   
    28   13   15 1    
    29   14  138 1    
    30   15   16 1    
    31   15  139 1    
    32   15  140 1    
    33   16   17 1    
    34   17   18 1    
    35   17  141 1    
    36   17  142 1    
    37   18   19 1    
    38   18   67 1    
    39   18  143 1    
    40   19   20 am   BACKBONE|DICT|INTERRES
    41   19  144 1    
    42   20   21 2    
    43   20   22 1    
    44   22   23 1    
    45   22   24 1    
    46   22  145 1    
    47   23  146 1    
    48   23  147 1    
    49   23  148 1    
    50   24   25 am   BACKBONE|DICT|INTERRES
    51   24  149 1    
    52   25   26 2    
    53   25   27 1    
    54   27   28 1    
    55   27   29 1    
    56   27  150 1    
    57   28  151 1    
    58   28  152 1    
    59   28  153 1    
    60   29   30 am   BACKBONE|DICT|INTERRES
    61   29  154 1    
    62   30   31 2    
    63   30   32 1    
    64   32   33 1    
    65   32   34 1    
    66   32  155 1    
    67   33  156 1    
    68   33  157 1    
    69   33  158 1    
    70   34   35 am   BACKBONE|DICT|INTERRES
    71   34  159 1    
    72   35   36 2    
    73   35   37 1    
    74   37   38 1    
    75   37   39 1    
    76   37  160 1    
    77   38  161 1    
    78   38  162 1    
    79   38  163 1    
    80   39   40 am   BACKBONE|DICT|INTERRES
    81   39  164 1    
    82   40   41 2    
    83   40   42 1    
    84   42   43 1    
    85   42   44 1    
    86   42  165 1    
    87   43  166 1    
    88   43  167 1    
    89   43  168 1    
    90   44   45 am   BACKBONE|DICT|INTERRES
    91   44  169 1    
    92   45   46 2    
    93   45   47 1    
    94   47   48 1    
    95   47   49 1    
    96   47  170 1    
    97   48  171 1    
    98   48  172 1    
    99   48  173 1    
   100   49   50 am   BACKBONE|DICT|INTERRES
   101   49  174 1    
   102   50   51 2    
   103   50   52 1    
   104   52   53 1    
   105   52   54 1    
   106   52  175 1    
   107   53  176 1    
   108   53  177 1    
   109   53  178 1    
   110   54   55 am   BACKBONE|DICT|INTERRES
   111   54  179 1    
   112   55   56 2    
   113   55   57 1    
   114   57   58 1    
   115   57   59 1    
   116   57  180 1    
   117   58  181 1    
   118   58  182 1    
   119   58  183 1    
   120   59   60 am   BACKBONE|DICT|INTERRES
   121   59  184 1    
   122   60   61 2    
   123   60   62 1    
   124   62   63 1    
   125   62   64 1    
   126   62  185 1    
   127   63  186 1    
   128   63  187 1    
   129   63  188 1    
   130   64   65 am   BACKBONE|DICT|INTERRES
   131   64  189 1    
   132   65   66 2    
   133   67   68 2    
   134   67   69 am   BACKBONE|DICT|INTERRES
   135   69   70 1    
   136   69  190 1    
   137   70   71 1    
   138   70   72 1    
   139   70  191 1    
   140   71  192 1    
   141   71  193 1    
   142   71  194 1    
   143   72   73 2    
   144   72   74 am   BACKBONE|DICT|INTERRES
   145   74   75 1    
   146   74  195 1    
   147   75   76 1    
   148   75   77 1    
   149   75  196 1    
   150   76  197 1    
   151   76  198 1    
   152   76  199 1    
   153   77   78 2    
   154   77   79 am   BACKBONE|DICT|INTERRES
   155   79   80 1    
   156   79  200 1    
   157   80   81 1    
   158   80   82 1    
   159   80  201 1    
   160   81  202 1    
   161   81  203 1    
   162   81  204 1    
   163   82   83 2    
   164   82   84 am   BACKBONE|DICT|INTERRES
   165   84   85 1    
   166   84  205 1    
   167   85   86 1    
   168   85   87 1    
   169   85  206 1    
   170   86  207 1    
   171   86  208 1    
   172   86  209 1    
   173   87   88 2    
   174   87   89 am   BACKBONE|DICT|INTERRES
   175   89   90 1    
   176   89  210 1    
   177   90   91 1    
   178   90   92 1    
   179   90  211 1    
   180   91  212 1    
   181   91  213 1    
   182   91  214 1    
   183   92   93 2    
   184   92   94 am   BACKBONE|DICT|INTERRES
   185   94   95 1    
   186   94  215 1    
   187   95   96 1    
   188   95   97 1    
   189   95  216 1    
   190   96  217 1    
   191   96  218 1    
   192   96  219 1    
   193   97   98 2    
   194   97   99 am   BACKBONE|DICT|INTERRES
   195   99  100 1    
   196   99  220 1    
   197  100  101 1    
   198  100  102 1    
   199  100  221 1    
   200  101  222 1    
   201  101  223 1    
   202  101  224 1    
   203  102  103 2    
   204  102  104 am   BACKBONE|DICT|INTERRES
   205  104  105 1    
   206  104  225 1    
   207  105  106 1    
   208  105  107 1    
   209  105  226 1    
   210  106  227 1    
   211  106  228 1    
   212  106  229 1    
   213  107  108 2    
   214  107  109 am   BACKBONE|DICT|INTERRES
   215  109  110 1    
   216  109  230 1    
   217  110  111 1    
   218  110  112 1    
   219  110  231 1    
   220  111  232 1    
   221  111  233 1    
   222  111  234 1    
   223  112  113 2    
   224  112  114 am   BACKBONE|DICT|INTERRES
   225  114  115 1    
   226  114  235 1    
   227  115  116 1    
   228  115  117 1    
   229  115  236 1    
   230  116  237 1    
   231  116  238 1    
   232  116  239 1    
   233  117  118 2    
   234  117  119 am   BACKBONE|DICT|INTERRES
   235  119  120 1    
   236  119  240 1    
   237  120  121 1    
   238  120  124 1    
   239  120  241 1    
   240  121  122 am   BACKBONE|DICT|INTERRES
   241  121  123 2    
   242  122  242 1    
   243  122  243 1    
   244  124  125 1    
   245  124  244 1    
   246  124  245 1    
   247  125  126 1    
   248  126  246 1    
   249  126  247 1    
@<TRIPOS>SUBSTRUCTURE
     1 UNK         1 GROUP             0       ****    0 ROOT    
