@<TRIPOS>MOLECULE
3R540
247   249    1
SMALL
USER_CHARGES


@<TRIPOS>ATOM
      1 CA          4.4559  -13.2921  -47.9611 C.3       0 UNK        -0.1800 
      2 C           3.1483  -12.9826  -47.2476 C.2       0 UNK         0.5000 
      3 O           3.1625  -12.6014  -46.0775 O.2       0 UNK        -0.5000 
      4 N           2.0194  -13.1387  -47.9482 N.am      1 UNK        -0.5000 
      5 CA          0.6475  -12.9658  -47.4479 C.3       1 UNK         0.1400 
      6 C6         -0.3775  -13.7697  -48.2970 C.3       23 UNK        -0.0398 
      7 S7          0.1108  -15.5079  -48.5822 S.3       23 UNK        -0.2404 
      8 C8          0.4287  -15.4904  -50.3799 C.3       23 UNK        -0.0205 
      9 C9          1.0938  -16.7390  -50.9637 C.ar      23 UNK        -0.0193 
     10 C10         1.2050  -16.8244  -52.3555 C.ar      23 UNK        -0.1150 
     11 C11         1.8134  -17.9250  -52.9633 C.ar      23 UNK        -0.0193 
     12 C12         2.3290  -18.9489  -52.1670 C.ar      23 UNK        -0.1150 
     13 C13         2.2236  -18.8871  -50.7764 C.ar      23 UNK        -0.0193 
     14 C14         1.6068  -17.7830  -50.1792 C.ar      23 UNK        -0.1150 
     15 C15         2.7516  -20.0344  -49.9317 C.3       23 UNK        -0.0205 
     16 S16         1.4258  -21.2290  -49.6238 S.3       23 UNK        -0.2404 
     17 C17         2.3344  -22.6977  -49.0198 C.3       23 UNK        -0.0398 
     18 CA          1.6137  -23.5536  -47.9383 C.3       11 UNK         0.1400 
     19 N           1.7308  -22.9906  -46.5870 N.am      11 UNK        -0.5000 
     20 C           1.5037  -23.6936  -45.4648 C.2       10 UNK         0.5000 
     21 O           0.9530  -24.7944  -45.4503 O.2       10 UNK        -0.5000 
     22 CA          1.9842  -23.0813  -44.1379 C.3       10 UNK         0.1400 
     23 CB          3.4831  -22.7359  -44.1726 C.3       10 UNK        -0.1800 
     24 N           1.2110  -21.8850  -43.8436 N.am      10 UNK        -0.5000 
     25 C           0.1572  -21.8381  -43.0167 C.2       9 UNK         0.5000 
     26 O          -0.1456  -22.7434  -42.2395 O.2       9 UNK        -0.5000 
     27 CA         -0.7347  -20.5800  -43.0878 C.3       9 UNK         0.1400 
     28 CB         -0.5601  -19.7039  -41.8380 C.3       9 UNK        -0.1800 
     29 N          -0.4971  -19.7824  -44.2953 N.am      9 UNK        -0.5000 
     30 C          -0.8071  -20.1987  -45.5323 C.2       8 UNK         0.5000 
     31 O          -1.3803  -21.2628  -45.7626 O.2       8 UNK        -0.5000 
     32 CA         -0.3389  -19.3346  -46.7135 C.3       8 UNK         0.1400 
     33 CB         -1.4893  -18.4780  -47.2516 C.3       8 UNK        -0.1800 
     34 N           0.8173  -18.4946  -46.3949 N.am      8 UNK        -0.5000 
     35 C           2.0607  -18.9636  -46.2133 C.2       7 UNK         0.5000 
     36 O           2.3512  -20.1577  -46.3053 O.2       7 UNK        -0.5000 
     37 CA          3.1490  -17.9470  -45.8102 C.3       7 UNK         0.1400 
     38 CB          3.7813  -17.2912  -47.0470 C.3       7 UNK        -0.1800 
     39 N           2.6542  -16.8944  -44.9243 N.am      7 UNK        -0.5000 
     40 C           2.1649  -17.0892  -43.6933 C.2       6 UNK         0.5000 
     41 O           2.1325  -18.1884  -43.1425 O.2       6 UNK        -0.5000 
     42 CA          1.5725  -15.8623  -42.9689 C.3       6 UNK         0.1400 
     43 CB          2.2065  -14.5264  -43.4091 C.3       6 UNK        -0.1800 
     44 N           0.1128  -15.7765  -43.0922 N.am      6 UNK        -0.5000 
     45 C          -0.6104  -15.8093  -44.2232 C.2       5 UNK         0.5000 
     46 O          -0.1425  -16.0179  -45.3390 O.2       5 UNK        -0.5000 
     47 CA         -2.1104  -15.4951  -44.0915 C.3       5 UNK         0.1400 
     48 CB         -2.8853  -16.7182  -43.5775 C.3       5 UNK        -0.1800 
     49 N          -2.3670  -14.3415  -43.2249 N.am      5 UNK        -0.5000 
     50 C          -1.9042  -13.1053  -43.4584 C.2       4 UNK         0.5000 
     51 O          -1.2413  -12.7951  -44.4537 O.2       4 UNK        -0.5000 
     52 CA         -2.2043  -12.0489  -42.3781 C.3       4 UNK         0.1400 
     53 CB         -1.3076  -12.2674  -41.1484 C.3       4 UNK        -0.1800 
     54 N          -1.9595  -10.7064  -42.8990 N.am      4 UNK        -0.5000 
     55 C          -2.7640  -10.0678  -43.7584 C.2       3 UNK         0.5000 
     56 O          -3.9041  -10.4350  -44.0453 O.2       3 UNK        -0.5000 
     57 CA         -2.1463   -8.8572  -44.4629 C.3       3 UNK         0.1400 
     58 CB         -1.9226   -7.6890  -43.4812 C.3       3 UNK        -0.1800 
     59 N          -0.8947   -9.2797  -45.0918 N.am      3 UNK        -0.5000 
     60 C          -0.2116   -8.5848  -46.0066 C.2       2 UNK         0.5000 
     61 O          -0.5498   -7.4729  -46.4151 O.2       2 UNK        -0.5000 
     62 CA          1.0708   -9.2318  -46.5642 C.3       2 UNK         0.1400 
     63 CB          2.2965   -8.7604  -45.7666 C.3       2 UNK        -0.1800 
     64 N           1.0673  -10.6972  -46.5954 N.am      2 UNK        -0.5000 
     65 C           0.2800  -11.4621  -47.3633 C.2       1 UNK         0.5000 
     66 O          -0.6466  -11.0087  -48.0376 O.2       1 UNK        -0.5000 
     67 C           0.1704  -23.9415  -48.3269 C.2       11 UNK         0.5000 
     68 O          -0.0655  -25.0683  -48.7648 O.2       11 UNK        -0.5000 
     69 N          -0.7704  -23.0072  -48.1454 N.am      12 UNK        -0.5000 
     70 CA         -2.1616  -23.1533  -48.5613 C.3       12 UNK         0.1400 
     71 CB         -2.8121  -21.7701  -48.6961 C.3       12 UNK        -0.1800 
     72 C          -2.9377  -24.0568  -47.5958 C.2       12 UNK         0.5000 
     73 O          -3.7970  -24.8159  -48.0397 O.2       12 UNK        -0.5000 
     74 N          -2.5740  -24.0075  -46.3073 N.am      13 UNK        -0.5000 
     75 CA         -3.0611  -24.9105  -45.2674 C.3       13 UNK         0.1400 
     76 CB         -2.5251  -24.4519  -43.9050 C.3       13 UNK        -0.1800 
     77 C          -2.6820  -26.3786  -45.5397 C.2       13 UNK         0.5000 
     78 O          -3.5341  -27.2563  -45.4004 O.2       13 UNK        -0.5000 
     79 N          -1.4291  -26.6153  -45.9580 N.am      14 UNK        -0.5000 
     80 CA         -0.9262  -27.9340  -46.3481 C.3       14 UNK         0.1400 
     81 CB          0.6052  -27.8909  -46.4597 C.3       14 UNK        -0.1800 
     82 C          -1.5530  -28.4464  -47.6581 C.2       14 UNK         0.5000 
     83 O          -1.8810  -29.6299  -47.7511 O.2       14 UNK        -0.5000 
     84 N          -1.7204  -27.5485  -48.6389 N.am      15 UNK        -0.5000 
     85 CA         -2.3310  -27.8417  -49.9381 C.3       15 UNK         0.1400 
     86 CB         -1.9896  -26.7052  -50.9146 C.3       15 UNK        -0.1800 
     87 C          -3.8589  -28.0431  -49.8807 C.2       15 UNK         0.5000 
     88 O          -4.4154  -28.6369  -50.8051 O.2       15 UNK        -0.5000 
     89 N          -4.5018  -27.5234  -48.8237 N.am      16 UNK        -0.5000 
     90 CA         -5.9503  -27.3858  -48.6356 C.3       16 UNK         0.1400 
     91 CB         -6.6392  -28.7626  -48.5317 C.3       16 UNK        -0.1800 
     92 C          -6.5644  -26.4624  -49.7099 C.2       16 UNK         0.5000 
     93 O          -7.5536  -26.8160  -50.3551 O.2       16 UNK        -0.5000 
     94 N          -5.9247  -25.3036  -49.8964 N.am      17 UNK        -0.5000 
     95 CA         -6.2286  -24.2986  -50.9100 C.3       17 UNK         0.1400 
     96 CB         -5.0837  -24.3054  -51.9394 C.3       17 UNK        -0.1800 
     97 C          -6.3793  -22.9114  -50.2618 C.2       17 UNK         0.5000 
     98 O          -6.1865  -22.7611  -49.0528 O.2       17 UNK        -0.5000 
     99 N          -6.7167  -21.9137  -51.0865 N.am      18 UNK        -0.5000 
    100 CA        -6.7389  -20.5008  -50.7109 C.3       18 UNK         0.1400 
    101 CB        -7.7126  -19.7595  -51.6411 C.3       18 UNK        -0.1800 
    102 C         -5.3337  -19.8823  -50.8198 C.2       18 UNK         0.5000 
    103 O         -4.5064  -20.3639  -51.5998 O.2       18 UNK        -0.5000 
    104 N         -5.1077  -18.7864  -50.0828 N.am      19 UNK        -0.5000 
    105 CA        -3.8711  -17.9976  -50.1184 C.3       19 UNK         0.1400 
    106 CB        -3.9285  -16.9131  -49.0303 C.3       19 UNK        -0.1800 
    107 C         -3.6181  -17.3581  -51.4956 C.2       19 UNK         0.5000 
    108 O         -2.4913  -17.3832  -51.9872 O.2       19 UNK        -0.5000 
    109 N         -4.6921  -16.8516  -52.1186 N.am      20 UNK        -0.5000 
    110 CA        -4.6865  -16.2714  -53.4646 C.3       20 UNK         0.1400 
    111 CB        -6.0211  -15.5466  -53.6970 C.3       20 UNK        -0.1800 
    112 C         -4.4361  -17.3086  -54.5781 C.2       20 UNK         0.5000 
    113 O         -3.9894  -16.9365  -55.6633 O.2       20 UNK        -0.5000 
    114 N         -4.7165  -18.5853  -54.2853 N.am      21 UNK        -0.5000 
    115 CA        -4.4438  -19.7286  -55.1548 C.3       21 UNK         0.1400 
    116 CB        -5.5459  -20.7807  -54.9421 C.3       21 UNK        -0.1800 
    117 C         -3.0488  -20.3376  -54.9042 C.2       21 UNK         0.5000 
    118 O         -2.6915  -21.2965  -55.5900 O.2       21 UNK        -0.5000 
    119 N         -2.2959  -19.7927  -53.9357 N.am      22 UNK        -0.5000 
    120 CA        -0.9825  -20.2780  -53.4781 C.3       22 UNK         0.1400 
    121 C         -1.0512  -21.6678  -52.7739 C.2       22 UNK         0.5000 
    122 N         -2.1618  -22.0208  -52.1368 N.am      22 UNK        -0.7600 
    123 O         -0.0970  -22.4405  -52.7998 O.2       22 UNK        -0.5000 
    124 C124        0.1164  -20.2027  -54.5792 C.3       23 UNK        -0.0398 
    125 S125        0.3375  -18.5135  -55.2427 S.3       23 UNK        -0.2404 
    126 C126        1.9125  -18.0083  -54.4792 C.3       23 UNK        -0.0205 
    127 H127        4.2883  -13.6607  -48.9735 H         1 UNK         0.0600 
    128 H128        5.0110  -14.0521  -47.4114 H         1 UNK         0.0600 
    129 H129        5.0717  -12.3948  -48.0214 H         1 UNK         0.0600 
    130 H130        2.0839  -13.4383  -48.9094 H         1 UNK         0.3000 
    131 H131        0.6067  -13.3635  -46.4316 H         1 UNK         0.0600 
    132 H132       -1.3462  -13.7752  -47.7944 H         1 UNK         0.0800 
    133 H133       -0.5432  -13.2914  -49.2638 H         1 UNK         0.0800 
    134 H134        1.0587  -14.6325  -50.6171 H         1 UNK         0.0800 
    135 H135       -0.5236  -15.3311  -50.8886 H         1 UNK         0.0800 
    136 H136        0.8069  -16.0318  -52.9738 H         1 UNK         0.1150 
    137 H137        2.7978  -19.8063  -52.6291 H         1 UNK         0.1150 
    138 H138        1.5238  -17.7557  -49.1039 H         1 UNK         0.1150 
    139 H139        3.5804  -20.5275  -50.4421 H         1 UNK         0.0800 
    140 H140        3.1405  -19.6693  -48.9825 H         1 UNK         0.0800 
    141 H141        3.3118  -22.3870  -48.6481 H         1 UNK         0.0800 
    142 H142        2.5399  -23.3219  -49.8910 H         1 UNK         0.0800 
    143 H143        2.1648  -24.4964  -47.9011 H         1 UNK         0.0600 
    144 H144        2.1192  -22.0534  -46.5197 H         1 UNK         0.3000 
    145 H145        1.8389  -23.8304  -43.3566 H         1 UNK         0.0600 
    146 H146        3.8232  -22.3846  -43.1983 H         1 UNK         0.0600 
    147 H147        4.0787  -23.6134  -44.4269 H         1 UNK         0.0600 
    148 H148        3.7148  -21.9594  -44.9013 H         1 UNK         0.0600 
    149 H149        1.3813  -21.0897  -44.4443 H         1 UNK         0.3000 
    150 H150       -1.7723  -20.9195  -43.1146 H         1 UNK         0.0600 
    151 H151       -0.9068  -20.2311  -40.9485 H         1 UNK         0.0600 
    152 H152       -1.1339  -18.7809  -41.9121 H         1 UNK         0.0600 
    153 H153        0.4829  -19.4416  -41.6671 H         1 UNK         0.0600 
    154 H154        0.0359  -18.9314  -44.1831 H         1 UNK         0.3000 
    155 H155       -0.0488  -20.0212  -47.5080 H         1 UNK         0.0600 
    156 H156       -1.7550  -17.6698  -46.5720 H         1 UNK         0.0600 
    157 H157       -2.3863  -19.0763  -47.4093 H         1 UNK         0.0600 
    158 H158       -1.2243  -18.0417  -48.2134 H         1 UNK         0.0600 
    159 H159        0.6301  -17.5058  -46.2401 H         1 UNK         0.3000 
    160 H160        3.9284  -18.4949  -45.2768 H         1 UNK         0.0600 
    161 H161        3.0544  -16.7040  -47.6094 H         1 UNK         0.0600 
    162 H162        4.1992  -18.0395  -47.7200 H         1 UNK         0.0600 
    163 H163        4.5970  -16.6258  -46.7638 H         1 UNK         0.0600 
    164 H164        2.5824  -15.9679  -45.3189 H         1 UNK         0.3000 
    165 H165        1.7920  -15.9976  -41.9087 H         1 UNK         0.0600 
    166 H166        1.8850  -13.7118  -42.7601 H         1 UNK         0.0600 
    167 H167        3.2955  -14.5665  -43.3620 H         1 UNK         0.0600 
    168 H168        1.9250  -14.2585  -44.4271 H         1 UNK         0.0600 
    169 H169       -0.3833  -15.6147  -42.2281 H         1 UNK         0.3000 
    170 H170       -2.4821  -15.2525  -45.0896 H         1 UNK         0.0600 
    171 H171       -2.6826  -17.5985  -44.1890 H         1 UNK         0.0600 
    172 H172       -2.6187  -16.9632  -42.5492 H         1 UNK         0.0600 
    173 H173       -3.9607  -16.5431  -43.6106 H         1 UNK         0.0600 
    174 H174       -2.9054  -14.5147  -42.3883 H         1 UNK         0.3000 
    175 H175       -3.2511  -12.1349  -42.0790 H         1 UNK         0.0600 
    176 H176       -0.2489  -12.2243  -41.4086 H         1 UNK         0.0600 
    177 H177       -1.4960  -11.5128  -40.3844 H         1 UNK         0.0600 
    178 H178       -1.4932  -13.2403  -40.6921 H         1 UNK         0.0600 
    179 H179       -1.0403  -10.3267  -42.7282 H         1 UNK         0.3000 
    180 H180       -2.8387   -8.5356  -45.2438 H         1 UNK         0.0600 
    181 H181       -1.1675   -7.9276  -42.7316 H         1 UNK         0.0600 
    182 H182       -2.8446   -7.4422  -42.9534 H         1 UNK         0.0600 
    183 H183       -1.6008   -6.7868  -44.0009 H         1 UNK         0.0600 
    184 H184       -0.5876  -10.2201  -44.8776 H         1 UNK         0.3000 
    185 H185        1.1843   -8.8841  -47.5931 H         1 UNK         0.0600 
    186 H186        2.3559   -7.6714  -45.7452 H         1 UNK         0.0600 
    187 H187        2.2607   -9.1084  -44.7335 H         1 UNK         0.0600 
    188 H188        3.2219   -9.1266  -46.2119 H         1 UNK         0.0600 
    189 H189        1.8300  -11.1656  -46.1145 H         1 UNK         0.3000 
    190 H190       -0.5136  -22.1327  -47.7119 H         1 UNK         0.3000 
    191 H191       -2.1723  -23.6218  -49.5465 H         1 UNK         0.0600 
    192 H192       -3.0503  -21.3314  -47.7283 H         1 UNK         0.0600 
    193 H193       -3.7444  -21.8448  -49.2512 H         1 UNK         0.0600 
    194 H194       -2.1713  -21.0756  -49.2401 H         1 UNK         0.0600 
    195 H195       -1.8930  -23.3082  -46.0342 H         1 UNK         0.3000 
    196 H196       -4.1507  -24.8411  -45.2496 H         1 UNK         0.0600 
    197 H197       -2.9151  -25.0767  -43.1007 H         1 UNK         0.0600 
    198 H198       -2.8158  -23.4233  -43.6903 H         1 UNK         0.0600 
    199 H199       -1.4368  -24.5077  -43.8654 H         1 UNK         0.0600 
    200 H200       -0.7689  -25.8465  -46.0080 H         1 UNK         0.3000 
    201 H201       -1.1856  -28.6418  -45.5579 H         1 UNK         0.0600 
    202 H202        1.0611  -27.6200  -45.5073 H         1 UNK         0.0600 
    203 H203        0.9353  -27.1670  -47.2056 H         1 UNK         0.0600 
    204 H204        1.0048  -28.8645  -46.7459 H         1 UNK         0.0600 
    205 H205       -1.3551  -26.6101  -48.5100 H         1 UNK         0.3000 
    206 H206       -1.8918  -28.7644  -50.3228 H         1 UNK         0.0600 
    207 H207       -0.9114  -26.5827  -51.0192 H         1 UNK         0.0600 
    208 H208       -2.3919  -26.9063  -51.9083 H         1 UNK         0.0600 
    209 H209       -2.4050  -25.7549  -50.5800 H         1 UNK         0.0600 
    210 H210       -3.9397  -27.0006  -48.1637 H         1 UNK         0.3000 
    211 H211       -6.0855  -26.8780  -47.6794 H         1 UNK         0.0600 
    212 H212       -6.6002  -29.3132  -49.4717 H         1 UNK         0.0600 
    213 H213       -7.6905  -28.6502  -48.2647 H         1 UNK         0.0600 
    214 H214       -6.1725  -29.3780  -47.7625 H         1 UNK         0.0600 
    215 H215       -5.1690  -25.0625  -49.2570 H         1 UNK         0.3000 
    216 H216       -7.1681  -24.5327  -51.4143 H         1 UNK         0.0600 
    217 H217       -5.2626  -23.5973  -52.7491 H         1 UNK         0.0600 
    218 H218       -4.9696  -25.2905  -52.3925 H         1 UNK         0.0600 
    219 H219       -4.1331  -24.0423  -51.4757 H         1 UNK         0.0600 
    220 H220       -6.8271  -22.1119  -52.0696 H         1 UNK         0.3000 
    221 H221       -7.0912  -20.4012  -49.6820 H         1 UNK         0.0600 
    222 H222       -7.3984  -19.8126  -52.6841 H         1 UNK         0.0600 
    223 H223       -8.7164  -20.1795  -51.5736 H         1 UNK         0.0600 
    224 H224       -7.7868  -18.7045  -51.3747 H         1 UNK         0.0600 
    225 H225       -5.8355  -18.4509  -49.4684 H         1 UNK         0.3000 
    226 H226       -3.0363  -18.6674  -49.9024 H         1 UNK         0.0600 
    227 H227       -4.0776  -17.3484  -48.0424 H         1 UNK         0.0600 
    228 H228       -2.9984  -16.3437  -48.9984 H         1 UNK         0.0600 
    229 H229       -4.7392  -16.2051  -49.2063 H         1 UNK         0.0600 
    230 H230       -5.5810  -16.8763  -51.6411 H         1 UNK         0.3000 
    231 H231       -3.8813  -15.5354  -53.5143 H         1 UNK         0.0600 
    232 H232       -6.1771  -14.7598  -52.9587 H         1 UNK         0.0600 
    233 H233       -6.8669  -16.2333  -53.6418 H         1 UNK         0.0600 
    234 H234       -6.0442  -15.0759  -54.6807 H         1 UNK         0.0600 
    235 H235       -5.0371  -18.8061  -53.3538 H         1 UNK         0.3000 
    236 H236       -4.4779  -19.4113  -56.1991 H         1 UNK         0.0600 
    237 H237       -5.4250  -21.6180  -55.6304 H         1 UNK         0.0600 
    238 H238       -5.5267  -21.1865  -53.9309 H         1 UNK         0.0600 
    239 H239       -6.5352  -20.3585  -55.1184 H         1 UNK         0.0600 
    240 H240       -2.6586  -18.9998  -53.4226 H         1 UNK         0.3000 
    241 H241       -0.6821  -19.5927  -52.6845 H         1 UNK         0.0600 
    242 H242       -2.1967  -22.9264  -51.7056 H         1 UNK         0.3800 
    243 H243       -2.9592  -21.3928  -52.0773 H         1 UNK         0.3800 
    244 H244       -0.1233  -20.8686  -55.4084 H         1 UNK         0.0800 
    245 H245        1.0723  -20.5565  -54.1925 H         1 UNK         0.0800 
    246 H246        2.1999  -17.0338  -54.8766 H         1 UNK         0.0800 
    247 H247        2.7000  -18.7019  -54.7783 H         1 UNK         0.0800 
@<TRIPOS>BOND
     1    1    2 1    
     2    1  127 1    
     3    1  128 1    
     4    1  129 1    
     5    2    3 2    
     6    2    4 am   BACKBONE|DICT|INTERRES
     7    4    5 1    
     8    4  130 1    
     9    5    6 1    
    10    5   65 1    
    11    5  131 1    
    12    6    7 1    
    13    6  132 1    
    14    6  133 1    
    15    7    8 1    
    16    8    9 1    
    17    8  134 1    
    18    8  135 1    
    19    9   10 ar   
    20    9   14 ar   
    21   10   11 ar   
    22   10  136 1    
    23   11   12 ar   
    24   11  126 1    
    25   12   13 ar   
    26   12  137 1    
    27   13   14 ar   
    28   13   15 1    
    29   14  138 1    
    30   15   16 1    
    31   15  139 1    
    32   15  140 1    
    33   16   17 1    
    34   17   18 1    
    35   17  141 1    
    36   17  142 1    
    37   18   19 1    
    38   18   67 1    
    39   18  143 1    
    40   19   20 am   BACKBONE|DICT|INTERRES
    41   19  144 1    
    42   20   21 2    
    43   20   22 1    
    44   22   23 1    
    45   22   24 1    
    46   22  145 1    
    47   23  146 1    
    48   23  147 1    
    49   23  148 1    
    50   24   25 am   BACKBONE|DICT|INTERRES
    51   24  149 1    
    52   25   26 2    
    53   25   27 1    
    54   27   28 1    
    55   27   29 1    
    56   27  150 1    
    57   28  151 1    
    58   28  152 1    
    59   28  153 1    
    60   29   30 am   BACKBONE|DICT|INTERRES
    61   29  154 1    
    62   30   31 2    
    63   30   32 1    
    64   32   33 1    
    65   32   34 1    
    66   32  155 1    
    67   33  156 1    
    68   33  157 1    
    69   33  158 1    
    70   34   35 am   BACKBONE|DICT|INTERRES
    71   34  159 1    
    72   35   36 2    
    73   35   37 1    
    74   37   38 1    
    75   37   39 1    
    76   37  160 1    
    77   38  161 1    
    78   38  162 1    
    79   38  163 1    
    80   39   40 am   BACKBONE|DICT|INTERRES
    81   39  164 1    
    82   40   41 2    
    83   40   42 1    
    84   42   43 1    
    85   42   44 1    
    86   42  165 1    
    87   43  166 1    
    88   43  167 1    
    89   43  168 1    
    90   44   45 am   BACKBONE|DICT|INTERRES
    91   44  169 1    
    92   45   46 2    
    93   45   47 1    
    94   47   48 1    
    95   47   49 1    
    96   47  170 1    
    97   48  171 1    
    98   48  172 1    
    99   48  173 1    
   100   49   50 am   BACKBONE|DICT|INTERRES
   101   49  174 1    
   102   50   51 2    
   103   50   52 1    
   104   52   53 1    
   105   52   54 1    
   106   52  175 1    
   107   53  176 1    
   108   53  177 1    
   109   53  178 1    
   110   54   55 am   BACKBONE|DICT|INTERRES
   111   54  179 1    
   112   55   56 2    
   113   55   57 1    
   114   57   58 1    
   115   57   59 1    
   116   57  180 1    
   117   58  181 1    
   118   58  182 1    
   119   58  183 1    
   120   59   60 am   BACKBONE|DICT|INTERRES
   121   59  184 1    
   122   60   61 2    
   123   60   62 1    
   124   62   63 1    
   125   62   64 1    
   126   62  185 1    
   127   63  186 1    
   128   63  187 1    
   129   63  188 1    
   130   64   65 am   BACKBONE|DICT|INTERRES
   131   64  189 1    
   132   65   66 2    
   133   67   68 2    
   134   67   69 am   BACKBONE|DICT|INTERRES
   135   69   70 1    
   136   69  190 1    
   137   70   71 1    
   138   70   72 1    
   139   70  191 1    
   140   71  192 1    
   141   71  193 1    
   142   71  194 1    
   143   72   73 2    
   144   72   74 am   BACKBONE|DICT|INTERRES
   145   74   75 1    
   146   74  195 1    
   147   75   76 1    
   148   75   77 1    
   149   75  196 1    
   150   76  197 1    
   151   76  198 1    
   152   76  199 1    
   153   77   78 2    
   154   77   79 am   BACKBONE|DICT|INTERRES
   155   79   80 1    
   156   79  200 1    
   157   80   81 1    
   158   80   82 1    
   159   80  201 1    
   160   81  202 1    
   161   81  203 1    
   162   81  204 1    
   163   82   83 2    
   164   82   84 am   BACKBONE|DICT|INTERRES
   165   84   85 1    
   166   84  205 1    
   167   85   86 1    
   168   85   87 1    
   169   85  206 1    
   170   86  207 1    
   171   86  208 1    
   172   86  209 1    
   173   87   88 2    
   174   87   89 am   BACKBONE|DICT|INTERRES
   175   89   90 1    
   176   89  210 1    
   177   90   91 1    
   178   90   92 1    
   179   90  211 1    
   180   91  212 1    
   181   91  213 1    
   182   91  214 1    
   183   92   93 2    
   184   92   94 am   BACKBONE|DICT|INTERRES
   185   94   95 1    
   186   94  215 1    
   187   95   96 1    
   188   95   97 1    
   189   95  216 1    
   190   96  217 1    
   191   96  218 1    
   192   96  219 1    
   193   97   98 2    
   194   97   99 am   BACKBONE|DICT|INTERRES
   195   99  100 1    
   196   99  220 1    
   197  100  101 1    
   198  100  102 1    
   199  100  221 1    
   200  101  222 1    
   201  101  223 1    
   202  101  224 1    
   203  102  103 2    
   204  102  104 am   BACKBONE|DICT|INTERRES
   205  104  105 1    
   206  104  225 1    
   207  105  106 1    
   208  105  107 1    
   209  105  226 1    
   210  106  227 1    
   211  106  228 1    
   212  106  229 1    
   213  107  108 2    
   214  107  109 am   BACKBONE|DICT|INTERRES
   215  109  110 1    
   216  109  230 1    
   217  110  111 1    
   218  110  112 1    
   219  110  231 1    
   220  111  232 1    
   221  111  233 1    
   222  111  234 1    
   223  112  113 2    
   224  112  114 am   BACKBONE|DICT|INTERRES
   225  114  115 1    
   226  114  235 1    
   227  115  116 1    
   228  115  117 1    
   229  115  236 1    
   230  116  237 1    
   231  116  238 1    
   232  116  239 1    
   233  117  118 2    
   234  117  119 am   BACKBONE|DICT|INTERRES
   235  119  120 1    
   236  119  240 1    
   237  120  121 1    
   238  120  124 1    
   239  120  241 1    
   240  121  122 am   BACKBONE|DICT|INTERRES
   241  121  123 2    
   242  122  242 1    
   243  122  243 1    
   244  124  125 1    
   245  124  244 1    
   246  124  245 1    
   247  125  126 1    
   248  126  246 1    
   249  126  247 1    
@<TRIPOS>SUBSTRUCTURE
     1 UNK         1 GROUP             0       ****    0 ROOT    
