@<TRIPOS>MOLECULE
3R540
247   249    1
SMALL
USER_CHARGES


@<TRIPOS>ATOM
      1 CA         -0.9766  -12.0658  -45.9073 C.3       0 UNK        -0.1800 
      2 C           0.1796  -12.0794  -46.8959 C.2       0 UNK         0.5000 
      3 O           0.1281  -11.3799  -47.9083 O.2       0 UNK        -0.5000 
      4 N           1.2261  -12.8599  -46.6002 N.am      1 UNK        -0.5000 
      5 CA          2.4907  -12.8535  -47.3429 C.3       1 UNK         0.1400 
      6 C6          3.2518  -14.2070  -47.2558 C.3       23 UNK        -0.0398 
      7 S7          2.2527  -15.6956  -47.5706 S.3       23 UNK        -0.2404 
      8 C8          1.7209  -15.5082  -49.2996 C.3       23 UNK        -0.0205 
      9 C9          0.6155  -16.5068  -49.6058 C.ar      23 UNK        -0.0193 
     10 C10        -0.7226  -16.1437  -49.4315 C.ar      23 UNK        -0.1150 
     11 C11        -1.7440  -17.0757  -49.6327 C.ar      23 UNK        -0.0193 
     12 C12        -1.4177  -18.3820  -50.0086 C.ar      23 UNK        -0.1150 
     13 C13        -0.0847  -18.7558  -50.2060 C.ar      23 UNK        -0.0193 
     14 C14         0.9269  -17.8064  -50.0159 C.ar      23 UNK        -0.1150 
     15 C15         0.2430  -20.1921  -50.6075 C.3       23 UNK        -0.0205 
     16 S16         1.6144  -20.9397  -49.6580 S.3       23 UNK        -0.2404 
     17 C17         1.0854  -20.6783  -47.9290 C.3       23 UNK        -0.0398 
     18 CA          0.5028  -21.9329  -47.2399 C.3       11 UNK         0.1400 
     19 N           0.3698  -21.7295  -45.7967 N.am      11 UNK        -0.5000 
     20 C           0.0136  -22.6647  -44.9063 C.2       10 UNK         0.5000 
     21 O          -0.2165  -23.8373  -45.1989 O.2       10 UNK        -0.5000 
     22 CA         -0.1563  -22.2008  -43.4484 C.3       10 UNK         0.1400 
     23 CB          1.2069  -22.0577  -42.7556 C.3       10 UNK        -0.1800 
     24 N          -0.8980  -20.9437  -43.3408 N.am      10 UNK        -0.5000 
     25 C          -2.1756  -20.7843  -43.7168 C.2       9 UNK         0.5000 
     26 O          -2.8781  -21.6927  -44.1608 O.2       9 UNK        -0.5000 
     27 CA         -2.7506  -19.3590  -43.6290 C.3       9 UNK         0.1400 
     28 CB         -3.1051  -18.9938  -42.1798 C.3       9 UNK        -0.1800 
     29 N          -1.8426  -18.3536  -44.1792 N.am      9 UNK        -0.5000 
     30 C          -1.4275  -18.3204  -45.4532 C.2       8 UNK         0.5000 
     31 O          -1.7940  -19.1138  -46.3184 O.2       8 UNK        -0.5000 
     32 CA         -0.3874  -17.2487  -45.8065 C.3       8 UNK         0.1400 
     33 CB         -1.0590  -15.8798  -45.9800 C.3       8 UNK        -0.1800 
     34 N           0.6844  -17.1584  -44.8130 N.am      8 UNK        -0.5000 
     35 C           1.5478  -18.1474  -44.5382 C.2       7 UNK         0.5000 
     36 O           1.5483  -19.2364  -45.1077 O.2       7 UNK        -0.5000 
     37 CA          2.5389  -17.9046  -43.3884 C.3       7 UNK         0.1400 
     38 CB          3.7491  -17.0870  -43.8661 C.3       7 UNK        -0.1800 
     39 N           1.8998  -17.2359  -42.2565 N.am      7 UNK        -0.5000 
     40 C           0.9434  -17.7870  -41.4931 C.2       6 UNK         0.5000 
     41 O           0.5417  -18.9435  -41.6235 O.2       6 UNK        -0.5000 
     42 CA          0.2889  -16.8659  -40.4467 C.3       6 UNK         0.1400 
     43 CB          1.1101  -16.8503  -39.1491 C.3       6 UNK        -0.1800 
     44 N           0.1317  -15.4952  -40.9384 N.am      6 UNK        -0.5000 
     45 C          -0.6579  -15.1445  -41.9644 C.2       5 UNK         0.5000 
     46 O          -1.4032  -15.9340  -42.5432 O.2       5 UNK        -0.5000 
     47 CA         -0.5585  -13.6886  -42.4603 C.3       5 UNK         0.1400 
     48 CB         -1.6534  -12.8206  -41.8248 C.3       5 UNK        -0.1800 
     49 N           0.7546  -13.0946  -42.1897 N.am      5 UNK        -0.5000 
     50 C           1.8742  -13.4019  -42.8576 C.2       4 UNK         0.5000 
     51 O           1.8932  -14.1031  -43.8741 O.2       4 UNK        -0.5000 
     52 CA          3.1874  -12.9076  -42.2300 C.3       4 UNK         0.1400 
     53 CB          3.4711  -13.7009  -40.9340 C.3       4 UNK        -0.1800 
     54 N           4.2866  -13.0766  -43.1786 N.am      4 UNK        -0.5000 
     55 C           5.5392  -12.6277  -43.0131 C.2       3 UNK         0.5000 
     56 O           5.9093  -11.9664  -42.0422 O.2       3 UNK        -0.5000 
     57 CA          6.5518  -12.9674  -44.1234 C.3       3 UNK         0.1400 
     58 CB          6.7037  -14.4880  -44.3033 C.3       3 UNK        -0.1800 
     59 N           6.1814  -12.3610  -45.3991 N.am      3 UNK        -0.5000 
     60 C           6.2185  -11.0479  -45.6726 C.2       2 UNK         0.5000 
     61 O           6.6908  -10.2004  -44.9144 O.2       2 UNK        -0.5000 
     62 CA          5.6013  -10.6052  -47.0178 C.3       2 UNK         0.1400 
     63 CB          6.6848  -10.5039  -48.1022 C.3       2 UNK        -0.1800 
     64 N           4.5358  -11.5011  -47.4835 N.am      2 UNK        -0.5000 
     65 C           3.3868  -11.7075  -46.8238 C.2       1 UNK         0.5000 
     66 O           3.0705  -11.0758  -45.8112 O.2       1 UNK        -0.5000 
     67 C          -0.8286  -22.3783  -47.8753 C.2       11 UNK         0.5000 
     68 O          -0.8501  -23.3915  -48.5723 O.2       11 UNK        -0.5000 
     69 N          -1.9179  -21.6511  -47.5889 N.am      12 UNK        -0.5000 
     70 CA         -3.2676  -21.9590  -48.0631 C.3       12 UNK         0.1400 
     71 CB         -4.2249  -20.8299  -47.6574 C.3       12 UNK        -0.1800 
     72 C          -3.7861  -23.3207  -47.5662 C.2       12 UNK         0.5000 
     73 O          -4.4338  -24.0330  -48.3310 O.2       12 UNK        -0.5000 
     74 N          -3.4688  -23.6815  -46.3152 N.am      13 UNK        -0.5000 
     75 CA         -3.7843  -24.9891  -45.7412 C.3       13 UNK         0.1400 
     76 CB         -3.5449  -24.9602  -44.2239 C.3       13 UNK        -0.1800 
     77 C          -2.9919  -26.1340  -46.4012 C.2       13 UNK         0.5000 
     78 O          -3.5736  -27.1773  -46.7009 O.2       13 UNK        -0.5000 
     79 N          -1.6866  -25.9211  -46.6158 N.am      14 UNK        -0.5000 
     80 CA         -0.7700  -26.9037  -47.1929 C.3       14 UNK         0.1400 
     81 CB          0.6795  -26.4691  -46.9249 C.3       14 UNK        -0.1800 
     82 C          -0.9950  -27.1359  -48.6972 C.2       14 UNK         0.5000 
     83 O          -1.0531  -28.2873  -49.1311 O.2       14 UNK        -0.5000 
     84 N          -1.0981  -26.0455  -49.4673 N.am      15 UNK        -0.5000 
     85 CA         -1.2141  -26.0761  -50.9269 C.3       15 UNK         0.1400 
     86 CB         -0.6900  -24.7474  -51.4951 C.3       15 UNK        -0.1800 
     87 C          -2.6468  -26.3350  -51.4258 C.2       15 UNK         0.5000 
     88 O          -2.8029  -26.7222  -52.5833 O.2       15 UNK        -0.5000 
     89 N          -3.6406  -26.1084  -50.5533 N.am      16 UNK        -0.5000 
     90 CA         -5.0825  -26.0140  -50.8006 C.3       16 UNK         0.1400 
     91 CB         -5.6448  -27.2002  -51.6085 C.3       16 UNK        -0.1800 
     92 C          -5.4262  -24.6615  -51.4479 C.2       16 UNK         0.5000 
     93 O          -4.8935  -24.3249  -52.5069 O.2       16 UNK        -0.5000 
     94 N          -6.3147  -23.9033  -50.7936 N.am      17 UNK        -0.5000 
     95 CA         -6.6420  -22.5113  -51.1143 C.3       17 UNK         0.1400 
     96 CB         -7.6577  -21.9866  -50.0888 C.3       17 UNK        -0.1800 
     97 C          -7.1582  -22.2838  -52.5465 C.2       17 UNK         0.5000 
     98 O          -6.8460  -21.2567  -53.1494 O.2       17 UNK        -0.5000 
     99 N          -7.9098  -23.2593  -53.0738 N.am      18 UNK        -0.5000 
    100 CA        -8.4371  -23.2545  -54.4383 C.3       18 UNK         0.1400 
    101 CB        -9.5203  -24.3365  -54.5623 C.3       18 UNK        -0.1800 
    102 C         -7.3469  -23.4575  -55.5078 C.2       18 UNK         0.5000 
    103 O         -7.4594  -22.8938  -56.5964 O.2       18 UNK        -0.5000 
    104 N         -6.3117  -24.2434  -55.1807 N.am      19 UNK        -0.5000 
    105 CA        -5.1633  -24.4998  -56.0510 C.3       19 UNK         0.1400 
    106 CB        -4.5353  -25.8518  -55.6849 C.3       19 UNK        -0.1800 
    107 C         -4.1269  -23.3673  -55.9603 C.2       19 UNK         0.5000 
    108 O         -3.5452  -22.9921  -56.9788 O.2       19 UNK        -0.5000 
    109 N         -3.9433  -22.8189  -54.7507 N.am      20 UNK        -0.5000 
    110 CA        -3.1093  -21.6468  -54.4775 C.3       20 UNK         0.1400 
    111 CB        -2.9265  -21.5097  -52.9568 C.3       20 UNK        -0.1800 
    112 C         -3.6901  -20.3413  -55.0569 C.2       20 UNK         0.5000 
    113 O         -2.9355  -19.3926  -55.2731 O.2       20 UNK        -0.5000 
    114 N         -5.0158  -20.3171  -55.2694 N.am      21 UNK        -0.5000 
    115 CA        -5.8436  -19.1714  -55.6611 C.3       21 UNK         0.1400 
    116 CB        -5.4959  -18.6956  -57.0867 C.3       21 UNK        -0.1800 
    117 C         -5.7913  -18.0462  -54.6063 C.2       21 UNK         0.5000 
    118 O         -5.7287  -16.8644  -54.9502 O.2       21 UNK        -0.5000 
    119 N         -5.7880  -18.4497  -53.3323 N.am      22 UNK        -0.5000 
    120 CA        -5.5911  -17.5991  -52.1600 C.3       22 UNK         0.1400 
    121 C         -6.0372  -18.3904  -50.9072 C.2       22 UNK         0.5000 
    122 N         -7.0595  -17.9343  -50.1972 N.am      22 UNK        -0.7600 
    123 O         -5.4413  -19.4061  -50.5619 O.2       22 UNK        -0.5000 
    124 C124       -4.1198  -17.1131  -52.0515 C.3       23 UNK        -0.0398 
    125 S125       -3.8917  -15.7750  -50.8313 S.3       23 UNK        -0.2404 
    126 C126       -3.1957  -16.6768  -49.4096 C.3       23 UNK        -0.0205 
    127 H127       -1.4614  -13.0395  -45.8610 H         1 UNK         0.0600 
    128 H128       -0.6199  -11.7986  -44.9129 H         1 UNK         0.0600 
    129 H129       -1.7262  -11.3309  -46.2015 H         1 UNK         0.0600 
    130 H130        1.2437  -13.3789  -45.7295 H         1 UNK         0.3000 
    131 H131        2.2858  -12.6488  -48.3951 H         1 UNK         0.0600 
    132 H132        4.0929  -14.2227  -47.9505 H         1 UNK         0.0800 
    133 H133        3.6778  -14.3364  -46.2596 H         1 UNK         0.0800 
    134 H134        2.5711  -15.6601  -49.9660 H         1 UNK         0.0800 
    135 H135        1.3579  -14.4952  -49.4749 H         1 UNK         0.0800 
    136 H136       -0.9692  -15.1399  -49.1147 H         1 UNK         0.1150 
    137 H137       -2.2057  -19.1104  -50.1422 H         1 UNK         0.1150 
    138 H138        1.9616  -18.0888  -50.1498 H         1 UNK         0.1150 
    139 H139       -0.6358  -20.8300  -50.4995 H         1 UNK         0.0800 
    140 H140        0.5021  -20.2066  -51.6667 H         1 UNK         0.0800 
    141 H141        0.3926  -19.8404  -47.8521 H         1 UNK         0.0800 
    142 H142        1.9810  -20.3613  -47.3944 H         1 UNK         0.0800 
    143 H143        1.2156  -22.7492  -47.3750 H         1 UNK         0.0600 
    144 H144        0.5835  -20.7936  -45.4598 H         1 UNK         0.3000 
    145 H145       -0.7255  -22.9690  -42.9210 H         1 UNK         0.0600 
    146 H146        1.0878  -21.8097  -41.7008 H         1 UNK         0.0600 
    147 H147        1.7725  -22.9888  -42.8098 H         1 UNK         0.0600 
    148 H148        1.8134  -21.2766  -43.2149 H         1 UNK         0.0600 
    149 H149       -0.3960  -20.1500  -42.9554 H         1 UNK         0.3000 
    150 H150       -3.6681  -19.3345  -44.2205 H         1 UNK         0.0600 
    151 H151       -3.8065  -19.7138  -41.7565 H         1 UNK         0.0600 
    152 H152       -3.5736  -18.0109  -42.1251 H         1 UNK         0.0600 
    153 H153       -2.2230  -18.9782  -41.5394 H         1 UNK         0.0600 
    154 H154       -1.5219  -17.6283  -43.5448 H         1 UNK         0.3000 
    155 H155        0.0608  -17.5326  -46.7605 H         1 UNK         0.0600 
    156 H156       -0.3455  -15.1367  -46.3279 H         1 UNK         0.0600 
    157 H157       -1.8578  -15.9309  -46.7174 H         1 UNK         0.0600 
    158 H158       -1.5026  -15.5162  -45.0557 H         1 UNK         0.0600 
    159 H159        0.7680  -16.2885  -44.3073 H         1 UNK         0.3000 
    160 H160        2.9002  -18.8762  -43.0448 H         1 UNK         0.0600 
    161 H161        3.4530  -16.1213  -44.2732 H         1 UNK         0.0600 
    162 H162        4.2858  -17.6170  -44.6539 H         1 UNK         0.0600 
    163 H163        4.4548  -16.9089  -43.0546 H         1 UNK         0.0600 
    164 H164        2.1479  -16.2717  -42.1006 H         1 UNK         0.3000 
    165 H165       -0.7028  -17.2647  -40.2229 H         1 UNK         0.0600 
    166 H166        0.6189  -16.2554  -38.3789 H         1 UNK         0.0600 
    167 H167        1.2296  -17.8592  -38.7518 H         1 UNK         0.0600 
    168 H168        2.1081  -16.4390  -39.3062 H         1 UNK         0.0600 
    169 H169        0.6931  -14.7850  -40.4948 H         1 UNK         0.3000 
    170 H170       -0.7194  -13.7068  -43.5384 H         1 UNK         0.0600 
    171 H171       -2.6435  -13.2300  -42.0303 H         1 UNK         0.0600 
    172 H172       -1.5418  -12.7578  -40.7417 H         1 UNK         0.0600 
    173 H173       -1.6331  -11.8067  -42.2250 H         1 UNK         0.0600 
    174 H174        0.8154  -12.4921  -41.3811 H         1 UNK         0.3000 
    175 H175        3.0808  -11.8453  -42.0020 H         1 UNK         0.0600 
    176 H176        3.6285  -14.7605  -41.1392 H         1 UNK         0.0600 
    177 H177        4.3564  -13.3309  -40.4181 H         1 UNK         0.0600 
    178 H178        2.6473  -13.6206  -40.2245 H         1 UNK         0.0600 
    179 H179        4.0295  -13.5804  -44.0159 H         1 UNK         0.3000 
    180 H180        7.5228  -12.5677  -43.8228 H         1 UNK         0.0600 
    181 H181        5.7936  -14.9498  -44.6870 H         1 UNK         0.0600 
    182 H182        6.9426  -14.9715  -43.3552 H         1 UNK         0.0600 
    183 H183        7.5116  -14.7209  -44.9972 H         1 UNK         0.0600 
    184 H184        5.8051  -12.9783  -46.1008 H         1 UNK         0.3000 
    185 H185        5.1688   -9.6131  -46.8713 H         1 UNK         0.0600 
    186 H186        7.4809   -9.8238  -47.7959 H         1 UNK         0.0600 
    187 H187        7.1421  -11.4726  -48.3074 H         1 UNK         0.0600 
    188 H188        6.2741  -10.1204  -49.0365 H         1 UNK         0.0600 
    189 H189        4.7305  -12.0260  -48.3241 H         1 UNK         0.3000 
    190 H190       -1.8225  -20.8129  -47.0179 H         1 UNK         0.3000 
    191 H191       -3.2336  -21.9980  -49.1541 H         1 UNK         0.0600 
    192 H192       -5.2347  -21.0233  -48.0205 H         1 UNK         0.0600 
    193 H193       -3.9080  -19.8764  -48.0802 H         1 UNK         0.0600 
    194 H194       -4.2766  -20.7157  -46.5740 H         1 UNK         0.0600 
    195 H195       -2.9781  -23.0231  -45.7189 H         1 UNK         0.3000 
    196 H196       -4.8461  -25.1822  -45.9083 H         1 UNK         0.0600 
    197 H197       -3.7842  -25.9234  -43.7718 H         1 UNK         0.0600 
    198 H198       -4.1715  -24.2098  -43.7416 H         1 UNK         0.0600 
    199 H199       -2.5066  -24.7322  -43.9824 H         1 UNK         0.0600 
    200 H200       -1.2737  -25.0469  -46.3025 H         1 UNK         0.3000 
    201 H201       -0.9316  -27.8561  -46.6834 H         1 UNK         0.0600 
    202 H202        0.8784  -26.4032  -45.8551 H         1 UNK         0.0600 
    203 H203        0.8956  -25.4943  -47.3643 H         1 UNK         0.0600 
    204 H204        1.3880  -27.1846  -47.3441 H         1 UNK         0.0600 
    205 H205       -1.0311  -25.1223  -49.0393 H         1 UNK         0.3000 
    206 H206       -0.5818  -26.8781  -51.3137 H         1 UNK         0.0600 
    207 H207        0.3422  -24.5672  -51.1943 H         1 UNK         0.0600 
    208 H208       -0.7181  -24.7472  -52.5856 H         1 UNK         0.0600 
    209 H209       -1.2894  -23.9039  -51.1524 H         1 UNK         0.0600 
    210 H210       -3.3621  -25.7761  -49.6394 H         1 UNK         0.3000 
    211 H211       -5.5455  -26.0506  -49.8133 H         1 UNK         0.0600 
    212 H212       -5.3372  -27.1706  -52.6541 H         1 UNK         0.0600 
    213 H213       -6.7350  -27.1892  -51.5969 H         1 UNK         0.0600 
    214 H214       -5.3235  -28.1532  -51.1883 H         1 UNK         0.0600 
    215 H215       -6.6801  -24.2490  -49.9180 H         1 UNK         0.3000 
    216 H216       -5.7195  -21.9399  -51.0065 H         1 UNK         0.0600 
    217 H217       -7.9085  -20.9437  -50.2864 H         1 UNK         0.0600 
    218 H218       -7.2570  -22.0360  -49.0764 H         1 UNK         0.0600 
    219 H219       -8.5862  -22.5581  -50.1124 H         1 UNK         0.0600 
    220 H220       -8.1124  -24.0688  -52.5058 H         1 UNK         0.3000 
    221 H221       -8.9029  -22.2835  -54.6206 H         1 UNK         0.0600 
    222 H222       -9.1194  -25.3325  -54.3700 H         1 UNK         0.0600 
    223 H223      -10.3357  -24.1607  -53.8604 H         1 UNK         0.0600 
    224 H224       -9.9517  -24.3440  -55.5643 H         1 UNK         0.0600 
    225 H225       -6.2509  -24.6068  -54.2388 H         1 UNK         0.3000 
    226 H226       -5.5055  -24.5599  -57.0865 H         1 UNK         0.0600 
    227 H227       -5.2542  -26.6638  -55.7933 H         1 UNK         0.0600 
    228 H228       -3.6872  -26.0771  -56.3325 H         1 UNK         0.0600 
    229 H229       -4.1737  -25.8601  -54.6573 H         1 UNK         0.0600 
    230 H230       -4.4025  -23.2490  -53.9509 H         1 UNK         0.3000 
    231 H231       -2.1298  -21.8098  -54.9314 H         1 UNK         0.0600 
    232 H232       -2.5016  -22.4159  -52.5272 H         1 UNK         0.0600 
    233 H233       -3.8746  -21.3150  -52.4544 H         1 UNK         0.0600 
    234 H234       -2.2539  -20.6857  -52.7152 H         1 UNK         0.0600 
    235 H235       -5.5353  -21.1383  -54.9888 H         1 UNK         0.3000 
    236 H236       -6.8737  -19.5306  -55.6745 H         1 UNK         0.0600 
    237 H237       -6.2008  -17.9359  -57.4261 H         1 UNK         0.0600 
    238 H238       -4.4976  -18.2606  -57.1391 H         1 UNK         0.0600 
    239 H239       -5.5405  -19.5205  -57.7979 H         1 UNK         0.0600 
    240 H240       -5.9135  -19.4384  -53.1329 H         1 UNK         0.3000 
    241 H241       -6.2392  -16.7277  -52.2729 H         1 UNK         0.0600 
    242 H242       -7.5543  -17.0959  -50.4588 H         1 UNK         0.3800 
    243 H243       -7.3422  -18.4388  -49.3726 H         1 UNK         0.3800 
    244 H244       -3.4503  -17.9476  -51.8441 H         1 UNK         0.0800 
    245 H245       -3.7882  -16.7110  -53.0092 H         1 UNK         0.0800 
    246 H246       -3.8044  -17.5536  -49.1863 H         1 UNK         0.0800 
    247 H247       -3.2668  -16.0343  -48.5323 H         1 UNK         0.0800 
@<TRIPOS>BOND
     1    1    2 1    
     2    1  127 1    
     3    1  128 1    
     4    1  129 1    
     5    2    3 2    
     6    2    4 am   BACKBONE|DICT|INTERRES
     7    4    5 1    
     8    4  130 1    
     9    5    6 1    
    10    5   65 1    
    11    5  131 1    
    12    6    7 1    
    13    6  132 1    
    14    6  133 1    
    15    7    8 1    
    16    8    9 1    
    17    8  134 1    
    18    8  135 1    
    19    9   10 ar   
    20    9   14 ar   
    21   10   11 ar   
    22   10  136 1    
    23   11   12 ar   
    24   11  126 1    
    25   12   13 ar   
    26   12  137 1    
    27   13   14 ar   
    28   13   15 1    
    29   14  138 1    
    30   15   16 1    
    31   15  139 1    
    32   15  140 1    
    33   16   17 1    
    34   17   18 1    
    35   17  141 1    
    36   17  142 1    
    37   18   19 1    
    38   18   67 1    
    39   18  143 1    
    40   19   20 am   BACKBONE|DICT|INTERRES
    41   19  144 1    
    42   20   21 2    
    43   20   22 1    
    44   22   23 1    
    45   22   24 1    
    46   22  145 1    
    47   23  146 1    
    48   23  147 1    
    49   23  148 1    
    50   24   25 am   BACKBONE|DICT|INTERRES
    51   24  149 1    
    52   25   26 2    
    53   25   27 1    
    54   27   28 1    
    55   27   29 1    
    56   27  150 1    
    57   28  151 1    
    58   28  152 1    
    59   28  153 1    
    60   29   30 am   BACKBONE|DICT|INTERRES
    61   29  154 1    
    62   30   31 2    
    63   30   32 1    
    64   32   33 1    
    65   32   34 1    
    66   32  155 1    
    67   33  156 1    
    68   33  157 1    
    69   33  158 1    
    70   34   35 am   BACKBONE|DICT|INTERRES
    71   34  159 1    
    72   35   36 2    
    73   35   37 1    
    74   37   38 1    
    75   37   39 1    
    76   37  160 1    
    77   38  161 1    
    78   38  162 1    
    79   38  163 1    
    80   39   40 am   BACKBONE|DICT|INTERRES
    81   39  164 1    
    82   40   41 2    
    83   40   42 1    
    84   42   43 1    
    85   42   44 1    
    86   42  165 1    
    87   43  166 1    
    88   43  167 1    
    89   43  168 1    
    90   44   45 am   BACKBONE|DICT|INTERRES
    91   44  169 1    
    92   45   46 2    
    93   45   47 1    
    94   47   48 1    
    95   47   49 1    
    96   47  170 1    
    97   48  171 1    
    98   48  172 1    
    99   48  173 1    
   100   49   50 am   BACKBONE|DICT|INTERRES
   101   49  174 1    
   102   50   51 2    
   103   50   52 1    
   104   52   53 1    
   105   52   54 1    
   106   52  175 1    
   107   53  176 1    
   108   53  177 1    
   109   53  178 1    
   110   54   55 am   BACKBONE|DICT|INTERRES
   111   54  179 1    
   112   55   56 2    
   113   55   57 1    
   114   57   58 1    
   115   57   59 1    
   116   57  180 1    
   117   58  181 1    
   118   58  182 1    
   119   58  183 1    
   120   59   60 am   BACKBONE|DICT|INTERRES
   121   59  184 1    
   122   60   61 2    
   123   60   62 1    
   124   62   63 1    
   125   62   64 1    
   126   62  185 1    
   127   63  186 1    
   128   63  187 1    
   129   63  188 1    
   130   64   65 am   BACKBONE|DICT|INTERRES
   131   64  189 1    
   132   65   66 2    
   133   67   68 2    
   134   67   69 am   BACKBONE|DICT|INTERRES
   135   69   70 1    
   136   69  190 1    
   137   70   71 1    
   138   70   72 1    
   139   70  191 1    
   140   71  192 1    
   141   71  193 1    
   142   71  194 1    
   143   72   73 2    
   144   72   74 am   BACKBONE|DICT|INTERRES
   145   74   75 1    
   146   74  195 1    
   147   75   76 1    
   148   75   77 1    
   149   75  196 1    
   150   76  197 1    
   151   76  198 1    
   152   76  199 1    
   153   77   78 2    
   154   77   79 am   BACKBONE|DICT|INTERRES
   155   79   80 1    
   156   79  200 1    
   157   80   81 1    
   158   80   82 1    
   159   80  201 1    
   160   81  202 1    
   161   81  203 1    
   162   81  204 1    
   163   82   83 2    
   164   82   84 am   BACKBONE|DICT|INTERRES
   165   84   85 1    
   166   84  205 1    
   167   85   86 1    
   168   85   87 1    
   169   85  206 1    
   170   86  207 1    
   171   86  208 1    
   172   86  209 1    
   173   87   88 2    
   174   87   89 am   BACKBONE|DICT|INTERRES
   175   89   90 1    
   176   89  210 1    
   177   90   91 1    
   178   90   92 1    
   179   90  211 1    
   180   91  212 1    
   181   91  213 1    
   182   91  214 1    
   183   92   93 2    
   184   92   94 am   BACKBONE|DICT|INTERRES
   185   94   95 1    
   186   94  215 1    
   187   95   96 1    
   188   95   97 1    
   189   95  216 1    
   190   96  217 1    
   191   96  218 1    
   192   96  219 1    
   193   97   98 2    
   194   97   99 am   BACKBONE|DICT|INTERRES
   195   99  100 1    
   196   99  220 1    
   197  100  101 1    
   198  100  102 1    
   199  100  221 1    
   200  101  222 1    
   201  101  223 1    
   202  101  224 1    
   203  102  103 2    
   204  102  104 am   BACKBONE|DICT|INTERRES
   205  104  105 1    
   206  104  225 1    
   207  105  106 1    
   208  105  107 1    
   209  105  226 1    
   210  106  227 1    
   211  106  228 1    
   212  106  229 1    
   213  107  108 2    
   214  107  109 am   BACKBONE|DICT|INTERRES
   215  109  110 1    
   216  109  230 1    
   217  110  111 1    
   218  110  112 1    
   219  110  231 1    
   220  111  232 1    
   221  111  233 1    
   222  111  234 1    
   223  112  113 2    
   224  112  114 am   BACKBONE|DICT|INTERRES
   225  114  115 1    
   226  114  235 1    
   227  115  116 1    
   228  115  117 1    
   229  115  236 1    
   230  116  237 1    
   231  116  238 1    
   232  116  239 1    
   233  117  118 2    
   234  117  119 am   BACKBONE|DICT|INTERRES
   235  119  120 1    
   236  119  240 1    
   237  120  121 1    
   238  120  124 1    
   239  120  241 1    
   240  121  122 am   BACKBONE|DICT|INTERRES
   241  121  123 2    
   242  122  242 1    
   243  122  243 1    
   244  124  125 1    
   245  124  244 1    
   246  124  245 1    
   247  125  126 1    
   248  126  246 1    
   249  126  247 1    
@<TRIPOS>SUBSTRUCTURE
     1 UNK         1 GROUP             0       ****    0 ROOT    
