@<TRIPOS>MOLECULE
3R540
247   249    1
SMALL
USER_CHARGES


@<TRIPOS>ATOM
      1 CA         -1.3588  -14.5805  -52.6870 C.3       0 UNK        -0.1800 
      2 C          -0.7540  -13.8929  -51.4771 C.2       0 UNK         0.5000 
      3 O          -1.0993  -12.7479  -51.1845 O.2       0 UNK        -0.5000 
      4 N           0.1338  -14.5901  -50.7597 N.am      1 UNK        -0.5000 
      5 CA          0.8722  -14.1040  -49.5869 C.3       1 UNK         0.1400 
      6 C6          2.1720  -14.9177  -49.3579 C.3       23 UNK        -0.0398 
      7 S7          3.2989  -14.8180  -50.7875 S.3       23 UNK        -0.2404 
      8 C8          4.2563  -16.3556  -50.6013 C.3       23 UNK        -0.0205 
      9 C9          3.4707  -17.6115  -50.9625 C.ar      23 UNK        -0.0193 
     10 C10         2.8506  -17.7293  -52.2109 C.ar      23 UNK        -0.1150 
     11 C11         2.2046  -18.9131  -52.5776 C.ar      23 UNK        -0.0193 
     12 C12         2.1841  -19.9870  -51.6814 C.ar      23 UNK        -0.1150 
     13 C13         2.7900  -19.8840  -50.4253 C.ar      23 UNK        -0.0193 
     14 C14         3.4286  -18.6900  -50.0733 C.ar      23 UNK        -0.1150 
     15 C15         2.8393  -21.0901  -49.4909 C.3       23 UNK        -0.0205 
     16 S16         2.1800  -20.7463  -47.8254 S.3       23 UNK        -0.2404 
     17 C17         0.3939  -21.0390  -48.0356 C.3       23 UNK        -0.0398 
     18 CA         -0.0858  -22.3223  -47.3139 C.3       11 UNK         0.1400 
     19 N          -0.0163  -22.2224  -45.8494 N.am      11 UNK        -0.5000 
     20 C          -0.2652  -23.2349  -45.0041 C.2       10 UNK         0.5000 
     21 O          -0.5182  -24.3817  -45.3716 O.2       10 UNK        -0.5000 
     22 CA         -0.3053  -22.9102  -43.4990 C.3       10 UNK         0.1400 
     23 CB          1.1100  -22.8184  -42.9107 C.3       10 UNK        -0.1800 
     24 N          -1.0588  -21.6886  -43.2100 N.am      10 UNK        -0.5000 
     25 C          -2.3725  -21.5438  -43.4415 C.2       9 UNK         0.5000 
     26 O          -3.0927  -22.4481  -43.8594 O.2       9 UNK        -0.5000 
     27 CA         -2.9780  -20.1447  -43.2291 C.3       9 UNK         0.1400 
     28 CB         -3.3432  -19.9164  -41.7552 C.3       9 UNK        -0.1800 
     29 N          -2.0910  -19.0787  -43.6877 N.am      9 UNK        -0.5000 
     30 C          -1.6829  -18.9133  -44.9539 C.2       8 UNK         0.5000 
     31 O          -2.0713  -19.5991  -45.8982 O.2       8 UNK        -0.5000 
     32 CA         -0.6123  -17.8354  -45.1843 C.3       8 UNK         0.1400 
     33 CB         -1.2625  -16.4470  -45.2506 C.3       8 UNK        -0.1800 
     34 N           0.4125  -17.8731  -44.1369 N.am      8 UNK        -0.5000 
     35 C           1.2822  -18.8835  -43.9843 C.2       7 UNK         0.5000 
     36 O           1.3394  -19.8437  -44.7490 O.2       7 UNK        -0.5000 
     37 CA          2.1915  -18.8633  -42.7420 C.3       7 UNK         0.1400 
     38 CB          3.5409  -18.1969  -43.0358 C.3       7 UNK        -0.1800 
     39 N           1.5528  -18.2093  -41.6013 N.am      7 UNK        -0.5000 
     40 C           0.5942  -18.7878  -40.8645 C.2       6 UNK         0.5000 
     41 O           0.2041  -19.9415  -41.0440 O.2       6 UNK        -0.5000 
     42 CA         -0.0765  -17.9194  -39.7831 C.3       6 UNK         0.1400 
     43 CB          0.6991  -18.0079  -38.4608 C.3       6 UNK        -0.1800 
     44 N          -0.2108  -16.5137  -40.1727 N.am      6 UNK        -0.5000 
     45 C          -0.9182  -16.0768  -41.2234 C.2       5 UNK         0.5000 
     46 O          -1.5555  -16.8251  -41.9633 O.2       5 UNK        -0.5000 
     47 CA         -0.8960  -14.5655  -41.5235 C.3       5 UNK         0.1400 
     48 CB         -0.5254  -13.6973  -40.3010 C.3       5 UNK        -0.1800 
     49 N          -0.0358  -14.2241  -42.6621 N.am      5 UNK        -0.5000 
     50 C           1.2761  -14.4758  -42.8081 C.2       4 UNK         0.5000 
     51 O           1.9218  -15.1873  -42.0371 O.2       4 UNK        -0.5000 
     52 CA          2.0032  -13.8178  -44.0040 C.3       4 UNK         0.1400 
     53 CB          2.6016  -14.8647  -44.9570 C.3       4 UNK        -0.1800 
     54 N           1.1597  -12.9016  -44.7758 N.am      4 UNK        -0.5000 
     55 C           0.8293  -11.6589  -44.3901 C.2       3 UNK         0.5000 
     56 O           1.2188  -11.1538  -43.3369 O.2       3 UNK        -0.5000 
     57 CA         -0.0908  -10.8352  -45.3168 C.3       3 UNK         0.1400 
     58 CB          0.7055   -9.7165  -46.0068 C.3       3 UNK        -0.1800 
     59 N          -0.7712  -11.6242  -46.3447 N.am      3 UNK        -0.5000 
     60 C          -1.7109  -12.5535  -46.1236 C.2       2 UNK         0.5000 
     61 O          -2.1421  -12.8370  -45.0054 O.2       2 UNK        -0.5000 
     62 CA         -2.2113  -13.3277  -47.3600 C.3       2 UNK         0.1400 
     63 CB         -3.4677  -12.6629  -47.9408 C.3       2 UNK        -0.1800 
     64 N          -1.2107  -13.4645  -48.4252 N.am      2 UNK        -0.5000 
     65 C          -0.0077  -14.0456  -48.3157 C.2       1 UNK         0.5000 
     66 O           0.4145  -14.5078  -47.2577 O.2       1 UNK        -0.5000 
     67 C          -1.4982  -22.7124  -47.7942 C.2       11 UNK         0.5000 
     68 O          -1.6183  -23.5813  -48.6563 O.2       11 UNK        -0.5000 
     69 N          -2.5409  -22.1008  -47.2197 N.am      12 UNK        -0.5000 
     70 CA         -3.9394  -22.4047  -47.5270 C.3       12 UNK         0.1400 
     71 CB         -4.8439  -21.3301  -46.9073 C.3       12 UNK        -0.1800 
     72 C          -4.3705  -23.8161  -47.0856 C.2       12 UNK         0.5000 
     73 O          -5.1744  -24.4420  -47.7755 O.2       12 UNK        -0.5000 
     74 N          -3.8326  -24.2959  -45.9583 N.am      13 UNK        -0.5000 
     75 CA         -4.1173  -25.6176  -45.4083 C.3       13 UNK         0.1400 
     76 CB         -3.7991  -25.6278  -43.9041 C.3       13 UNK        -0.1800 
     77 C          -3.3555  -26.7393  -46.1342 C.2       13 UNK         0.5000 
     78 O          -3.9800  -27.6997  -46.5866 O.2       13 UNK        -0.5000 
     79 N          -2.0222  -26.6245  -46.1940 N.am      14 UNK        -0.5000 
     80 CA         -1.1346  -27.7024  -46.6291 C.3       14 UNK         0.1400 
     81 CB          0.2183  -27.5735  -45.9102 C.3       14 UNK        -0.1800 
     82 C          -0.9367  -27.7327  -48.1508 C.2       14 UNK         0.5000 
     83 O          -1.0538  -28.7996  -48.7551 O.2       14 UNK        -0.5000 
     84 N          -0.6202  -26.5729  -48.7402 N.am      15 UNK        -0.5000 
     85 CA         -0.3013  -26.4454  -50.1651 C.3       15 UNK         0.1400 
     86 CB          0.7629  -25.3484  -50.3452 C.3       15 UNK        -0.1800 
     87 C          -1.5387  -26.1517  -51.0322 C.2       15 UNK         0.5000 
     88 O          -1.4567  -26.2925  -52.2528 O.2       15 UNK        -0.5000 
     89 N          -2.6413  -25.7284  -50.3941 N.am      16 UNK        -0.5000 
     90 CA         -3.8627  -25.1861  -50.9995 C.3       16 UNK         0.1400 
     91 CB         -4.6205  -26.2688  -51.7958 C.3       16 UNK        -0.1800 
     92 C          -3.5705  -23.9100  -51.8160 C.2       16 UNK         0.5000 
     93 O          -4.0852  -23.7510  -52.9230 O.2       16 UNK        -0.5000 
     94 N          -2.7153  -23.0448  -51.2570 N.am      17 UNK        -0.5000 
     95 CA         -2.1573  -21.8651  -51.9073 C.3       17 UNK         0.1400 
     96 CB         -0.6957  -22.1646  -52.2779 C.3       17 UNK        -0.1800 
     97 C          -2.3310  -20.6086  -51.0345 C.2       17 UNK         0.5000 
     98 O          -3.2530  -20.5486  -50.2208 O.2       17 UNK        -0.5000 
     99 N          -1.4929  -19.5887  -51.2689 N.am      18 UNK        -0.5000 
    100 CA        -1.6435  -18.2091  -50.7943 C.3       18 UNK         0.1400 
    101 CB        -1.3702  -18.0917  -49.2783 C.3       18 UNK        -0.1800 
    102 C         -2.9980  -17.6393  -51.2609 C.2       18 UNK         0.5000 
    103 O         -3.2689  -17.6406  -52.4645 O.2       18 UNK        -0.5000 
    104 N         -3.8493  -17.2241  -50.3173 N.am      19 UNK        -0.5000 
    105 CA        -5.2035  -16.7333  -50.5742 C.3       19 UNK         0.1400 
    106 CB        -5.7854  -16.1942  -49.2581 C.3       19 UNK        -0.1800 
    107 C         -6.1521  -17.7824  -51.1957 C.2       19 UNK         0.5000 
    108 O         -7.1637  -17.3957  -51.7820 O.2       19 UNK        -0.5000 
    109 N         -5.8276  -19.0776  -51.0609 N.am      20 UNK        -0.5000 
    110 CA        -6.6461  -20.1809  -51.5613 C.3       20 UNK         0.1400 
    111 CB        -6.3799  -21.4382  -50.7179 C.3       20 UNK        -0.1800 
    112 C         -6.4567  -20.4777  -53.0628 C.2       20 UNK         0.5000 
    113 O         -7.3014  -21.1829  -53.6180 O.2       20 UNK        -0.5000 
    114 N         -5.3966  -19.9596  -53.7076 N.am      21 UNK        -0.5000 
    115 CA        -5.1599  -20.1833  -55.1381 C.3       21 UNK         0.1400 
    116 CB        -4.5711  -21.5827  -55.4044 C.3       21 UNK        -0.1800 
    117 C         -4.3040  -19.0890  -55.7878 C.2       21 UNK         0.5000 
    118 O         -4.8002  -18.3969  -56.6781 O.2       21 UNK        -0.5000 
    119 N         -3.0288  -18.9843  -55.3857 N.am      22 UNK        -0.5000 
    120 CA        -2.0338  -18.1154  -56.0447 C.3       22 UNK         0.1400 
    121 C         -2.2665  -16.5838  -55.8876 C.2       22 UNK         0.5000 
    122 N         -3.0398  -16.1337  -54.9095 N.am      22 UNK        -0.7600 
    123 O         -1.7601  -15.7984  -56.6846 O.2       22 UNK        -0.5000 
    124 C124       -0.5725  -18.5332  -55.7264 C.3       23 UNK        -0.0398 
    125 S125       -0.1194  -18.3743  -53.9683 S.3       23 UNK        -0.2404 
    126 C126        1.5714  -19.0390  -53.9575 C.3       23 UNK        -0.0205 
    127 H127       -0.9132  -15.5592  -52.8652 H         1 UNK         0.0600 
    128 H128       -2.4299  -14.7139  -52.5363 H         1 UNK         0.0600 
    129 H129       -1.2090  -13.9737  -53.5799 H         1 UNK         0.0600 
    130 H130        0.3896  -15.5171  -51.0655 H         1 UNK         0.3000 
    131 H131        1.1708  -13.0725  -49.7857 H         1 UNK         0.0600 
    132 H132        1.9346  -15.9625  -49.1488 H         1 UNK         0.0800 
    133 H133        2.7171  -14.5447  -48.4889 H         1 UNK         0.0800 
    134 H134        4.6392  -16.4125  -49.5810 H         1 UNK         0.0800 
    135 H135        5.1299  -16.3000  -51.2519 H         1 UNK         0.0800 
    136 H136        2.8901  -16.9042  -52.9084 H         1 UNK         0.1150 
    137 H137        1.7318  -20.9194  -51.9773 H         1 UNK         0.1150 
    138 H138        3.9242  -18.6170  -49.1153 H         1 UNK         0.1150 
    139 H139        2.3172  -21.9468  -49.9201 H         1 UNK         0.0800 
    140 H140        3.8816  -21.3945  -49.3881 H         1 UNK         0.0800 
    141 H141        0.1690  -21.0745  -49.1029 H         1 UNK         0.0800 
    142 H142       -0.1370  -20.1733  -47.6417 H         1 UNK         0.0800 
    143 H143        0.5772  -23.1383  -47.6096 H         1 UNK         0.0600 
    144 H144        0.2476  -21.3177  -45.4696 H         1 UNK         0.3000 
    145 H145       -0.8179  -23.7342  -42.9983 H         1 UNK         0.0600 
    146 H146        1.0820  -22.5916  -41.8448 H         1 UNK         0.0600 
    147 H147        1.6384  -23.7651  -43.0286 H         1 UNK         0.0600 
    148 H148        1.7073  -22.0520  -43.4022 H         1 UNK         0.0600 
    149 H149       -0.5443  -20.9134  -42.8100 H         1 UNK         0.3000 
    150 H150       -3.8953  -20.0860  -43.8181 H         1 UNK         0.0600 
    151 H151       -4.0486  -20.6724  -41.4080 H         1 UNK         0.0600 
    152 H152       -3.8115  -18.9425  -41.6115 H         1 UNK         0.0600 
    153 H153       -2.4676  -19.9643  -41.1086 H         1 UNK         0.0600 
    154 H154       -1.7665  -18.4176  -42.9871 H         1 UNK         0.3000 
    155 H155       -0.1230  -18.0294  -46.1414 H         1 UNK         0.0600 
    156 H156       -0.5205  -15.6530  -45.2180 H         1 UNK         0.0600 
    157 H157       -1.8200  -16.3431  -46.1807 H         1 UNK         0.0600 
    158 H158       -1.9627  -16.2715  -44.4347 H         1 UNK         0.0600 
    159 H159        0.3684  -17.1571  -43.4273 H         1 UNK         0.3000 
    160 H160        2.3965  -19.9024  -42.4764 H         1 UNK         0.0600 
    161 H161        4.2427  -18.3611  -42.2181 H         1 UNK         0.0600 
    162 H162        3.4362  -17.1233  -43.1678 H         1 UNK         0.0600 
    163 H163        3.9941  -18.6029  -43.9412 H         1 UNK         0.0600 
    164 H164        1.7910  -17.2377  -41.4330 H         1 UNK         0.3000 
    165 H165       -1.0803  -18.3164  -39.6183 H         1 UNK         0.0600 
    166 H166        0.1871  -17.4655  -37.6658 H         1 UNK         0.0600 
    167 H167        0.7973  -19.0442  -38.1347 H         1 UNK         0.0600 
    168 H168        1.7048  -17.5964  -38.5556 H         1 UNK         0.0600 
    169 H169        0.3125  -15.8399  -39.6328 H         1 UNK         0.3000 
    170 H170       -1.9129  -14.3008  -41.8173 H         1 UNK         0.0600 
    171 H171       -1.1701  -13.9196  -39.4496 H         1 UNK         0.0600 
    172 H172        0.5081  -13.8434  -39.9851 H         1 UNK         0.0600 
    173 H173       -0.6496  -12.6384  -40.5283 H         1 UNK         0.0600 
    174 H174       -0.4829  -13.6756  -43.3850 H         1 UNK         0.3000 
    175 H175        2.8330  -13.2404  -43.5912 H         1 UNK         0.0600 
    176 H176        1.8747  -15.6243  -45.2437 H         1 UNK         0.0600 
    177 H177        2.9768  -14.4020  -45.8699 H         1 UNK         0.0600 
    178 H178        3.4479  -15.3685  -44.4941 H         1 UNK         0.0600 
    179 H179        0.7966  -13.2633  -45.6515 H         1 UNK         0.3000 
    180 H180       -0.8544  -10.3745  -44.6868 H         1 UNK         0.0600 
    181 H181        1.4770  -10.1194  -46.6643 H         1 UNK         0.0600 
    182 H182        1.1999   -9.0773  -45.2740 H         1 UNK         0.0600 
    183 H183        0.0539   -9.0779  -46.6036 H         1 UNK         0.0600 
    184 H184       -0.4777  -11.4693  -47.2980 H         1 UNK         0.3000 
    185 H185       -2.4835  -14.3306  -47.0315 H         1 UNK         0.0600 
    186 H186       -4.2530  -12.5849  -47.1878 H         1 UNK         0.0600 
    187 H187       -3.2577  -11.6560  -48.3038 H         1 UNK         0.0600 
    188 H188       -3.8713  -13.2403  -48.7727 H         1 UNK         0.0600 
    189 H189       -1.4560  -13.0884  -49.3370 H         1 UNK         0.3000 
    190 H190       -2.3701  -21.3432  -46.5631 H         1 UNK         0.3000 
    191 H191       -4.0645  -22.3628  -48.6095 H         1 UNK         0.0600 
    192 H192       -4.7459  -21.2998  -45.8223 H         1 UNK         0.0600 
    193 H193       -5.8925  -21.5196  -47.1391 H         1 UNK         0.0600 
    194 H194       -4.5975  -20.3414  -47.2956 H         1 UNK         0.0600 
    195 H195       -3.2396  -23.6876  -45.4027 H         1 UNK         0.3000 
    196 H196       -5.1856  -25.8167  -45.5183 H         1 UNK         0.0600 
    197 H197       -3.9902  -26.6096  -43.4693 H         1 UNK         0.0600 
    198 H198       -4.4188  -24.9089  -43.3679 H         1 UNK         0.0600 
    199 H199       -2.7558  -25.3777  -43.7085 H         1 UNK         0.0600 
    200 H200       -1.5731  -25.7855  -45.8302 H         1 UNK         0.3000 
    201 H201       -1.5689  -28.6597  -46.3319 H         1 UNK         0.0600 
    202 H202        0.0921  -27.5933  -44.8276 H         1 UNK         0.0600 
    203 H203        0.7309  -26.6465  -46.1693 H         1 UNK         0.0600 
    204 H204        0.8806  -28.3983  -46.1759 H         1 UNK         0.0600 
    205 H205       -0.5854  -25.7281  -48.1861 H         1 UNK         0.3000 
    206 H206        0.1305  -27.3812  -50.5268 H         1 UNK         0.0600 
    207 H207        1.6600  -25.5711  -49.7676 H         1 UNK         0.0600 
    208 H208        1.0634  -25.2656  -51.3905 H         1 UNK         0.0600 
    209 H209        0.4006  -24.3693  -50.0356 H         1 UNK         0.0600 
    210 H210       -2.5613  -25.6027  -49.3943 H         1 UNK         0.3000 
    211 H211       -4.5084  -24.8762  -50.1804 H         1 UNK         0.0600 
    212 H212       -4.0691  -26.5864  -52.6809 H         1 UNK         0.0600 
    213 H213       -5.5887  -25.8962  -52.1321 H         1 UNK         0.0600 
    214 H214       -4.8074  -27.1497  -51.1818 H         1 UNK         0.0600 
    215 H215       -2.3660  -23.2405  -50.3217 H         1 UNK         0.3000 
    216 H216       -2.7037  -21.6571  -52.8266 H         1 UNK         0.0600 
    217 H217       -0.2860  -21.3912  -52.9266 H         1 UNK         0.0600 
    218 H218       -0.6154  -23.1048  -52.8245 H         1 UNK         0.0600 
    219 H219       -0.0683  -22.2466  -51.3900 H         1 UNK         0.0600 
    220 H220       -0.7904  -19.7035  -51.9864 H         1 UNK         0.3000 
    221 H221       -0.8818  -17.6142  -51.2973 H         1 UNK         0.0600 
    222 H222       -2.0246  -18.7298  -48.6832 H         1 UNK         0.0600 
    223 H223       -0.3399  -18.3701  -49.0602 H         1 UNK         0.0600 
    224 H224       -1.4912  -17.0654  -48.9288 H         1 UNK         0.0600 
    225 H225       -3.5741  -17.3045  -49.3498 H         1 UNK         0.3000 
    226 H226       -5.1287  -15.9046  -51.2815 H         1 UNK         0.0600 
    227 H227       -5.1632  -15.3999  -48.8458 H         1 UNK         0.0600 
    228 H228       -6.7816  -15.7774  -49.4121 H         1 UNK         0.0600 
    229 H229       -5.8707  -16.9794  -48.5058 H         1 UNK         0.0600 
    230 H230       -4.9679  -19.3323  -50.5870 H         1 UNK         0.3000 
    231 H231       -7.6968  -19.9180  -51.4204 H         1 UNK         0.0600 
    232 H232       -5.3731  -21.8199  -50.8719 H         1 UNK         0.0600 
    233 H233       -6.5062  -21.2388  -49.6539 H         1 UNK         0.0600 
    234 H234       -7.0711  -22.2390  -50.9832 H         1 UNK         0.0600 
    235 H235       -4.7730  -19.3244  -53.2249 H         1 UNK         0.3000 
    236 H236       -6.1253  -20.1390  -55.6478 H         1 UNK         0.0600 
    237 H237       -4.4093  -21.7394  -56.4716 H         1 UNK         0.0600 
    238 H238       -3.6134  -21.7269  -54.9074 H         1 UNK         0.0600 
    239 H239       -5.2439  -22.3701  -55.0651 H         1 UNK         0.0600 
    240 H240       -2.6909  -19.5507  -54.6241 H         1 UNK         0.3000 
    241 H241       -2.1562  -18.2951  -57.1149 H         1 UNK         0.0600 
    242 H242       -3.2114  -15.1460  -54.8284 H         1 UNK         0.3800 
    243 H243       -3.3472  -16.7670  -54.1778 H         1 UNK         0.3800 
    244 H244        0.1275  -17.9430  -56.3204 H         1 UNK         0.0800 
    245 H245       -0.4171  -19.5698  -56.0284 H         1 UNK         0.0800 
    246 H246        1.5553  -20.0827  -54.2749 H         1 UNK         0.0800 
    247 H247        2.1759  -18.5028  -54.6907 H         1 UNK         0.0800 
@<TRIPOS>BOND
     1    1    2 1    
     2    1  127 1    
     3    1  128 1    
     4    1  129 1    
     5    2    3 2    
     6    2    4 am   BACKBONE|DICT|INTERRES
     7    4    5 1    
     8    4  130 1    
     9    5    6 1    
    10    5   65 1    
    11    5  131 1    
    12    6    7 1    
    13    6  132 1    
    14    6  133 1    
    15    7    8 1    
    16    8    9 1    
    17    8  134 1    
    18    8  135 1    
    19    9   10 ar   
    20    9   14 ar   
    21   10   11 ar   
    22   10  136 1    
    23   11   12 ar   
    24   11  126 1    
    25   12   13 ar   
    26   12  137 1    
    27   13   14 ar   
    28   13   15 1    
    29   14  138 1    
    30   15   16 1    
    31   15  139 1    
    32   15  140 1    
    33   16   17 1    
    34   17   18 1    
    35   17  141 1    
    36   17  142 1    
    37   18   19 1    
    38   18   67 1    
    39   18  143 1    
    40   19   20 am   BACKBONE|DICT|INTERRES
    41   19  144 1    
    42   20   21 2    
    43   20   22 1    
    44   22   23 1    
    45   22   24 1    
    46   22  145 1    
    47   23  146 1    
    48   23  147 1    
    49   23  148 1    
    50   24   25 am   BACKBONE|DICT|INTERRES
    51   24  149 1    
    52   25   26 2    
    53   25   27 1    
    54   27   28 1    
    55   27   29 1    
    56   27  150 1    
    57   28  151 1    
    58   28  152 1    
    59   28  153 1    
    60   29   30 am   BACKBONE|DICT|INTERRES
    61   29  154 1    
    62   30   31 2    
    63   30   32 1    
    64   32   33 1    
    65   32   34 1    
    66   32  155 1    
    67   33  156 1    
    68   33  157 1    
    69   33  158 1    
    70   34   35 am   BACKBONE|DICT|INTERRES
    71   34  159 1    
    72   35   36 2    
    73   35   37 1    
    74   37   38 1    
    75   37   39 1    
    76   37  160 1    
    77   38  161 1    
    78   38  162 1    
    79   38  163 1    
    80   39   40 am   BACKBONE|DICT|INTERRES
    81   39  164 1    
    82   40   41 2    
    83   40   42 1    
    84   42   43 1    
    85   42   44 1    
    86   42  165 1    
    87   43  166 1    
    88   43  167 1    
    89   43  168 1    
    90   44   45 am   BACKBONE|DICT|INTERRES
    91   44  169 1    
    92   45   46 2    
    93   45   47 1    
    94   47   48 1    
    95   47   49 1    
    96   47  170 1    
    97   48  171 1    
    98   48  172 1    
    99   48  173 1    
   100   49   50 am   BACKBONE|DICT|INTERRES
   101   49  174 1    
   102   50   51 2    
   103   50   52 1    
   104   52   53 1    
   105   52   54 1    
   106   52  175 1    
   107   53  176 1    
   108   53  177 1    
   109   53  178 1    
   110   54   55 am   BACKBONE|DICT|INTERRES
   111   54  179 1    
   112   55   56 2    
   113   55   57 1    
   114   57   58 1    
   115   57   59 1    
   116   57  180 1    
   117   58  181 1    
   118   58  182 1    
   119   58  183 1    
   120   59   60 am   BACKBONE|DICT|INTERRES
   121   59  184 1    
   122   60   61 2    
   123   60   62 1    
   124   62   63 1    
   125   62   64 1    
   126   62  185 1    
   127   63  186 1    
   128   63  187 1    
   129   63  188 1    
   130   64   65 am   BACKBONE|DICT|INTERRES
   131   64  189 1    
   132   65   66 2    
   133   67   68 2    
   134   67   69 am   BACKBONE|DICT|INTERRES
   135   69   70 1    
   136   69  190 1    
   137   70   71 1    
   138   70   72 1    
   139   70  191 1    
   140   71  192 1    
   141   71  193 1    
   142   71  194 1    
   143   72   73 2    
   144   72   74 am   BACKBONE|DICT|INTERRES
   145   74   75 1    
   146   74  195 1    
   147   75   76 1    
   148   75   77 1    
   149   75  196 1    
   150   76  197 1    
   151   76  198 1    
   152   76  199 1    
   153   77   78 2    
   154   77   79 am   BACKBONE|DICT|INTERRES
   155   79   80 1    
   156   79  200 1    
   157   80   81 1    
   158   80   82 1    
   159   80  201 1    
   160   81  202 1    
   161   81  203 1    
   162   81  204 1    
   163   82   83 2    
   164   82   84 am   BACKBONE|DICT|INTERRES
   165   84   85 1    
   166   84  205 1    
   167   85   86 1    
   168   85   87 1    
   169   85  206 1    
   170   86  207 1    
   171   86  208 1    
   172   86  209 1    
   173   87   88 2    
   174   87   89 am   BACKBONE|DICT|INTERRES
   175   89   90 1    
   176   89  210 1    
   177   90   91 1    
   178   90   92 1    
   179   90  211 1    
   180   91  212 1    
   181   91  213 1    
   182   91  214 1    
   183   92   93 2    
   184   92   94 am   BACKBONE|DICT|INTERRES
   185   94   95 1    
   186   94  215 1    
   187   95   96 1    
   188   95   97 1    
   189   95  216 1    
   190   96  217 1    
   191   96  218 1    
   192   96  219 1    
   193   97   98 2    
   194   97   99 am   BACKBONE|DICT|INTERRES
   195   99  100 1    
   196   99  220 1    
   197  100  101 1    
   198  100  102 1    
   199  100  221 1    
   200  101  222 1    
   201  101  223 1    
   202  101  224 1    
   203  102  103 2    
   204  102  104 am   BACKBONE|DICT|INTERRES
   205  104  105 1    
   206  104  225 1    
   207  105  106 1    
   208  105  107 1    
   209  105  226 1    
   210  106  227 1    
   211  106  228 1    
   212  106  229 1    
   213  107  108 2    
   214  107  109 am   BACKBONE|DICT|INTERRES
   215  109  110 1    
   216  109  230 1    
   217  110  111 1    
   218  110  112 1    
   219  110  231 1    
   220  111  232 1    
   221  111  233 1    
   222  111  234 1    
   223  112  113 2    
   224  112  114 am   BACKBONE|DICT|INTERRES
   225  114  115 1    
   226  114  235 1    
   227  115  116 1    
   228  115  117 1    
   229  115  236 1    
   230  116  237 1    
   231  116  238 1    
   232  116  239 1    
   233  117  118 2    
   234  117  119 am   BACKBONE|DICT|INTERRES
   235  119  120 1    
   236  119  240 1    
   237  120  121 1    
   238  120  124 1    
   239  120  241 1    
   240  121  122 am   BACKBONE|DICT|INTERRES
   241  121  123 2    
   242  122  242 1    
   243  122  243 1    
   244  124  125 1    
   245  124  244 1    
   246  124  245 1    
   247  125  126 1    
   248  126  246 1    
   249  126  247 1    
@<TRIPOS>SUBSTRUCTURE
     1 UNK         1 GROUP             0       ****    0 ROOT    
