@<TRIPOS>MOLECULE
3R540
247   249    1
SMALL
USER_CHARGES


@<TRIPOS>ATOM
      1 CA         -0.1242  -12.3665  -48.2957 C.3       0 UNK        -0.1800 
      2 C           1.2931  -12.2118  -48.8318 C.2       0 UNK         0.5000 
      3 O           1.4708  -11.9448  -50.0201 O.2       0 UNK        -0.5000 
      4 N           2.2916  -12.3713  -47.9580 N.am      1 UNK        -0.5000 
      5 CA          3.7181  -12.1770  -48.2339 C.3       1 UNK         0.1400 
      6 C6          4.5060  -13.5139  -48.3155 C.3       23 UNK        -0.0398 
      7 S7          3.9025  -14.6423  -49.6141 S.3       23 UNK        -0.2404 
      8 C8          3.0111  -15.8401  -48.5799 C.3       23 UNK        -0.0205 
      9 C9          2.0434  -16.6819  -49.3915 C.ar      23 UNK        -0.0193 
     10 C10         0.8466  -16.1231  -49.8429 C.ar      23 UNK        -0.1150 
     11 C11        -0.0864  -16.9018  -50.5288 C.ar      23 UNK        -0.0193 
     12 C12         0.1802  -18.2561  -50.7517 C.ar      23 UNK        -0.1150 
     13 C13         1.3767  -18.8311  -50.3090 C.ar      23 UNK        -0.0193 
     14 C14         2.3147  -18.0274  -49.6481 C.ar      23 UNK        -0.1150 
     15 C15         1.6232  -20.3209  -50.5501 C.3       23 UNK        -0.0205 
     16 S16         2.5719  -21.1722  -49.2364 S.3       23 UNK        -0.2404 
     17 C17         1.6143  -20.7590  -47.7364 C.3       23 UNK        -0.0398 
     18 CA          0.7079  -21.8981  -47.2207 C.3       11 UNK         0.1400 
     19 N           0.1986  -21.5920  -45.8830 N.am      11 UNK        -0.5000 
     20 C          -0.4999  -22.4317  -45.1080 C.2       10 UNK         0.5000 
     21 O          -0.7469  -23.5991  -45.4101 O.2       10 UNK        -0.5000 
     22 CA         -1.0543  -21.8523  -43.7940 C.3       10 UNK         0.1400 
     23 CB          0.0327  -21.8238  -42.7096 C.3       10 UNK        -0.1800 
     24 N          -1.6202  -20.5118  -43.9640 N.am      10 UNK        -0.5000 
     25 C          -2.6902  -20.2345  -44.7236 C.2       9 UNK         0.5000 
     26 O          -3.3369  -21.0903  -45.3253 O.2       9 UNK        -0.5000 
     27 CA         -3.0863  -18.7547  -44.8721 C.3       9 UNK         0.1400 
     28 CB         -3.8751  -18.2747  -43.6451 C.3       9 UNK        -0.1800 
     29 N          -1.9401  -17.8748  -45.0985 N.am      9 UNK        -0.5000 
     30 C          -1.1218  -17.9456  -46.1583 C.2       8 UNK         0.5000 
     31 O          -1.2540  -18.7592  -47.0716 O.2       8 UNK        -0.5000 
     32 CA          0.0856  -16.9902  -46.1618 C.3       8 UNK         0.1400 
     33 CB         -0.3401  -15.5607  -46.5293 C.3       8 UNK        -0.1800 
     34 N           0.7899  -16.9783  -44.8786 N.am      8 UNK        -0.5000 
     35 C           1.3774  -18.0499  -44.3254 C.2       7 UNK         0.5000 
     36 O           1.4469  -19.1524  -44.8677 O.2       7 UNK        -0.5000 
     37 CA          1.9228  -17.8763  -42.8983 C.3       7 UNK         0.1400 
     38 CB          3.3072  -17.2086  -42.9081 C.3       7 UNK        -0.1800 
     39 N           1.0011  -17.1108  -42.0580 N.am      7 UNK        -0.5000 
     40 C          -0.1959  -17.5600  -41.6510 C.2       6 UNK         0.5000 
     41 O          -0.6269  -18.6836  -41.9064 O.2       6 UNK        -0.5000 
     42 CA         -1.0769  -16.5732  -40.8634 C.3       6 UNK         0.1400 
     43 CB         -0.7072  -16.5897  -39.3728 C.3       6 UNK        -0.1800 
     44 N          -0.9773  -15.2051  -41.3719 N.am      6 UNK        -0.5000 
     45 C          -1.3916  -14.8103  -42.5849 C.2       5 UNK         0.5000 
     46 O          -1.9644  -15.5497  -43.3832 O.2       5 UNK        -0.5000 
     47 CA         -1.0566  -13.3626  -42.9921 C.3       5 UNK         0.1400 
     48 CB         -2.1879  -12.4087  -42.5822 C.3       5 UNK        -0.1800 
     49 N           0.2078  -12.8999  -42.4126 N.am      5 UNK        -0.5000 
     50 C           1.4066  -13.4023  -42.7328 C.2       4 UNK         0.5000 
     51 O           1.5805  -14.2610  -43.6030 O.2       4 UNK        -0.5000 
     52 CA          2.5917  -12.9235  -41.8868 C.3       4 UNK         0.1400 
     53 CB          2.6898  -13.7527  -40.5910 C.3       4 UNK        -0.1800 
     54 N           3.8136  -13.0612  -42.6696 N.am      4 UNK        -0.5000 
     55 C           4.9845  -12.4762  -42.3936 C.2       3 UNK         0.5000 
     56 O           5.1778  -11.7531  -41.4153 O.2       3 UNK        -0.5000 
     57 CA          6.1153  -12.6865  -43.4075 C.3       3 UNK         0.1400 
     58 CB          6.1766  -14.1207  -43.9709 C.3       3 UNK        -0.1800 
     59 N           5.9059  -11.7363  -44.4894 N.am      3 UNK        -0.5000 
     60 C           6.8458  -11.0730  -45.1666 C.2       2 UNK         0.5000 
     61 O           8.0546  -11.2086  -44.9677 O.2       2 UNK        -0.5000 
     62 CA          6.3294  -10.1213  -46.2724 C.3       2 UNK         0.1400 
     63 CB          7.4656   -9.3636  -46.9830 C.3       2 UNK        -0.1800 
     64 N           5.5349  -10.8314  -47.2809 N.am      2 UNK        -0.5000 
     65 C           4.2928  -11.3018  -47.1052 C.2       1 UNK         0.5000 
     66 O           3.6383  -11.1148  -46.0732 O.2       1 UNK        -0.5000 
     67 C          -0.4385  -22.2183  -48.2022 C.2       11 UNK         0.5000 
     68 O          -0.3718  -23.2284  -48.9021 O.2       11 UNK        -0.5000 
     69 N          -1.4879  -21.3843  -48.2063 N.am      12 UNK        -0.5000 
     70 CA         -2.6945  -21.5904  -49.0040 C.3       12 UNK         0.1400 
     71 CB         -3.5982  -20.3564  -48.9125 C.3       12 UNK        -0.1800 
     72 C          -3.4572  -22.8673  -48.6095 C.2       12 UNK         0.5000 
     73 O          -3.8689  -23.6160  -49.4928 O.2       12 UNK        -0.5000 
     74 N          -3.5941  -23.1295  -47.3021 N.am      13 UNK        -0.5000 
     75 CA         -4.1987  -24.3509  -46.7663 C.3       13 UNK         0.1400 
     76 CB         -4.3052  -24.2594  -45.2371 C.3       13 UNK        -0.1800 
     77 C          -3.4433  -25.6230  -47.1938 C.2       13 UNK         0.5000 
     78 O          -4.0776  -26.5843  -47.6337 O.2       13 UNK        -0.5000 
     79 N          -2.1049  -25.5795  -47.1094 N.am      14 UNK        -0.5000 
     80 CA         -1.2009  -26.6323  -47.5767 C.3       14 UNK         0.1400 
     81 CB          0.2365  -26.3079  -47.1434 C.3       14 UNK        -0.1800 
     82 C          -1.2768  -26.8630  -49.0983 C.2       14 UNK         0.5000 
     83 O          -1.1777  -28.0083  -49.5417 O.2       14 UNK        -0.5000 
     84 N          -1.5117  -25.7925  -49.8695 N.am      15 UNK        -0.5000 
     85 CA         -1.7828  -25.8087  -51.3086 C.3       15 UNK         0.1400 
     86 CB         -1.4745  -24.4198  -51.8980 C.3       15 UNK        -0.1800 
     87 C          -3.2184  -26.2876  -51.6247 C.2       15 UNK         0.5000 
     88 O          -3.9822  -25.5777  -52.2817 O.2       15 UNK        -0.5000 
     89 N          -3.5475  -27.4950  -51.1429 N.am      16 UNK        -0.5000 
     90 CA         -4.7772  -28.2602  -51.3655 C.3       16 UNK         0.1400 
     91 CB         -4.7684  -28.8574  -52.7872 C.3       16 UNK        -0.1800 
     92 C          -6.0691  -27.4798  -51.0430 C.2       16 UNK         0.5000 
     93 O          -7.0064  -27.4861  -51.8430 O.2       16 UNK        -0.5000 
     94 N          -6.0878  -26.8258  -49.8711 N.am      17 UNK        -0.5000 
     95 CA         -7.1827  -25.9991  -49.3509 C.3       17 UNK         0.1400 
     96 CB         -8.4241  -26.8600  -49.0339 C.3       17 UNK        -0.1800 
     97 C          -7.4900  -24.7908  -50.2609 C.2       17 UNK         0.5000 
     98 O          -8.6371  -24.5814  -50.6602 O.2       17 UNK        -0.5000 
     99 N          -6.4367  -24.0204  -50.5584 N.am      18 UNK        -0.5000 
    100 CA        -6.4088  -22.8036  -51.3682 C.3       18 UNK         0.1400 
    101 CB        -7.2120  -21.6688  -50.7006 C.3       18 UNK        -0.1800 
    102 C         -6.7823  -23.0412  -52.8424 C.2       18 UNK         0.5000 
    103 O         -7.5538  -22.2712  -53.4188 O.2       18 UNK        -0.5000 
    104 N         -6.2087  -24.0935  -53.4409 N.am      19 UNK        -0.5000 
    105 CA        -6.3331  -24.4053  -54.8627 C.3       19 UNK         0.1400 
    106 CB        -5.9032  -25.8610  -55.1046 C.3       19 UNK        -0.1800 
    107 C         -5.4995  -23.4102  -55.6913 C.2       19 UNK         0.5000 
    108 O         -4.2945  -23.6084  -55.8577 O.2       19 UNK        -0.5000 
    109 N         -6.1595  -22.3370  -56.1501 N.am      20 UNK        -0.5000 
    110 CA        -5.5927  -21.1863  -56.8628 C.3       20 UNK         0.1400 
    111 CB        -5.0498  -21.6027  -58.2467 C.3       20 UNK        -0.1800 
    112 C         -4.5655  -20.4105  -56.0087 C.2       20 UNK         0.5000 
    113 O         -3.5008  -20.0349  -56.5037 O.2       20 UNK        -0.5000 
    114 N         -4.9133  -20.1847  -54.7362 N.am      21 UNK        -0.5000 
    115 CA        -4.1390  -19.4063  -53.7716 C.3       21 UNK         0.1400 
    116 CB        -3.4201  -20.3614  -52.8013 C.3       21 UNK        -0.1800 
    117 C         -5.0677  -18.4305  -53.0282 C.2       21 UNK         0.5000 
    118 O         -6.2815  -18.4319  -53.2513 O.2       21 UNK        -0.5000 
    119 N         -4.4641  -17.5972  -52.1759 N.am      22 UNK        -0.5000 
    120 CA        -5.1255  -16.5882  -51.3359 C.3       22 UNK         0.1400 
    121 C         -6.0997  -17.1676  -50.2675 C.2       22 UNK         0.5000 
    122 N         -7.0267  -16.3595  -49.7695 N.am      22 UNK        -0.7600 
    123 O         -6.0202  -18.3259  -49.8696 O.2       22 UNK        -0.5000 
    124 C124       -4.0876  -15.6116  -50.7170 C.3       23 UNK        -0.0398 
    125 S125       -2.7179  -16.4274  -49.8175 S.3       23 UNK        -0.2404 
    126 C126       -1.3738  -16.2726  -51.0342 C.3       23 UNK        -0.0205 
    127 H127       -0.1344  -12.5443  -47.2201 H         1 UNK         0.0600 
    128 H128       -0.6253  -13.2017  -48.7847 H         1 UNK         0.0600 
    129 H129       -0.6996  -11.4622  -48.4930 H         1 UNK         0.0600 
    130 H130        2.0817  -12.4913  -46.9759 H         1 UNK         0.3000 
    131 H131        3.8484  -11.6273  -49.1684 H         1 UNK         0.0600 
    132 H132        5.5577  -13.3220  -48.5335 H         1 UNK         0.0800 
    133 H133        4.4945  -14.0288  -47.3526 H         1 UNK         0.0800 
    134 H134        2.4520  -15.3104  -47.8087 H         1 UNK         0.0800 
    135 H135        3.7316  -16.4712  -48.0572 H         1 UNK         0.0800 
    136 H136        0.6405  -15.0799  -49.6536 H         1 UNK         0.1150 
    137 H137       -0.5486  -18.8639  -51.2686 H         1 UNK         0.1150 
    138 H138        3.2449  -18.4545  -49.3020 H         1 UNK         0.1150 
    139 H139        0.6722  -20.8417  -50.6731 H         1 UNK         0.0800 
    140 H140        2.1585  -20.4337  -51.4934 H         1 UNK         0.0800 
    141 H141        1.0349  -19.8481  -47.8829 H         1 UNK         0.0800 
    142 H142        2.3495  -20.5120  -46.9699 H         1 UNK         0.0800 
    143 H143        1.3187  -22.7985  -47.1275 H         1 UNK         0.0600 
    144 H144        0.3893  -20.6565  -45.5353 H         1 UNK         0.3000 
    145 H145       -1.8552  -22.5115  -43.4530 H         1 UNK         0.0600 
    146 H146       -0.3757  -21.5003  -41.7520 H         1 UNK         0.0600 
    147 H147        0.4635  -22.8148  -42.5615 H         1 UNK         0.0600 
    148 H148        0.8460  -21.1466  -42.9716 H         1 UNK         0.0600 
    149 H149       -1.1695  -19.7589  -43.4523 H         1 UNK         0.3000 
    150 H150       -3.7375  -18.6742  -45.7450 H         1 UNK         0.0600 
    151 H151       -4.7493  -18.9035  -43.4723 H         1 UNK         0.0600 
    152 H152       -4.2305  -17.2531  -43.7804 H         1 UNK         0.0600 
    153 H153       -3.2676  -18.3002  -42.7403 H         1 UNK         0.0600 
    154 H154       -1.7870  -17.1433  -44.4096 H         1 UNK         0.3000 
    155 H155        0.7863  -17.3457  -46.9188 H         1 UNK         0.0600 
    156 H156       -1.0741  -15.1612  -45.8311 H         1 UNK         0.0600 
    157 H157       -0.7921  -15.5346  -47.5208 H         1 UNK         0.0600 
    158 H158        0.5125  -14.8828  -46.5372 H         1 UNK         0.0600 
    159 H159        0.8088  -16.1004  -44.3730 H         1 UNK         0.3000 
    160 H160        2.0329  -18.8707  -42.4603 H         1 UNK         0.0600 
    161 H161        3.7070  -17.1135  -41.8985 H         1 UNK         0.0600 
    162 H162        3.2812  -16.2148  -43.3534 H         1 UNK         0.0600 
    163 H163        4.0183  -17.8026  -43.4835 H         1 UNK         0.0600 
    164 H164        1.2613  -16.1602  -41.8464 H         1 UNK         0.3000 
    165 H165       -2.1147  -16.8981  -40.9630 H         1 UNK         0.0600 
    166 H166       -1.3738  -15.9500  -38.7943 H         1 UNK         0.0600 
    167 H167       -0.7885  -17.5972  -38.9625 H         1 UNK         0.0600 
    168 H168        0.3153  -16.2485  -39.2057 H         1 UNK         0.0600 
    169 H169       -0.5303  -14.5278  -40.7728 H         1 UNK         0.3000 
    170 H170       -0.9637  -13.3359  -44.0799 H         1 UNK         0.0600 
    171 H171       -3.1377  -12.7208  -43.0186 H         1 UNK         0.0600 
    172 H172       -2.3182  -12.3776  -41.4997 H         1 UNK         0.0600 
    173 H173       -1.9915  -11.3933  -42.9268 H         1 UNK         0.0600 
    174 H174        0.1431  -12.1964  -41.6906 H         1 UNK         0.3000 
    175 H175        2.4419  -11.8698  -41.6421 H         1 UNK         0.0600 
    176 H176        2.8839  -14.8050  -40.8011 H         1 UNK         0.0600 
    177 H177        3.4905  -13.3909  -39.9462 H         1 UNK         0.0600 
    178 H178        1.7665  -13.6957  -40.0134 H         1 UNK         0.0600 
    179 H179        3.7047  -13.6165  -43.5087 H         1 UNK         0.3000 
    180 H180        7.0561  -12.4712  -42.8962 H         1 UNK         0.0600 
    181 H181        5.3104  -14.3598  -44.5889 H         1 UNK         0.0600 
    182 H182        6.2250  -14.8559  -43.1665 H         1 UNK         0.0600 
    183 H183        7.0653  -14.2564  -44.5874 H         1 UNK         0.0600 
    184 H184        4.9374  -11.5444  -44.7331 H         1 UNK         0.3000 
    185 H185        5.6924   -9.3794  -45.7860 H         1 UNK         0.0600 
    186 H186        8.0594   -8.7900  -46.2701 H         1 UNK         0.0600 
    187 H187        8.1414  -10.0440  -47.5027 H         1 UNK         0.0600 
    188 H188        7.0714   -8.6583  -47.7149 H         1 UNK         0.0600 
    189 H189        6.0158  -11.0393  -48.1444 H         1 UNK         0.3000 
    190 H190       -1.4564  -20.5412  -47.6369 H         1 UNK         0.3000 
    191 H191       -2.3852  -21.6989  -50.0453 H         1 UNK         0.0600 
    192 H192       -3.9173  -20.1607  -47.8888 H         1 UNK         0.0600 
    193 H193       -4.4950  -20.4896  -49.5178 H         1 UNK         0.0600 
    194 H194       -3.0883  -19.4655  -49.2793 H         1 UNK         0.0600 
    195 H195       -3.2810  -22.4384  -46.6243 H         1 UNK         0.3000 
    196 H196       -5.2109  -24.4145  -47.1676 H         1 UNK         0.0600 
    197 H197       -4.7731  -25.1539  -44.8242 H         1 UNK         0.0600 
    198 H198       -4.9127  -23.4060  -44.9355 H         1 UNK         0.0600 
    199 H199       -3.3268  -24.1546  -44.7689 H         1 UNK         0.0600 
    200 H200       -1.6684  -24.7575  -46.7012 H         1 UNK         0.3000 
    201 H201       -1.4994  -27.5625  -47.0892 H         1 UNK         0.0600 
    202 H202        0.3109  -26.2213  -46.0593 H         1 UNK         0.0600 
    203 H203        0.5873  -25.3715  -47.5774 H         1 UNK         0.0600 
    204 H204        0.9257  -27.0934  -47.4555 H         1 UNK         0.0600 
    205 H205       -1.5470  -24.8825  -49.4234 H         1 UNK         0.3000 
    206 H206       -1.1001  -26.5195  -51.7784 H         1 UNK         0.0600 
    207 H207       -0.4490  -24.1182  -51.6839 H         1 UNK         0.0600 
    208 H208       -1.5945  -24.4201  -52.9820 H         1 UNK         0.0600 
    209 H209       -2.1376  -23.6538  -51.4979 H         1 UNK         0.0600 
    210 H210       -2.8404  -27.9586  -50.5803 H         1 UNK         0.3000 
    211 H211       -4.7493  -29.0934  -50.6619 H         1 UNK         0.0600 
    212 H212       -4.7773  -28.0801  -53.5500 H         1 UNK         0.0600 
    213 H213       -5.6381  -29.4939  -52.9541 H         1 UNK         0.0600 
    214 H214       -3.8832  -29.4723  -52.9492 H         1 UNK         0.0600 
    215 H215       -5.2603  -26.8660  -49.2834 H         1 UNK         0.3000 
    216 H216       -6.8309  -25.5871  -48.4052 H         1 UNK         0.0600 
    217 H217       -9.1927  -26.2651  -48.5394 H         1 UNK         0.0600 
    218 H218       -8.1718  -27.6833  -48.3657 H         1 UNK         0.0600 
    219 H219       -8.8701  -27.2832  -49.9343 H         1 UNK         0.0600 
    220 H220       -5.5254  -24.2793  -50.1886 H         1 UNK         0.3000 
    221 H221       -5.3651  -22.4973  -51.3778 H         1 UNK         0.0600 
    222 H222       -8.2813  -21.8807  -50.6864 H         1 UNK         0.0600 
    223 H223       -6.8864  -21.5071  -49.6730 H         1 UNK         0.0600 
    224 H224       -7.0718  -20.7272  -51.2335 H         1 UNK         0.0600 
    225 H225       -5.5360  -24.6519  -52.9194 H         1 UNK         0.3000 
    226 H226       -7.3822  -24.3179  -55.1534 H         1 UNK         0.0600 
    227 H227       -6.5180  -26.5524  -54.5281 H         1 UNK         0.0600 
    228 H228       -6.0088  -26.1284  -56.1565 H         1 UNK         0.0600 
    229 H229       -4.8619  -26.0267  -54.8270 H         1 UNK         0.0600 
    230 H230       -7.1349  -22.2492  -55.8965 H         1 UNK         0.3000 
    231 H231       -6.4209  -20.4972  -57.0343 H         1 UNK         0.0600 
    232 H232       -5.8071  -22.1330  -58.8240 H         1 UNK         0.0600 
    233 H233       -4.1762  -22.2499  -58.1647 H         1 UNK         0.0600 
    234 H234       -4.7535  -20.7286  -58.8277 H         1 UNK         0.0600 
    235 H235       -5.8347  -20.4624  -54.4228 H         1 UNK         0.3000 
    236 H236       -3.3911  -18.8044  -54.2921 H         1 UNK         0.0600 
    237 H237       -2.7088  -19.8253  -52.1727 H         1 UNK         0.0600 
    238 H238       -4.1245  -20.8581  -52.1385 H         1 UNK         0.0600 
    239 H239       -2.8622  -21.1297  -53.3374 H         1 UNK         0.0600 
    240 H240       -3.4757  -17.7024  -52.0101 H         1 UNK         0.3000 
    241 H241       -5.7496  -16.0019  -52.0133 H         1 UNK         0.0600 
    242 H242       -7.6594  -16.7206  -49.0728 H         1 UNK         0.3800 
    243 H243       -7.1236  -15.4041  -50.0765 H         1 UNK         0.3800 
    244 H244       -3.6684  -14.9889  -51.5083 H         1 UNK         0.0800 
    245 H245       -4.5727  -14.9108  -50.0357 H         1 UNK         0.0800 
    246 H246       -1.6664  -16.7392  -51.9754 H         1 UNK         0.0800 
    247 H247       -1.2075  -15.2168  -51.2546 H         1 UNK         0.0800 
@<TRIPOS>BOND
     1    1    2 1    
     2    1  127 1    
     3    1  128 1    
     4    1  129 1    
     5    2    3 2    
     6    2    4 am   BACKBONE|DICT|INTERRES
     7    4    5 1    
     8    4  130 1    
     9    5    6 1    
    10    5   65 1    
    11    5  131 1    
    12    6    7 1    
    13    6  132 1    
    14    6  133 1    
    15    7    8 1    
    16    8    9 1    
    17    8  134 1    
    18    8  135 1    
    19    9   10 ar   
    20    9   14 ar   
    21   10   11 ar   
    22   10  136 1    
    23   11   12 ar   
    24   11  126 1    
    25   12   13 ar   
    26   12  137 1    
    27   13   14 ar   
    28   13   15 1    
    29   14  138 1    
    30   15   16 1    
    31   15  139 1    
    32   15  140 1    
    33   16   17 1    
    34   17   18 1    
    35   17  141 1    
    36   17  142 1    
    37   18   19 1    
    38   18   67 1    
    39   18  143 1    
    40   19   20 am   BACKBONE|DICT|INTERRES
    41   19  144 1    
    42   20   21 2    
    43   20   22 1    
    44   22   23 1    
    45   22   24 1    
    46   22  145 1    
    47   23  146 1    
    48   23  147 1    
    49   23  148 1    
    50   24   25 am   BACKBONE|DICT|INTERRES
    51   24  149 1    
    52   25   26 2    
    53   25   27 1    
    54   27   28 1    
    55   27   29 1    
    56   27  150 1    
    57   28  151 1    
    58   28  152 1    
    59   28  153 1    
    60   29   30 am   BACKBONE|DICT|INTERRES
    61   29  154 1    
    62   30   31 2    
    63   30   32 1    
    64   32   33 1    
    65   32   34 1    
    66   32  155 1    
    67   33  156 1    
    68   33  157 1    
    69   33  158 1    
    70   34   35 am   BACKBONE|DICT|INTERRES
    71   34  159 1    
    72   35   36 2    
    73   35   37 1    
    74   37   38 1    
    75   37   39 1    
    76   37  160 1    
    77   38  161 1    
    78   38  162 1    
    79   38  163 1    
    80   39   40 am   BACKBONE|DICT|INTERRES
    81   39  164 1    
    82   40   41 2    
    83   40   42 1    
    84   42   43 1    
    85   42   44 1    
    86   42  165 1    
    87   43  166 1    
    88   43  167 1    
    89   43  168 1    
    90   44   45 am   BACKBONE|DICT|INTERRES
    91   44  169 1    
    92   45   46 2    
    93   45   47 1    
    94   47   48 1    
    95   47   49 1    
    96   47  170 1    
    97   48  171 1    
    98   48  172 1    
    99   48  173 1    
   100   49   50 am   BACKBONE|DICT|INTERRES
   101   49  174 1    
   102   50   51 2    
   103   50   52 1    
   104   52   53 1    
   105   52   54 1    
   106   52  175 1    
   107   53  176 1    
   108   53  177 1    
   109   53  178 1    
   110   54   55 am   BACKBONE|DICT|INTERRES
   111   54  179 1    
   112   55   56 2    
   113   55   57 1    
   114   57   58 1    
   115   57   59 1    
   116   57  180 1    
   117   58  181 1    
   118   58  182 1    
   119   58  183 1    
   120   59   60 am   BACKBONE|DICT|INTERRES
   121   59  184 1    
   122   60   61 2    
   123   60   62 1    
   124   62   63 1    
   125   62   64 1    
   126   62  185 1    
   127   63  186 1    
   128   63  187 1    
   129   63  188 1    
   130   64   65 am   BACKBONE|DICT|INTERRES
   131   64  189 1    
   132   65   66 2    
   133   67   68 2    
   134   67   69 am   BACKBONE|DICT|INTERRES
   135   69   70 1    
   136   69  190 1    
   137   70   71 1    
   138   70   72 1    
   139   70  191 1    
   140   71  192 1    
   141   71  193 1    
   142   71  194 1    
   143   72   73 2    
   144   72   74 am   BACKBONE|DICT|INTERRES
   145   74   75 1    
   146   74  195 1    
   147   75   76 1    
   148   75   77 1    
   149   75  196 1    
   150   76  197 1    
   151   76  198 1    
   152   76  199 1    
   153   77   78 2    
   154   77   79 am   BACKBONE|DICT|INTERRES
   155   79   80 1    
   156   79  200 1    
   157   80   81 1    
   158   80   82 1    
   159   80  201 1    
   160   81  202 1    
   161   81  203 1    
   162   81  204 1    
   163   82   83 2    
   164   82   84 am   BACKBONE|DICT|INTERRES
   165   84   85 1    
   166   84  205 1    
   167   85   86 1    
   168   85   87 1    
   169   85  206 1    
   170   86  207 1    
   171   86  208 1    
   172   86  209 1    
   173   87   88 2    
   174   87   89 am   BACKBONE|DICT|INTERRES
   175   89   90 1    
   176   89  210 1    
   177   90   91 1    
   178   90   92 1    
   179   90  211 1    
   180   91  212 1    
   181   91  213 1    
   182   91  214 1    
   183   92   93 2    
   184   92   94 am   BACKBONE|DICT|INTERRES
   185   94   95 1    
   186   94  215 1    
   187   95   96 1    
   188   95   97 1    
   189   95  216 1    
   190   96  217 1    
   191   96  218 1    
   192   96  219 1    
   193   97   98 2    
   194   97   99 am   BACKBONE|DICT|INTERRES
   195   99  100 1    
   196   99  220 1    
   197  100  101 1    
   198  100  102 1    
   199  100  221 1    
   200  101  222 1    
   201  101  223 1    
   202  101  224 1    
   203  102  103 2    
   204  102  104 am   BACKBONE|DICT|INTERRES
   205  104  105 1    
   206  104  225 1    
   207  105  106 1    
   208  105  107 1    
   209  105  226 1    
   210  106  227 1    
   211  106  228 1    
   212  106  229 1    
   213  107  108 2    
   214  107  109 am   BACKBONE|DICT|INTERRES
   215  109  110 1    
   216  109  230 1    
   217  110  111 1    
   218  110  112 1    
   219  110  231 1    
   220  111  232 1    
   221  111  233 1    
   222  111  234 1    
   223  112  113 2    
   224  112  114 am   BACKBONE|DICT|INTERRES
   225  114  115 1    
   226  114  235 1    
   227  115  116 1    
   228  115  117 1    
   229  115  236 1    
   230  116  237 1    
   231  116  238 1    
   232  116  239 1    
   233  117  118 2    
   234  117  119 am   BACKBONE|DICT|INTERRES
   235  119  120 1    
   236  119  240 1    
   237  120  121 1    
   238  120  124 1    
   239  120  241 1    
   240  121  122 am   BACKBONE|DICT|INTERRES
   241  121  123 2    
   242  122  242 1    
   243  122  243 1    
   244  124  125 1    
   245  124  244 1    
   246  124  245 1    
   247  125  126 1    
   248  126  246 1    
   249  126  247 1    
@<TRIPOS>SUBSTRUCTURE
     1 UNK         1 GROUP             0       ****    0 ROOT    
