@<TRIPOS>MOLECULE
3R540
247   249    1
SMALL
USER_CHARGES


@<TRIPOS>ATOM
      1 CA          1.7790  -11.9214  -48.2321 C.3       0 UNK        -0.1800 
      2 C           1.3822  -13.3691  -47.9854 C.2       0 UNK         0.5000 
      3 O           1.2202  -13.7696  -46.8332 O.2       0 UNK        -0.5000 
      4 N           1.2352  -14.1580  -49.0577 N.am      1 UNK        -0.5000 
      5 CA          0.8694  -15.5807  -49.0422 C.3       1 UNK         0.1400 
      6 C6         -0.5685  -15.8429  -48.5125 C.3       23 UNK        -0.0398 
      7 S7         -1.8640  -14.8472  -49.3390 S.3       23 UNK        -0.2404 
      8 C8         -1.9486  -15.5559  -51.0164 C.3       23 UNK        -0.0205 
      9 C9         -2.3244  -17.0268  -50.9939 C.ar      23 UNK        -0.0193 
     10 C10        -3.6553  -17.4133  -50.8076 C.ar      23 UNK        -0.1150 
     11 C11        -3.9921  -18.7671  -50.7274 C.ar      23 UNK        -0.0193 
     12 C12        -2.9864  -19.7300  -50.8220 C.ar      23 UNK        -0.1150 
     13 C13        -1.6582  -19.3559  -51.0312 C.ar      23 UNK        -0.0193 
     14 C14        -1.3345  -18.0023  -51.1369 C.ar      23 UNK        -0.1150 
     15 C15        -0.5707  -20.4163  -51.0744 C.3       23 UNK        -0.0205 
     16 S16         0.6347  -20.2440  -49.7153 S.3       23 UNK        -0.2404 
     17 C17        -0.4221  -20.0191  -48.2425 C.3       23 UNK        -0.0398 
     18 CA         -0.5482  -21.2884  -47.3699 C.3       11 UNK         0.1400 
     19 N          -0.7202  -20.9201  -45.9614 N.am      11 UNK        -0.5000 
     20 C          -0.8321  -21.7595  -44.9234 C.2       10 UNK         0.5000 
     21 O          -0.7495  -22.9827  -45.0252 O.2       10 UNK        -0.5000 
     22 CA         -1.1490  -21.1356  -43.5508 C.3       10 UNK         0.1400 
     23 CB          0.1283  -21.0591  -42.7060 C.3       10 UNK        -0.1800 
     24 N          -1.7704  -19.8061  -43.6131 N.am      10 UNK        -0.5000 
     25 C          -2.9158  -19.5106  -44.2481 C.2       9 UNK         0.5000 
     26 O          -3.5790  -20.3410  -44.8709 O.2       9 UNK        -0.5000 
     27 CA         -3.3950  -18.0480  -44.2202 C.3       9 UNK         0.1400 
     28 CB         -4.5515  -17.8859  -43.2226 C.3       9 UNK        -0.1800 
     29 N          -2.3623  -17.0618  -43.9007 N.am      9 UNK        -0.5000 
     30 C          -1.2854  -16.7593  -44.6335 C.2       8 UNK         0.5000 
     31 O          -0.9468  -17.3806  -45.6432 O.2       8 UNK        -0.5000 
     32 CA         -0.4382  -15.5591  -44.1621 C.3       8 UNK         0.1400 
     33 CB         -1.0961  -14.2260  -44.5642 C.3       8 UNK        -0.1800 
     34 N          -0.0826  -15.5633  -42.7366 N.am      8 UNK        -0.5000 
     35 C          -0.8740  -15.4746  -41.6557 C.2       7 UNK         0.5000 
     36 O          -2.0995  -15.3604  -41.7168 O.2       7 UNK        -0.5000 
     37 CA         -0.1835  -15.5186  -40.2733 C.3       7 UNK         0.1400 
     38 CB         -1.0950  -16.1087  -39.1773 C.3       7 UNK        -0.1800 
     39 N           1.1219  -16.1899  -40.2708 N.am      7 UNK        -0.5000 
     40 C           1.3899  -17.4633  -40.6038 C.2       6 UNK         0.5000 
     41 O           0.5276  -18.2639  -40.9655 O.2       6 UNK        -0.5000 
     42 CA          2.8662  -17.9095  -40.5471 C.3       6 UNK         0.1400 
     43 CB          3.2460  -18.7627  -41.7668 C.3       6 UNK        -0.1800 
     44 N           3.7649  -16.7567  -40.4978 N.am      6 UNK        -0.5000 
     45 C           4.5707  -16.4352  -39.4774 C.2       5 UNK         0.5000 
     46 O           4.7030  -17.1230  -38.4646 O.2       5 UNK        -0.5000 
     47 CA          5.3471  -15.1057  -39.5930 C.3       5 UNK         0.1400 
     48 CB          6.7760  -15.3625  -40.0955 C.3       5 UNK        -0.1800 
     49 N           4.7077  -14.1214  -40.4712 N.am      5 UNK        -0.5000 
     50 C           3.5002  -13.5739  -40.2733 C.2       4 UNK         0.5000 
     51 O           2.7988  -13.8044  -39.2884 O.2       4 UNK        -0.5000 
     52 CA          2.9493  -12.6745  -41.3957 C.3       4 UNK         0.1400 
     53 CB          3.2455  -11.1981  -41.0943 C.3       4 UNK        -0.1800 
     54 N           3.4505  -13.0017  -42.7353 N.am      4 UNK        -0.5000 
     55 C           3.2960  -14.1765  -43.3616 C.2       3 UNK         0.5000 
     56 O           2.7658  -15.1614  -42.8392 O.2       3 UNK        -0.5000 
     57 CA          3.8222  -14.2312  -44.8063 C.3       3 UNK         0.1400 
     58 CB          5.3629  -14.1805  -44.8609 C.3       3 UNK        -0.1800 
     59 N           3.2719  -15.3604  -45.5633 N.am      3 UNK        -0.5000 
     60 C           3.5941  -16.6618  -45.4995 C.2       2 UNK         0.5000 
     61 O           4.5135  -17.1101  -44.8141 O.2       2 UNK        -0.5000 
     62 CA          2.7486  -17.6474  -46.3399 C.3       2 UNK         0.1400 
     63 CB          2.0965  -18.7048  -45.4338 C.3       2 UNK        -0.1800 
     64 N           1.7209  -16.9970  -47.1689 N.am      2 UNK        -0.5000 
     65 C           1.9858  -16.3941  -48.3406 C.2       1 UNK         0.5000 
     66 O           3.1003  -16.4190  -48.8663 O.2       1 UNK        -0.5000 
     67 C          -1.6684  -22.2195  -47.8930 C.2       11 UNK         0.5000 
     68 O          -1.4062  -23.0793  -48.7365 O.2       11 UNK        -0.5000 
     69 N          -2.8843  -22.0779  -47.3406 N.am      12 UNK        -0.5000 
     70 CA         -4.0348  -22.9366  -47.6270 C.3       12 UNK         0.1400 
     71 CB         -5.2913  -22.3317  -46.9857 C.3       12 UNK        -0.1800 
     72 C          -3.8435  -24.3995  -47.1773 C.2       12 UNK         0.5000 
     73 O          -4.4741  -25.2881  -47.7490 O.2       12 UNK        -0.5000 
     74 N          -2.9720  -24.6273  -46.1863 N.am      13 UNK        -0.5000 
     75 CA         -2.5753  -25.9523  -45.7198 C.3       13 UNK         0.1400 
     76 CB         -2.5130  -25.9545  -44.1837 C.3       13 UNK        -0.1800 
     77 C          -1.2197  -26.3522  -46.3226 C.2       13 UNK         0.5000 
     78 O          -1.0986  -27.4518  -46.8615 O.2       13 UNK        -0.5000 
     79 N          -0.2300  -25.4519  -46.2322 N.am      14 UNK        -0.5000 
     80 CA          1.1685  -25.6933  -46.5943 C.3       14 UNK         0.1400 
     81 CB          2.0270  -24.5111  -46.1191 C.3       14 UNK        -0.1800 
     82 C           1.3967  -25.9610  -48.0921 C.2       14 UNK         0.5000 
     83 O           2.2093  -26.8225  -48.4301 O.2       14 UNK        -0.5000 
     84 N           0.6710  -25.2386  -48.9551 N.am      15 UNK        -0.5000 
     85 CA          0.7018  -25.4093  -50.4106 C.3       15 UNK         0.1400 
     86 CB          0.9322  -24.0375  -51.0646 C.3       15 UNK        -0.1800 
     87 C          -0.5911  -26.0648  -50.9344 C.2       15 UNK         0.5000 
     88 O          -0.7612  -26.1703  -52.1492 O.2       15 UNK        -0.5000 
     89 N          -1.4819  -26.4765  -50.0174 N.am      16 UNK        -0.5000 
     90 CA         -2.7965  -27.0874  -50.2528 C.3       16 UNK         0.1400 
     91 CB         -2.6413  -28.4797  -50.8997 C.3       16 UNK        -0.1800 
     92 C          -3.7818  -26.1738  -51.0185 C.2       16 UNK         0.5000 
     93 O          -4.6861  -26.6811  -51.6840 O.2       16 UNK        -0.5000 
     94 N          -3.5891  -24.8525  -50.8783 N.am      17 UNK        -0.5000 
     95 CA         -4.3011  -23.7414  -51.5142 C.3       17 UNK         0.1400 
     96 CB         -5.8211  -23.7973  -51.2667 C.3       17 UNK        -0.1800 
     97 C          -3.9631  -23.5938  -53.0092 C.2       17 UNK         0.5000 
     98 O          -4.1357  -24.5286  -53.7923 O.2       17 UNK        -0.5000 
     99 N          -3.4973  -22.3950  -53.3811 N.am      18 UNK        -0.5000 
    100 CA        -3.1173  -22.0391  -54.7496 C.3       18 UNK         0.1400 
    101 CB        -2.1747  -20.8284  -54.6893 C.3       18 UNK        -0.1800 
    102 C         -4.3222  -21.7339  -55.6607 C.2       18 UNK         0.5000 
    103 O         -4.1694  -21.7550  -56.8826 O.2       18 UNK        -0.5000 
    104 N         -5.4804  -21.4269  -55.0558 N.am      19 UNK        -0.5000 
    105 CA        -6.7724  -21.0580  -55.6502 C.3       19 UNK         0.1400 
    106 CB        -7.3209  -22.1681  -56.5664 C.3       19 UNK        -0.1800 
    107 C         -6.7592  -19.6903  -56.3583 C.2       19 UNK         0.5000 
    108 O         -7.5592  -18.8200  -56.0121 O.2       19 UNK        -0.5000 
    109 N         -5.8280  -19.5042  -57.3012 N.am      20 UNK        -0.5000 
    110 CA        -5.6269  -18.2707  -58.0634 C.3       20 UNK         0.1400 
    111 CB        -4.6100  -18.5306  -59.1849 C.3       20 UNK        -0.1800 
    112 C         -5.1775  -17.0897  -57.1837 C.2       20 UNK         0.5000 
    113 O         -5.6147  -15.9615  -57.4119 O.2       20 UNK        -0.5000 
    114 N         -4.3367  -17.3774  -56.1800 N.am      21 UNK        -0.5000 
    115 CA        -3.9027  -16.4077  -55.1724 C.3       21 UNK         0.1400 
    116 CB        -2.5665  -16.8658  -54.5695 C.3       21 UNK        -0.1800 
    117 C         -4.9543  -16.2073  -54.0641 C.2       21 UNK         0.5000 
    118 O         -4.9767  -15.1443  -53.4428 O.2       21 UNK        -0.5000 
    119 N         -5.7957  -17.2247  -53.8325 N.am      22 UNK        -0.5000 
    120 CA        -6.8920  -17.1936  -52.8534 C.3       22 UNK         0.1400 
    121 C         -8.0796  -16.3052  -53.3134 C.2       22 UNK         0.5000 
    122 N         -8.4755  -16.3713  -54.5792 N.am      22 UNK        -0.7600 
    123 O         -8.6434  -15.5568  -52.5202 O.2       22 UNK        -0.5000 
    124 C124       -7.4095  -18.6073  -52.4732 C.3       23 UNK        -0.0398 
    125 S125       -6.1171  -19.8387  -52.0916 S.3       23 UNK        -0.2404 
    126 C126       -5.4318  -19.2084  -50.5295 C.3       23 UNK        -0.0205 
    127 H127        1.8861  -11.7053  -49.2953 H         1 UNK         0.0600 
    128 H128        2.7283  -11.7052  -47.7422 H         1 UNK         0.0600 
    129 H129        1.0223  -11.2521  -47.8228 H         1 UNK         0.0600 
    130 H130        1.4109  -13.7717  -49.9742 H         1 UNK         0.3000 
    131 H131        0.8921  -15.9041  -50.0831 H         1 UNK         0.0600 
    132 H132       -0.8275  -16.8996  -48.5865 H         1 UNK         0.0800 
    133 H133       -0.6281  -15.5912  -47.4557 H         1 UNK         0.0800 
    134 H134       -2.6916  -15.0031  -51.5934 H         1 UNK         0.0800 
    135 H135       -0.9970  -15.4057  -51.5278 H         1 UNK         0.0800 
    136 H136       -4.4214  -16.6574  -50.7113 H         1 UNK         0.1150 
    137 H137       -3.2407  -20.7717  -50.7135 H         1 UNK         0.1150 
    138 H138       -0.3039  -17.7120  -51.2823 H         1 UNK         0.1150 
    139 H139       -1.0125  -21.4114  -51.0307 H         1 UNK         0.0800 
    140 H140       -0.0432  -20.3539  -52.0268 H         1 UNK         0.0800 
    141 H141        0.0567  -19.2228  -47.6755 H         1 UNK         0.0800 
    142 H142       -1.4021  -19.6116  -48.4881 H         1 UNK         0.0800 
    143 H143        0.3879  -21.8458  -47.4269 H         1 UNK         0.0600 
    144 H144       -0.8274  -19.9333  -45.7686 H         1 UNK         0.3000 
    145 H145       -1.8522  -21.8045  -43.0510 H         1 UNK         0.0600 
    146 H146       -0.0955  -20.7636  -41.6812 H         1 UNK         0.0600 
    147 H147        0.6310  -22.0262  -42.6591 H         1 UNK         0.0600 
    148 H148        0.8344  -20.3397  -43.1206 H         1 UNK         0.0600 
    149 H149       -1.2931  -19.0624  -43.1229 H         1 UNK         0.3000 
    150 H150       -3.7698  -17.8168  -45.2193 H         1 UNK         0.0600 
    151 H151       -5.3612  -18.5833  -43.4416 H         1 UNK         0.0600 
    152 H152       -4.9704  -16.8802  -43.2645 H         1 UNK         0.0600 
    153 H153       -4.2252  -18.0703  -42.1982 H         1 UNK         0.0600 
    154 H154       -2.5169  -16.4944  -43.0696 H         1 UNK         0.3000 
    155 H155        0.5099  -15.6239  -44.6965 H         1 UNK         0.0600 
    156 H156       -0.4411  -13.3843  -44.3385 H         1 UNK         0.0600 
    157 H157       -2.0435  -14.0623  -44.0507 H         1 UNK         0.0600 
    158 H158       -1.3004  -14.1958  -45.6347 H         1 UNK         0.0600 
    159 H159        0.9169  -15.6363  -42.5653 H         1 UNK         0.3000 
    160 H160        0.0152  -14.4791  -40.0090 H         1 UNK         0.0600 
    161 H161       -1.3963  -17.1308  -39.4087 H         1 UNK         0.0600 
    162 H162       -2.0047  -15.5184  -39.0621 H         1 UNK         0.0600 
    163 H163       -0.5929  -16.1175  -38.2099 H         1 UNK         0.0600 
    164 H164        1.8974  -15.6101  -39.9734 H         1 UNK         0.3000 
    165 H165        2.9762  -18.5239  -39.6517 H         1 UNK         0.0600 
    166 H166        3.0594  -18.2238  -42.6952 H         1 UNK         0.0600 
    167 H167        4.3009  -19.0365  -41.7457 H         1 UNK         0.0600 
    168 H168        2.6733  -19.6893  -41.7938 H         1 UNK         0.0600 
    169 H169        3.7004  -16.1269  -41.2914 H         1 UNK         0.3000 
    170 H170        5.4058  -14.6725  -38.5925 H         1 UNK         0.0600 
    171 H171        7.2959  -16.0720  -39.4503 H         1 UNK         0.0600 
    172 H172        6.7785  -15.7743  -41.1057 H         1 UNK         0.0600 
    173 H173        7.3629  -14.4439  -40.1047 H         1 UNK         0.0600 
    174 H174        5.2046  -13.8806  -41.3160 H         1 UNK         0.3000 
    175 H175        1.8656  -12.8082  -41.4125 H         1 UNK         0.0600 
    176 H176        4.3169  -10.9934  -41.1001 H         1 UNK         0.0600 
    177 H177        2.7735  -10.5429  -41.8267 H         1 UNK         0.0600 
    178 H178        2.8622  -10.9143  -40.1132 H         1 UNK         0.0600 
    179 H179        3.9013  -12.2465  -43.2316 H         1 UNK         0.3000 
    180 H180        3.4473  -13.3397  -45.3106 H         1 UNK         0.0600 
    181 H181        5.8216  -14.9575  -44.2489 H         1 UNK         0.0600 
    182 H182        5.7356  -13.2236  -44.4944 H         1 UNK         0.0600 
    183 H183        5.7261  -14.2972  -45.8820 H         1 UNK         0.0600 
    184 H184        2.4785  -15.1033  -46.1420 H         1 UNK         0.3000 
    185 H185        3.4439  -18.1731  -46.9977 H         1 UNK         0.0600 
    186 H186        1.5756  -19.4581  -46.0186 H         1 UNK         0.0600 
    187 H187        2.8495  -19.2374  -44.8522 H         1 UNK         0.0600 
    188 H188        1.3938  -18.2627  -44.7282 H         1 UNK         0.0600 
    189 H189        0.7883  -16.9560  -46.7746 H         1 UNK         0.3000 
    190 H190       -3.0190  -21.3805  -46.6159 H         1 UNK         0.3000 
    191 H191       -4.1817  -22.9427  -48.7061 H         1 UNK         0.0600 
    192 H192       -5.4603  -21.3119  -47.3319 H         1 UNK         0.0600 
    193 H193       -6.1781  -22.9133  -47.2410 H         1 UNK         0.0600 
    194 H194       -5.2153  -22.3089  -45.8980 H         1 UNK         0.0600 
    195 H195       -2.4646  -23.8439  -45.7931 H         1 UNK         0.3000 
    196 H196       -3.3112  -26.7003  -46.0227 H         1 UNK         0.0600 
    197 H197       -2.2147  -26.9338  -43.8072 H         1 UNK         0.0600 
    198 H198       -3.4872  -25.7238  -43.7526 H         1 UNK         0.0600 
    199 H199       -1.7988  -25.2243  -43.8015 H         1 UNK         0.0600 
    200 H200       -0.4206  -24.5640  -45.7711 H         1 UNK         0.3000 
    201 H201        1.4949  -26.5829  -46.0517 H         1 UNK         0.0600 
    202 H202        1.9303  -24.3599  -45.0437 H         1 UNK         0.0600 
    203 H203        1.7432  -23.5824  -46.6133 H         1 UNK         0.0600 
    204 H204        3.0830  -24.6851  -46.3294 H         1 UNK         0.0600 
    205 H205        0.0205  -24.5421  -48.6062 H         1 UNK         0.3000 
    206 H206        1.5269  -26.0603  -50.7056 H         1 UNK         0.0600 
    207 H207        1.8272  -23.5550  -50.6717 H         1 UNK         0.0600 
    208 H208        1.0599  -24.1316  -52.1435 H         1 UNK         0.0600 
    209 H209        0.0899  -23.3712  -50.8928 H         1 UNK         0.0600 
    210 H210       -1.2197  -26.3780  -49.0464 H         1 UNK         0.3000 
    211 H211       -3.2356  -27.2373  -49.2656 H         1 UNK         0.0600 
    212 H212       -2.2727  -28.4119  -51.9236 H         1 UNK         0.0600 
    213 H213       -3.5958  -29.0062  -50.9307 H         1 UNK         0.0600 
    214 H214       -1.9486  -29.1022  -50.3332 H         1 UNK         0.0600 
    215 H215       -2.7966  -24.5784  -50.3134 H         1 UNK         0.3000 
    216 H216       -3.9325  -22.8532  -51.0049 H         1 UNK         0.0600 
    217 H217       -6.0461  -23.9119  -50.2062 H         1 UNK         0.0600 
    218 H218       -6.2932  -24.6216  -51.8014 H         1 UNK         0.0600 
    219 H219       -6.3025  -22.8794  -51.6044 H         1 UNK         0.0600 
    220 H220       -3.3949  -21.6660  -52.6920 H         1 UNK         0.3000 
    221 H221       -2.5729  -22.8742  -55.1957 H         1 UNK         0.0600 
    222 H222       -2.6428  -19.9884  -54.1782 H         1 UNK         0.0600 
    223 H223       -1.2552  -21.0729  -54.1576 H         1 UNK         0.0600 
    224 H224       -1.8911  -20.4944  -55.6884 H         1 UNK         0.0600 
    225 H225       -5.4682  -21.4077  -54.0455 H         1 UNK         0.3000 
    226 H226       -7.4642  -20.9676  -54.8115 H         1 UNK         0.0600 
    227 H227       -7.3819  -23.1189  -56.0369 H         1 UNK         0.0600 
    228 H228       -8.3261  -21.9231  -56.9117 H         1 UNK         0.0600 
    229 H229       -6.7023  -22.3173  -57.4515 H         1 UNK         0.0600 
    230 H230       -5.1882  -20.2737  -57.4812 H         1 UNK         0.3000 
    231 H231       -6.5806  -17.9997  -58.5209 H         1 UNK         0.0600 
    232 H232       -4.4479  -17.6322  -59.7819 H         1 UNK         0.0600 
    233 H233       -4.9607  -19.3106  -59.8610 H         1 UNK         0.0600 
    234 H234       -3.6428  -18.8415  -58.7879 H         1 UNK         0.0600 
    235 H235       -4.0118  -18.3267  -56.0776 H         1 UNK         0.3000 
    236 H236       -3.7384  -15.4438  -55.6590 H         1 UNK         0.0600 
    237 H237       -1.8363  -17.1020  -55.3435 H         1 UNK         0.0600 
    238 H238       -2.1365  -16.0798  -53.9486 H         1 UNK         0.0600 
    239 H239       -2.6895  -17.7443  -53.9373 H         1 UNK         0.0600 
    240 H240       -5.7306  -18.0519  -54.4030 H         1 UNK         0.3000 
    241 H241       -6.4970  -16.7407  -51.9428 H         1 UNK         0.0600 
    242 H242       -8.0608  -17.0490  -55.2106 H         1 UNK         0.3800 
    243 H243       -9.2425  -15.7983  -54.8931 H         1 UNK         0.3800 
    244 H244       -8.0078  -19.0208  -53.2865 H         1 UNK         0.0800 
    245 H245       -8.0832  -18.5421  -51.6170 H         1 UNK         0.0800 
    246 H246       -6.0387  -18.3906  -50.1389 H         1 UNK         0.0800 
    247 H247       -5.4708  -20.0004  -49.7801 H         1 UNK         0.0800 
@<TRIPOS>BOND
     1    1    2 1    
     2    1  127 1    
     3    1  128 1    
     4    1  129 1    
     5    2    3 2    
     6    2    4 am   BACKBONE|DICT|INTERRES
     7    4    5 1    
     8    4  130 1    
     9    5    6 1    
    10    5   65 1    
    11    5  131 1    
    12    6    7 1    
    13    6  132 1    
    14    6  133 1    
    15    7    8 1    
    16    8    9 1    
    17    8  134 1    
    18    8  135 1    
    19    9   10 ar   
    20    9   14 ar   
    21   10   11 ar   
    22   10  136 1    
    23   11   12 ar   
    24   11  126 1    
    25   12   13 ar   
    26   12  137 1    
    27   13   14 ar   
    28   13   15 1    
    29   14  138 1    
    30   15   16 1    
    31   15  139 1    
    32   15  140 1    
    33   16   17 1    
    34   17   18 1    
    35   17  141 1    
    36   17  142 1    
    37   18   19 1    
    38   18   67 1    
    39   18  143 1    
    40   19   20 am   BACKBONE|DICT|INTERRES
    41   19  144 1    
    42   20   21 2    
    43   20   22 1    
    44   22   23 1    
    45   22   24 1    
    46   22  145 1    
    47   23  146 1    
    48   23  147 1    
    49   23  148 1    
    50   24   25 am   BACKBONE|DICT|INTERRES
    51   24  149 1    
    52   25   26 2    
    53   25   27 1    
    54   27   28 1    
    55   27   29 1    
    56   27  150 1    
    57   28  151 1    
    58   28  152 1    
    59   28  153 1    
    60   29   30 am   BACKBONE|DICT|INTERRES
    61   29  154 1    
    62   30   31 2    
    63   30   32 1    
    64   32   33 1    
    65   32   34 1    
    66   32  155 1    
    67   33  156 1    
    68   33  157 1    
    69   33  158 1    
    70   34   35 am   BACKBONE|DICT|INTERRES
    71   34  159 1    
    72   35   36 2    
    73   35   37 1    
    74   37   38 1    
    75   37   39 1    
    76   37  160 1    
    77   38  161 1    
    78   38  162 1    
    79   38  163 1    
    80   39   40 am   BACKBONE|DICT|INTERRES
    81   39  164 1    
    82   40   41 2    
    83   40   42 1    
    84   42   43 1    
    85   42   44 1    
    86   42  165 1    
    87   43  166 1    
    88   43  167 1    
    89   43  168 1    
    90   44   45 am   BACKBONE|DICT|INTERRES
    91   44  169 1    
    92   45   46 2    
    93   45   47 1    
    94   47   48 1    
    95   47   49 1    
    96   47  170 1    
    97   48  171 1    
    98   48  172 1    
    99   48  173 1    
   100   49   50 am   BACKBONE|DICT|INTERRES
   101   49  174 1    
   102   50   51 2    
   103   50   52 1    
   104   52   53 1    
   105   52   54 1    
   106   52  175 1    
   107   53  176 1    
   108   53  177 1    
   109   53  178 1    
   110   54   55 am   BACKBONE|DICT|INTERRES
   111   54  179 1    
   112   55   56 2    
   113   55   57 1    
   114   57   58 1    
   115   57   59 1    
   116   57  180 1    
   117   58  181 1    
   118   58  182 1    
   119   58  183 1    
   120   59   60 am   BACKBONE|DICT|INTERRES
   121   59  184 1    
   122   60   61 2    
   123   60   62 1    
   124   62   63 1    
   125   62   64 1    
   126   62  185 1    
   127   63  186 1    
   128   63  187 1    
   129   63  188 1    
   130   64   65 am   BACKBONE|DICT|INTERRES
   131   64  189 1    
   132   65   66 2    
   133   67   68 2    
   134   67   69 am   BACKBONE|DICT|INTERRES
   135   69   70 1    
   136   69  190 1    
   137   70   71 1    
   138   70   72 1    
   139   70  191 1    
   140   71  192 1    
   141   71  193 1    
   142   71  194 1    
   143   72   73 2    
   144   72   74 am   BACKBONE|DICT|INTERRES
   145   74   75 1    
   146   74  195 1    
   147   75   76 1    
   148   75   77 1    
   149   75  196 1    
   150   76  197 1    
   151   76  198 1    
   152   76  199 1    
   153   77   78 2    
   154   77   79 am   BACKBONE|DICT|INTERRES
   155   79   80 1    
   156   79  200 1    
   157   80   81 1    
   158   80   82 1    
   159   80  201 1    
   160   81  202 1    
   161   81  203 1    
   162   81  204 1    
   163   82   83 2    
   164   82   84 am   BACKBONE|DICT|INTERRES
   165   84   85 1    
   166   84  205 1    
   167   85   86 1    
   168   85   87 1    
   169   85  206 1    
   170   86  207 1    
   171   86  208 1    
   172   86  209 1    
   173   87   88 2    
   174   87   89 am   BACKBONE|DICT|INTERRES
   175   89   90 1    
   176   89  210 1    
   177   90   91 1    
   178   90   92 1    
   179   90  211 1    
   180   91  212 1    
   181   91  213 1    
   182   91  214 1    
   183   92   93 2    
   184   92   94 am   BACKBONE|DICT|INTERRES
   185   94   95 1    
   186   94  215 1    
   187   95   96 1    
   188   95   97 1    
   189   95  216 1    
   190   96  217 1    
   191   96  218 1    
   192   96  219 1    
   193   97   98 2    
   194   97   99 am   BACKBONE|DICT|INTERRES
   195   99  100 1    
   196   99  220 1    
   197  100  101 1    
   198  100  102 1    
   199  100  221 1    
   200  101  222 1    
   201  101  223 1    
   202  101  224 1    
   203  102  103 2    
   204  102  104 am   BACKBONE|DICT|INTERRES
   205  104  105 1    
   206  104  225 1    
   207  105  106 1    
   208  105  107 1    
   209  105  226 1    
   210  106  227 1    
   211  106  228 1    
   212  106  229 1    
   213  107  108 2    
   214  107  109 am   BACKBONE|DICT|INTERRES
   215  109  110 1    
   216  109  230 1    
   217  110  111 1    
   218  110  112 1    
   219  110  231 1    
   220  111  232 1    
   221  111  233 1    
   222  111  234 1    
   223  112  113 2    
   224  112  114 am   BACKBONE|DICT|INTERRES
   225  114  115 1    
   226  114  235 1    
   227  115  116 1    
   228  115  117 1    
   229  115  236 1    
   230  116  237 1    
   231  116  238 1    
   232  116  239 1    
   233  117  118 2    
   234  117  119 am   BACKBONE|DICT|INTERRES
   235  119  120 1    
   236  119  240 1    
   237  120  121 1    
   238  120  124 1    
   239  120  241 1    
   240  121  122 am   BACKBONE|DICT|INTERRES
   241  121  123 2    
   242  122  242 1    
   243  122  243 1    
   244  124  125 1    
   245  124  244 1    
   246  124  245 1    
   247  125  126 1    
   248  126  246 1    
   249  126  247 1    
@<TRIPOS>SUBSTRUCTURE
     1 UNK         1 GROUP             0       ****    0 ROOT    
