@<TRIPOS>MOLECULE
3R540
247   249    1
SMALL
USER_CHARGES


@<TRIPOS>ATOM
      1 CA          7.2581  -10.8402  -50.5394 C.3       0 UNK        -0.1800 
      2 C           6.1581  -11.8526  -50.8265 C.2       0 UNK         0.5000 
      3 O           6.0471  -12.3354  -51.9536 O.2       0 UNK        -0.5000 
      4 N           5.3479  -12.1758  -49.8150 N.am      1 UNK        -0.5000 
      5 CA          4.2582  -13.1471  -49.8678 C.3       1 UNK         0.1400 
      6 C6          3.0013  -12.5848  -50.5861 C.3       23 UNK        -0.0398 
      7 S7          1.9152  -13.9041  -51.2276 S.3       23 UNK        -0.2404 
      8 C8          0.3933  -13.6056  -50.2765 C.3       23 UNK        -0.0205 
      9 C9         -0.6170  -14.7199  -50.4995 C.ar      23 UNK        -0.0193 
     10 C10        -1.3573  -14.7735  -51.6839 C.ar      23 UNK        -0.1150 
     11 C11        -2.2860  -15.7972  -51.8948 C.ar      23 UNK        -0.0193 
     12 C12        -2.4716  -16.7742  -50.9123 C.ar      23 UNK        -0.1150 
     13 C13        -1.7388  -16.7288  -49.7235 C.ar      23 UNK        -0.0193 
     14 C14        -0.8171  -15.6972  -49.5211 C.ar      23 UNK        -0.1150 
     15 C15        -1.9441  -17.7825  -48.6490 C.3       23 UNK        -0.0205 
     16 S16        -0.7806  -19.1674  -48.8586 S.3       23 UNK        -0.2404 
     17 C17        -0.4415  -19.6040  -47.1217 C.3       23 UNK        -0.0398 
     18 CA         -0.5126  -21.1165  -46.8069 C.3       11 UNK         0.1400 
     19 N           0.1409  -21.3976  -45.5254 N.am      11 UNK        -0.5000 
     20 C           0.3801  -22.6070  -45.0047 C.2       10 UNK         0.5000 
     21 O           0.1152  -23.6614  -45.5769 O.2       10 UNK        -0.5000 
     22 CA          0.9666  -22.6427  -43.5805 C.3       10 UNK         0.1400 
     23 CB          2.4905  -22.4515  -43.6007 C.3       10 UNK        -0.1800 
     24 N           0.3524  -21.6449  -42.7019 N.am      10 UNK        -0.5000 
     25 C          -0.9274  -21.6827  -42.3035 C.2       9 UNK         0.5000 
     26 O          -1.7050  -22.5913  -42.5963 O.2       9 UNK        -0.5000 
     27 CA         -1.4384  -20.4802  -41.4871 C.3       9 UNK         0.1400 
     28 CB         -1.0135  -20.5953  -40.0159 C.3       9 UNK        -0.1800 
     29 N          -0.9860  -19.1989  -42.0314 N.am      9 UNK        -0.5000 
     30 C          -1.3159  -18.7344  -43.2454 C.2       8 UNK         0.5000 
     31 O          -2.0944  -19.3074  -44.0052 O.2       8 UNK        -0.5000 
     32 CA         -0.6168  -17.4486  -43.7178 C.3       8 UNK         0.1400 
     33 CB         -1.3489  -16.2045  -43.1947 C.3       8 UNK        -0.1800 
     34 N           0.7880  -17.3969  -43.3203 N.am      8 UNK        -0.5000 
     35 C           1.7376  -18.2600  -43.7007 C.2       7 UNK         0.5000 
     36 O           1.5353  -19.2028  -44.4619 O.2       7 UNK        -0.5000 
     37 CA          3.1361  -18.0653  -43.0939 C.3       7 UNK         0.1400 
     38 CB          3.9234  -16.9789  -43.8411 C.3       7 UNK        -0.1800 
     39 N           3.0583  -17.7263  -41.6753 N.am      7 UNK        -0.5000 
     40 C           2.7371  -18.5973  -40.7099 C.2       6 UNK         0.5000 
     41 O           2.5133  -19.7915  -40.9127 O.2       6 UNK        -0.5000 
     42 CA          2.6202  -18.0273  -39.2841 C.3       6 UNK         0.1400 
     43 CB          3.9960  -17.9889  -38.6022 C.3       6 UNK        -0.1800 
     44 N           2.0280  -16.6873  -39.2563 N.am      6 UNK        -0.5000 
     45 C           0.7464  -16.4293  -39.5497 C.2       5 UNK         0.5000 
     46 O          -0.0681  -17.2960  -39.8695 O.2       5 UNK        -0.5000 
     47 CA          0.3101  -14.9507  -39.5182 C.3       5 UNK         0.1400 
     48 CB          0.0118  -14.5086  -38.0776 C.3       5 UNK        -0.1800 
     49 N           1.2546  -14.0062  -40.1311 N.am      5 UNK        -0.5000 
     50 C           1.7290  -14.0949  -41.3806 C.2       4 UNK         0.5000 
     51 O           1.5644  -15.0753  -42.1036 O.2       4 UNK        -0.5000 
     52 CA          2.5446  -12.9089  -41.9216 C.3       4 UNK         0.1400 
     53 CB          4.0454  -13.1513  -41.7013 C.3       4 UNK        -0.1800 
     54 N           2.2979  -12.7246  -43.3545 N.am      4 UNK        -0.5000 
     55 C           1.1389  -12.3031  -43.8829 C.2       3 UNK         0.5000 
     56 O           0.1853  -11.9139  -43.2071 O.2       3 UNK        -0.5000 
     57 CA          1.0183  -12.3060  -45.4189 C.3       3 UNK         0.1400 
     58 CB          1.2810  -10.9006  -45.9817 C.3       3 UNK        -0.1800 
     59 N           1.9405  -13.2436  -46.0598 N.am      3 UNK        -0.5000 
     60 C           1.6860  -14.5330  -46.3096 C.2       2 UNK         0.5000 
     61 O           0.6196  -15.0813  -46.0314 O.2       2 UNK        -0.5000 
     62 CA          2.8088  -15.3228  -47.0219 C.3       2 UNK         0.1400 
     63 CB          2.4257  -16.7880  -47.3008 C.3       2 UNK        -0.1800 
     64 N           3.2265  -14.7093  -48.2850 N.am      2 UNK        -0.5000 
     65 C           3.9646  -13.6019  -48.4258 C.2       1 UNK         0.5000 
     66 O           4.3929  -12.9436  -47.4716 O.2       1 UNK        -0.5000 
     67 C          -1.9617  -21.6508  -46.8512 C.2       11 UNK         0.5000 
     68 O          -2.3706  -22.2133  -47.8651 O.2       11 UNK        -0.5000 
     69 N          -2.7022  -21.4953  -45.7445 N.am      12 UNK        -0.5000 
     70 CA         -4.0498  -22.0342  -45.5672 C.3       12 UNK         0.1400 
     71 CB         -4.6984  -21.4013  -44.3272 C.3       12 UNK        -0.1800 
     72 C          -4.0670  -23.5708  -45.4728 C.2       12 UNK         0.5000 
     73 O          -4.9619  -24.1974  -46.0408 O.2       12 UNK        -0.5000 
     74 N          -3.0797  -24.1495  -44.7716 N.am      13 UNK        -0.5000 
     75 CA         -2.8844  -25.5966  -44.6539 C.3       13 UNK         0.1400 
     76 CB         -1.8297  -25.8955  -43.5777 C.3       13 UNK        -0.1800 
     77 C          -2.5062  -26.2428  -45.9995 C.2       13 UNK         0.5000 
     78 O          -3.0934  -27.2576  -46.3785 O.2       13 UNK        -0.5000 
     79 N          -1.5804  -25.6093  -46.7309 N.am      14 UNK        -0.5000 
     80 CA         -1.2183  -25.9234  -48.1126 C.3       14 UNK         0.1400 
     81 CB          0.2013  -25.3965  -48.3876 C.3       14 UNK        -0.1800 
     82 C          -2.2625  -25.3401  -49.0860 C.2       14 UNK         0.5000 
     83 O          -1.9374  -24.4824  -49.9089 O.2       14 UNK        -0.5000 
     84 N          -3.5090  -25.8171  -48.9573 N.am      15 UNK        -0.5000 
     85 CA         -4.7317  -25.2951  -49.5779 C.3       15 UNK         0.1400 
     86 CB         -5.9181  -26.1693  -49.1461 C.3       15 UNK        -0.1800 
     87 C          -4.7059  -25.1432  -51.1108 C.2       15 UNK         0.5000 
     88 O          -5.4994  -24.3714  -51.6459 O.2       15 UNK        -0.5000 
     89 N          -3.7756  -25.8264  -51.7910 N.am      16 UNK        -0.5000 
     90 CA         -3.4588  -25.6257  -53.2057 C.3       16 UNK         0.1400 
     91 CB         -2.3630  -26.6174  -53.6220 C.3       16 UNK        -0.1800 
     92 C          -3.0352  -24.1795  -53.5420 C.2       16 UNK         0.5000 
     93 O          -3.2949  -23.7233  -54.6536 O.2       16 UNK        -0.5000 
     94 N          -2.4287  -23.4688  -52.5813 N.am      17 UNK        -0.5000 
     95 CA         -2.1551  -22.0390  -52.6820 C.3       17 UNK         0.1400 
     96 CB         -1.0413  -21.6523  -51.6938 C.3       17 UNK        -0.1800 
     97 C          -3.4406  -21.2263  -52.4471 C.2       17 UNK         0.5000 
     98 O          -3.9539  -20.5906  -53.3729 O.2       17 UNK        -0.5000 
     99 N          -3.9365  -21.2820  -51.2039 N.am      18 UNK        -0.5000 
    100 CA        -5.0131  -20.4444  -50.6760 C.3       18 UNK         0.1400 
    101 CB        -5.1050  -20.6572  -49.1580 C.3       18 UNK        -0.1800 
    102 C         -6.3966  -20.6347  -51.3242 C.2       18 UNK         0.5000 
    103 O         -7.1904  -19.6928  -51.2923 O.2       18 UNK        -0.5000 
    104 N         -6.6723  -21.8143  -51.8926 N.am      19 UNK        -0.5000 
    105 CA        -7.9872  -22.1868  -52.4139 C.3       19 UNK         0.1400 
    106 CB        -8.6785  -23.1209  -51.4018 C.3       19 UNK        -0.1800 
    107 C         -7.9317  -22.7957  -53.8277 C.2       19 UNK         0.5000 
    108 O         -8.9093  -23.4279  -54.2338 O.2       19 UNK        -0.5000 
    109 N         -6.8371  -22.5882  -54.5760 N.am      20 UNK        -0.5000 
    110 CA        -6.7474  -23.0039  -55.9785 C.3       20 UNK         0.1400 
    111 CB        -6.3388  -24.4828  -56.1104 C.3       20 UNK        -0.1800 
    112 C         -5.8636  -22.0644  -56.8098 C.2       20 UNK         0.5000 
    113 O         -6.3791  -21.4327  -57.7335 O.2       20 UNK        -0.5000 
    114 N         -4.5611  -21.9864  -56.4959 N.am      21 UNK        -0.5000 
    115 CA        -3.5816  -21.2110  -57.2705 C.3       21 UNK         0.1400 
    116 CB        -2.1568  -21.5290  -56.7970 C.3       21 UNK        -0.1800 
    117 C         -3.8315  -19.6926  -57.2354 C.2       21 UNK         0.5000 
    118 O         -3.6681  -19.0274  -58.2597 O.2       21 UNK        -0.5000 
    119 N         -4.2557  -19.1839  -56.0753 N.am      22 UNK        -0.5000 
    120 CA        -4.7189  -17.8013  -55.8941 C.3       22 UNK         0.1400 
    121 C         -5.7797  -17.6430  -54.7723 C.2       22 UNK         0.5000 
    122 N         -5.8713  -18.5545  -53.8134 N.am      22 UNK        -0.7600 
    123 O         -6.5478  -16.6853  -54.7844 O.2       22 UNK        -0.5000 
    124 C124       -3.5615  -16.7744  -55.7733 C.3       23 UNK        -0.0398 
    125 S125       -2.4442  -17.0556  -54.3538 S.3       23 UNK        -0.2404 
    126 C126       -3.1033  -15.8374  -53.1741 C.3       23 UNK        -0.0205 
    127 H127        7.1458   -9.9704  -51.1866 H         1 UNK         0.0600 
    128 H128        8.2355  -11.2839  -50.7288 H         1 UNK         0.0600 
    129 H129        7.2343  -10.4988  -49.5041 H         1 UNK         0.0600 
    130 H130        5.4977  -11.7929  -48.8885 H         1 UNK         0.3000 
    131 H131        4.6267  -14.0198  -50.4119 H         1 UNK         0.0600 
    132 H132        2.4469  -11.9014  -49.9402 H         1 UNK         0.0800 
    133 H133        3.2984  -11.9903  -51.4508 H         1 UNK         0.0800 
    134 H134       -0.0407  -12.6504  -50.5761 H         1 UNK         0.0800 
    135 H135        0.6325  -13.5180  -49.2154 H         1 UNK         0.0800 
    136 H136       -1.2058  -14.0181  -52.4424 H         1 UNK         0.1150 
    137 H137       -3.1845  -17.5694  -51.0767 H         1 UNK         0.1150 
    138 H138       -0.2566  -15.6565  -48.5985 H         1 UNK         0.1150 
    139 H139       -1.8136  -17.3137  -47.6725 H         1 UNK         0.0800 
    140 H140       -2.9665  -18.1620  -48.6733 H         1 UNK         0.0800 
    141 H141       -1.1057  -19.0542  -46.4564 H         1 UNK         0.0800 
    142 H142        0.5619  -19.2331  -46.9119 H         1 UNK         0.0800 
    143 H143        0.0546  -21.6513  -47.5717 H         1 UNK         0.0600 
    144 H144        0.4675  -20.5868  -45.0042 H         1 UNK         0.3000 
    145 H145        0.7592  -23.6296  -43.1618 H         1 UNK         0.0600 
    146 H146        2.7753  -21.4837  -44.0126 H         1 UNK         0.0600 
    147 H147        2.9093  -22.5224  -42.5967 H         1 UNK         0.0600 
    148 H148        2.9698  -23.2194  -44.2090 H         1 UNK         0.0600 
    149 H149        0.9297  -20.8628  -42.4220 H         1 UNK         0.3000 
    150 H150       -2.5295  -20.4927  -41.5271 H         1 UNK         0.0600 
    151 H151       -1.3527  -21.5376  -39.5838 H         1 UNK         0.0600 
    152 H152       -1.4425  -19.7904  -39.4187 H         1 UNK         0.0600 
    153 H153        0.0700  -20.5526  -39.9033 H         1 UNK         0.0600 
    154 H154       -0.3858  -18.6349  -41.4395 H         1 UNK         0.3000 
    155 H155       -0.6494  -17.4247  -44.8082 H         1 UNK         0.0600 
    156 H156       -0.8901  -15.2907  -43.5736 H         1 UNK         0.0600 
    157 H157       -2.3916  -16.2022  -43.5141 H         1 UNK         0.0600 
    158 H158       -1.3368  -16.1586  -42.1059 H         1 UNK         0.0600 
    159 H159        1.0609  -16.6031  -42.7412 H         1 UNK         0.3000 
    160 H160        3.6813  -19.0065  -43.1944 H         1 UNK         0.0600 
    161 H161        4.0920  -17.2720  -44.8773 H         1 UNK         0.0600 
    162 H162        4.9024  -16.8193  -43.3892 H         1 UNK         0.0600 
    163 H163        3.3969  -16.0241  -43.8460 H         1 UNK         0.0600 
    164 H164        3.1468  -16.7492  -41.4365 H         1 UNK         0.3000 
    165 H165        1.9752  -18.6977  -38.7118 H         1 UNK         0.0600 
    166 H166        3.9133  -17.6602  -37.5661 H         1 UNK         0.0600 
    167 H167        4.4540  -18.9789  -38.5925 H         1 UNK         0.0600 
    168 H168        4.6826  -17.3144  -39.1153 H         1 UNK         0.0600 
    169 H169        2.6345  -15.9181  -39.0124 H         1 UNK         0.3000 
    170 H170       -0.6194  -14.8815  -40.0866 H         1 UNK         0.0600 
    171 H171       -0.7011  -15.1829  -37.6009 H         1 UNK         0.0600 
    172 H172        0.9137  -14.4973  -37.4644 H         1 UNK         0.0600 
    173 H173       -0.4238  -13.5095  -38.0532 H         1 UNK         0.0600 
    174 H174        1.4616  -13.1766  -39.5937 H         1 UNK         0.3000 
    175 H175        2.2484  -11.9994  -41.3951 H         1 UNK         0.0600 
    176 H176        4.3885  -14.0510  -42.2142 H         1 UNK         0.0600 
    177 H177        4.6378  -12.3116  -42.0649 H         1 UNK         0.0600 
    178 H178        4.2709  -13.2717  -40.6409 H         1 UNK         0.0600 
    179 H179        3.0140  -13.0550  -43.9825 H         1 UNK         0.3000 
    180 H180       -0.0082  -12.5836  -45.6681 H         1 UNK         0.0600 
    181 H181        2.2976  -10.5661  -45.7712 H         1 UNK         0.0600 
    182 H182        0.5972  -10.1705  -45.5467 H         1 UNK         0.0600 
    183 H183        1.1371  -10.8764  -47.0621 H         1 UNK         0.0600 
    184 H184        2.8380  -12.8761  -46.3636 H         1 UNK         0.3000 
    185 H185        3.6656  -15.3267  -46.3458 H         1 UNK         0.0600 
    186 H186        3.2807  -17.3546  -47.6695 H         1 UNK         0.0600 
    187 H187        2.0774  -17.2846  -46.3969 H         1 UNK         0.0600 
    188 H188        1.6299  -16.8680  -48.0409 H         1 UNK         0.0600 
    189 H189        2.8842  -15.1588  -49.1231 H         1 UNK         0.3000 
    190 H190       -2.3280  -20.9464  -44.9756 H         1 UNK         0.3000 
    191 H191       -4.6438  -21.7502  -46.4377 H         1 UNK         0.0600 
    192 H192       -4.1356  -21.6217  -43.4199 H         1 UNK         0.0600 
    193 H193       -5.7134  -21.7740  -44.1839 H         1 UNK         0.0600 
    194 H194       -4.7605  -20.3174  -44.4261 H         1 UNK         0.0600 
    195 H195       -2.4163  -23.5577  -44.2835 H         1 UNK         0.3000 
    196 H196       -3.8298  -26.0356  -44.3287 H         1 UNK         0.0600 
    197 H197       -0.8569  -25.4773  -43.8352 H         1 UNK         0.0600 
    198 H198       -1.7001  -26.9705  -43.4476 H         1 UNK         0.0600 
    199 H199       -2.1247  -25.4837  -42.6123 H         1 UNK         0.0600 
    200 H200       -1.1265  -24.7898  -46.3321 H         1 UNK         0.3000 
    201 H201       -1.2064  -27.0071  -48.2445 H         1 UNK         0.0600 
    202 H202        0.9237  -25.8290  -47.6952 H         1 UNK         0.0600 
    203 H203        0.2527  -24.3112  -48.2885 H         1 UNK         0.0600 
    204 H204        0.5241  -25.6504  -49.3979 H         1 UNK         0.0600 
    205 H205       -3.6506  -26.5089  -48.2295 H         1 UNK         0.3000 
    206 H206       -4.8838  -24.2941  -49.1691 H         1 UNK         0.0600 
    207 H207       -5.8013  -27.1992  -49.4852 H         1 UNK         0.0600 
    208 H208       -6.0229  -26.1812  -48.0608 H         1 UNK         0.0600 
    209 H209       -6.8554  -25.7907  -49.5565 H         1 UNK         0.0600 
    210 H210       -3.1537  -26.4233  -51.2668 H         1 UNK         0.3000 
    211 H211       -4.3606  -25.8478  -53.7788 H         1 UNK         0.0600 
    212 H212       -1.4436  -26.4604  -53.0564 H         1 UNK         0.0600 
    213 H213       -2.1208  -26.5090  -54.6802 H         1 UNK         0.0600 
    214 H214       -2.6828  -27.6479  -53.4667 H         1 UNK         0.0600 
    215 H215       -2.2577  -23.9031  -51.6768 H         1 UNK         0.3000 
    216 H216       -1.7903  -21.8154  -53.6836 H         1 UNK         0.0600 
    217 H217       -0.8384  -20.5814  -51.7362 H         1 UNK         0.0600 
    218 H218       -0.1115  -22.1688  -51.9318 H         1 UNK         0.0600 
    219 H219       -1.2983  -21.8970  -50.6623 H         1 UNK         0.0600 
    220 H220       -3.4508  -21.8540  -50.5264 H         1 UNK         0.3000 
    221 H221       -4.7270  -19.4057  -50.8507 H         1 UNK         0.0600 
    222 H222       -5.9058  -20.0588  -48.7214 H         1 UNK         0.0600 
    223 H223       -5.3006  -21.7014  -48.9109 H         1 UNK         0.0600 
    224 H224       -4.1795  -20.3618  -48.6649 H         1 UNK         0.0600 
    225 H225       -5.9891  -22.5679  -51.8587 H         1 UNK         0.3000 
    226 H226       -8.6136  -21.2990  -52.5187 H         1 UNK         0.0600 
    227 H227       -8.7309  -22.6625  -50.4142 H         1 UNK         0.0600 
    228 H228       -9.7013  -23.3468  -51.7053 H         1 UNK         0.0600 
    229 H229       -8.1484  -24.0684  -51.3031 H         1 UNK         0.0600 
    230 H230       -6.0746  -22.0378  -54.2051 H         1 UNK         0.3000 
    231 H231       -7.7420  -22.9164  -56.4224 H         1 UNK         0.0600 
    232 H232       -6.2376  -24.7673  -57.1583 H         1 UNK         0.0600 
    233 H233       -7.0890  -25.1387  -55.6689 H         1 UNK         0.0600 
    234 H234       -5.3913  -24.6932  -55.6227 H         1 UNK         0.0600 
    235 H235       -4.1860  -22.5702  -55.7499 H         1 UNK         0.3000 
    236 H236       -3.6637  -21.5328  -58.3108 H         1 UNK         0.0600 
    237 H237       -1.4185  -21.0547  -57.4446 H         1 UNK         0.0600 
    238 H238       -1.9604  -22.6011  -56.8099 H         1 UNK         0.0600 
    239 H239       -1.9840  -21.1617  -55.7872 H         1 UNK         0.0600 
    240 H240       -4.3235  -19.7932  -55.2700 H         1 UNK         0.3000 
    241 H241       -5.2668  -17.5422  -56.8026 H         1 UNK         0.0600 
    242 H242       -6.5812  -18.4538  -53.1024 H         1 UNK         0.3800 
    243 H243       -5.1804  -19.2927  -53.7177 H         1 UNK         0.3800 
    244 H244       -3.9586  -15.7588  -55.7362 H         1 UNK         0.0800 
    245 H245       -2.9536  -16.8084  -56.6779 H         1 UNK         0.0800 
    246 H246       -4.1384  -16.0812  -52.9323 H         1 UNK         0.0800 
    247 H247       -3.1196  -14.8512  -53.6408 H         1 UNK         0.0800 
@<TRIPOS>BOND
     1    1    2 1    
     2    1  127 1    
     3    1  128 1    
     4    1  129 1    
     5    2    3 2    
     6    2    4 am   BACKBONE|DICT|INTERRES
     7    4    5 1    
     8    4  130 1    
     9    5    6 1    
    10    5   65 1    
    11    5  131 1    
    12    6    7 1    
    13    6  132 1    
    14    6  133 1    
    15    7    8 1    
    16    8    9 1    
    17    8  134 1    
    18    8  135 1    
    19    9   10 ar   
    20    9   14 ar   
    21   10   11 ar   
    22   10  136 1    
    23   11   12 ar   
    24   11  126 1    
    25   12   13 ar   
    26   12  137 1    
    27   13   14 ar   
    28   13   15 1    
    29   14  138 1    
    30   15   16 1    
    31   15  139 1    
    32   15  140 1    
    33   16   17 1    
    34   17   18 1    
    35   17  141 1    
    36   17  142 1    
    37   18   19 1    
    38   18   67 1    
    39   18  143 1    
    40   19   20 am   BACKBONE|DICT|INTERRES
    41   19  144 1    
    42   20   21 2    
    43   20   22 1    
    44   22   23 1    
    45   22   24 1    
    46   22  145 1    
    47   23  146 1    
    48   23  147 1    
    49   23  148 1    
    50   24   25 am   BACKBONE|DICT|INTERRES
    51   24  149 1    
    52   25   26 2    
    53   25   27 1    
    54   27   28 1    
    55   27   29 1    
    56   27  150 1    
    57   28  151 1    
    58   28  152 1    
    59   28  153 1    
    60   29   30 am   BACKBONE|DICT|INTERRES
    61   29  154 1    
    62   30   31 2    
    63   30   32 1    
    64   32   33 1    
    65   32   34 1    
    66   32  155 1    
    67   33  156 1    
    68   33  157 1    
    69   33  158 1    
    70   34   35 am   BACKBONE|DICT|INTERRES
    71   34  159 1    
    72   35   36 2    
    73   35   37 1    
    74   37   38 1    
    75   37   39 1    
    76   37  160 1    
    77   38  161 1    
    78   38  162 1    
    79   38  163 1    
    80   39   40 am   BACKBONE|DICT|INTERRES
    81   39  164 1    
    82   40   41 2    
    83   40   42 1    
    84   42   43 1    
    85   42   44 1    
    86   42  165 1    
    87   43  166 1    
    88   43  167 1    
    89   43  168 1    
    90   44   45 am   BACKBONE|DICT|INTERRES
    91   44  169 1    
    92   45   46 2    
    93   45   47 1    
    94   47   48 1    
    95   47   49 1    
    96   47  170 1    
    97   48  171 1    
    98   48  172 1    
    99   48  173 1    
   100   49   50 am   BACKBONE|DICT|INTERRES
   101   49  174 1    
   102   50   51 2    
   103   50   52 1    
   104   52   53 1    
   105   52   54 1    
   106   52  175 1    
   107   53  176 1    
   108   53  177 1    
   109   53  178 1    
   110   54   55 am   BACKBONE|DICT|INTERRES
   111   54  179 1    
   112   55   56 2    
   113   55   57 1    
   114   57   58 1    
   115   57   59 1    
   116   57  180 1    
   117   58  181 1    
   118   58  182 1    
   119   58  183 1    
   120   59   60 am   BACKBONE|DICT|INTERRES
   121   59  184 1    
   122   60   61 2    
   123   60   62 1    
   124   62   63 1    
   125   62   64 1    
   126   62  185 1    
   127   63  186 1    
   128   63  187 1    
   129   63  188 1    
   130   64   65 am   BACKBONE|DICT|INTERRES
   131   64  189 1    
   132   65   66 2    
   133   67   68 2    
   134   67   69 am   BACKBONE|DICT|INTERRES
   135   69   70 1    
   136   69  190 1    
   137   70   71 1    
   138   70   72 1    
   139   70  191 1    
   140   71  192 1    
   141   71  193 1    
   142   71  194 1    
   143   72   73 2    
   144   72   74 am   BACKBONE|DICT|INTERRES
   145   74   75 1    
   146   74  195 1    
   147   75   76 1    
   148   75   77 1    
   149   75  196 1    
   150   76  197 1    
   151   76  198 1    
   152   76  199 1    
   153   77   78 2    
   154   77   79 am   BACKBONE|DICT|INTERRES
   155   79   80 1    
   156   79  200 1    
   157   80   81 1    
   158   80   82 1    
   159   80  201 1    
   160   81  202 1    
   161   81  203 1    
   162   81  204 1    
   163   82   83 2    
   164   82   84 am   BACKBONE|DICT|INTERRES
   165   84   85 1    
   166   84  205 1    
   167   85   86 1    
   168   85   87 1    
   169   85  206 1    
   170   86  207 1    
   171   86  208 1    
   172   86  209 1    
   173   87   88 2    
   174   87   89 am   BACKBONE|DICT|INTERRES
   175   89   90 1    
   176   89  210 1    
   177   90   91 1    
   178   90   92 1    
   179   90  211 1    
   180   91  212 1    
   181   91  213 1    
   182   91  214 1    
   183   92   93 2    
   184   92   94 am   BACKBONE|DICT|INTERRES
   185   94   95 1    
   186   94  215 1    
   187   95   96 1    
   188   95   97 1    
   189   95  216 1    
   190   96  217 1    
   191   96  218 1    
   192   96  219 1    
   193   97   98 2    
   194   97   99 am   BACKBONE|DICT|INTERRES
   195   99  100 1    
   196   99  220 1    
   197  100  101 1    
   198  100  102 1    
   199  100  221 1    
   200  101  222 1    
   201  101  223 1    
   202  101  224 1    
   203  102  103 2    
   204  102  104 am   BACKBONE|DICT|INTERRES
   205  104  105 1    
   206  104  225 1    
   207  105  106 1    
   208  105  107 1    
   209  105  226 1    
   210  106  227 1    
   211  106  228 1    
   212  106  229 1    
   213  107  108 2    
   214  107  109 am   BACKBONE|DICT|INTERRES
   215  109  110 1    
   216  109  230 1    
   217  110  111 1    
   218  110  112 1    
   219  110  231 1    
   220  111  232 1    
   221  111  233 1    
   222  111  234 1    
   223  112  113 2    
   224  112  114 am   BACKBONE|DICT|INTERRES
   225  114  115 1    
   226  114  235 1    
   227  115  116 1    
   228  115  117 1    
   229  115  236 1    
   230  116  237 1    
   231  116  238 1    
   232  116  239 1    
   233  117  118 2    
   234  117  119 am   BACKBONE|DICT|INTERRES
   235  119  120 1    
   236  119  240 1    
   237  120  121 1    
   238  120  124 1    
   239  120  241 1    
   240  121  122 am   BACKBONE|DICT|INTERRES
   241  121  123 2    
   242  122  242 1    
   243  122  243 1    
   244  124  125 1    
   245  124  244 1    
   246  124  245 1    
   247  125  126 1    
   248  126  246 1    
   249  126  247 1    
@<TRIPOS>SUBSTRUCTURE
     1 UNK         1 GROUP             0       ****    0 ROOT    
