@<TRIPOS>MOLECULE
3R540
247   249    1
SMALL
USER_CHARGES


@<TRIPOS>ATOM
      1 CA         -2.6531  -15.4330  -49.1047 C.3       0 UNK        -0.1800 
      2 C          -2.2540  -13.9703  -48.9795 C.2       0 UNK         0.5000 
      3 O          -3.0906  -13.0877  -49.1719 O.2       0 UNK        -0.5000 
      4 N          -0.9762  -13.7118  -48.6821 N.am      1 UNK        -0.5000 
      5 CA         -0.4009  -12.3765  -48.5098 C.3       1 UNK         0.1400 
      6 C6          1.1500  -12.4017  -48.5280 C.3       23 UNK        -0.0398 
      7 S7          1.9086  -13.6680  -47.4437 S.3       23 UNK        -0.2404 
      8 C8          2.9704  -14.5876  -48.6104 C.3       23 UNK        -0.0205 
      9 C9          2.2455  -15.7435  -49.2900 C.ar      23 UNK        -0.0193 
     10 C10         1.3092  -15.5011  -50.3014 C.ar      23 UNK        -0.1150 
     11 C11         0.6479  -16.5603  -50.9279 C.ar      23 UNK        -0.0193 
     12 C12         0.9481  -17.8721  -50.5580 C.ar      23 UNK        -0.1150 
     13 C13         1.8914  -18.1333  -49.5621 C.ar      23 UNK        -0.0193 
     14 C14         2.5322  -17.0650  -48.9254 C.ar      23 UNK        -0.1150 
     15 C15         2.2131  -19.5731  -49.1931 C.3       23 UNK        -0.0205 
     16 S16         0.9172  -20.2751  -48.1340 S.3       23 UNK        -0.2404 
     17 C17         1.3622  -22.0441  -48.1419 C.3       23 UNK        -0.0398 
     18 CA          0.3877  -22.9376  -47.3341 C.3       11 UNK         0.1400 
     19 N           0.3092  -22.5512  -45.9228 N.am      11 UNK        -0.5000 
     20 C          -0.2634  -23.2817  -44.9555 C.2       10 UNK         0.5000 
     21 O          -0.8582  -24.3390  -45.1712 O.2       10 UNK        -0.5000 
     22 CA         -0.1656  -22.7262  -43.5193 C.3       10 UNK         0.1400 
     23 CB         -0.3030  -23.8169  -42.4378 C.3       10 UNK        -0.1800 
     24 N           1.0396  -21.9191  -43.3071 N.am      10 UNK        -0.5000 
     25 C           2.3209  -22.3114  -43.3700 C.2       9 UNK         0.5000 
     26 O           2.6835  -23.4740  -43.5514 O.2       9 UNK        -0.5000 
     27 CA          3.3816  -21.2021  -43.2365 C.3       9 UNK         0.1400 
     28 CB          3.8276  -20.7370  -44.6325 C.3       9 UNK        -0.1800 
     29 N           2.9027  -20.0436  -42.4790 N.am      9 UNK        -0.5000 
     30 C           2.7017  -20.0283  -41.1534 C.2       8 UNK         0.5000 
     31 O           2.9785  -20.9688  -40.4081 O.2       8 UNK        -0.5000 
     32 CA          2.0483  -18.7612  -40.5688 C.3       8 UNK         0.1400 
     33 CB          3.0836  -17.6398  -40.3965 C.3       8 UNK        -0.1800 
     34 N           0.9315  -18.2796  -41.3850 N.am      8 UNK        -0.5000 
     35 C          -0.2214  -18.9423  -41.5631 C.2       7 UNK         0.5000 
     36 O          -0.4886  -20.0136  -41.0197 O.2       7 UNK        -0.5000 
     37 CA         -1.2334  -18.3251  -42.5423 C.3       7 UNK         0.1400 
     38 CB         -2.1233  -17.2908  -41.8361 C.3       7 UNK        -0.1800 
     39 N          -0.5712  -17.7031  -43.6870 N.am      7 UNK        -0.5000 
     40 C          -0.0256  -18.3807  -44.7065 C.2       6 UNK         0.5000 
     41 O          -0.0499  -19.6077  -44.8060 O.2       6 UNK        -0.5000 
     42 CA          0.6873  -17.5397  -45.7802 C.3       6 UNK         0.1400 
     43 CB         -0.3432  -16.9815  -46.7734 C.3       6 UNK        -0.1800 
     44 N           1.4638  -16.4357  -45.2188 N.am      6 UNK        -0.5000 
     45 C           2.5078  -16.5713  -44.3876 C.2       5 UNK         0.5000 
     46 O           2.9788  -17.6561  -44.0517 O.2       5 UNK        -0.5000 
     47 CA          3.0698  -15.2788  -43.7657 C.3       5 UNK         0.1400 
     48 CB          4.2591  -14.7414  -44.5738 C.3       5 UNK        -0.1800 
     49 N           2.0493  -14.2377  -43.6269 N.am      5 UNK        -0.5000 
     50 C           0.9751  -14.3343  -42.8292 C.2       4 UNK         0.5000 
     51 O           0.7654  -15.3081  -42.1033 O.2       4 UNK        -0.5000 
     52 CA         -0.0712  -13.2052  -42.9084 C.3       4 UNK         0.1400 
     53 CB         -0.6697  -12.8551  -41.5307 C.3       4 UNK        -0.1800 
     54 N           0.3929  -12.0093  -43.6210 N.am      4 UNK        -0.5000 
     55 C           1.3181  -11.1185  -43.2262 C.2       3 UNK         0.5000 
     56 O           1.9410  -11.2003  -42.1676 O.2       3 UNK        -0.5000 
     57 CA          1.6251   -9.9463  -44.1842 C.3       3 UNK         0.1400 
     58 CB          2.9974  -10.1489  -44.8473 C.3       3 UNK        -0.1800 
     59 N           0.6246   -9.7716  -45.2385 N.am      3 UNK        -0.5000 
     60 C          -0.6406   -9.3675  -45.0572 C.2       2 UNK         0.5000 
     61 O          -1.0828   -8.9728  -43.9780 O.2       2 UNK        -0.5000 
     62 CA         -1.5794   -9.4518  -46.2790 C.3       2 UNK         0.1400 
     63 CB         -1.8222   -8.0532  -46.8672 C.3       2 UNK        -0.1800 
     64 N          -1.1017  -10.3392  -47.3477 N.am      2 UNK        -0.5000 
     65 C          -0.9384  -11.6670  -47.2483 C.2       1 UNK         0.5000 
     66 O          -1.1387  -12.3054  -46.2111 O.2       1 UNK        -0.5000 
     67 C          -1.0058  -23.0260  -47.9869 C.2       11 UNK         0.5000 
     68 O          -1.2789  -23.9812  -48.7116 O.2       11 UNK        -0.5000 
     69 N          -1.8779  -22.0602  -47.6670 N.am      12 UNK        -0.5000 
     70 CA         -3.2580  -21.9888  -48.1433 C.3       12 UNK         0.1400 
     71 CB         -3.8427  -20.6200  -47.7654 C.3       12 UNK        -0.1800 
     72 C          -4.1376  -23.1276  -47.5959 C.2       12 UNK         0.5000 
     73 O          -5.0469  -23.5771  -48.2912 O.2       12 UNK        -0.5000 
     74 N          -3.8374  -23.5892  -46.3735 N.am      13 UNK        -0.5000 
     75 CA         -4.4878  -24.7384  -45.7468 C.3       13 UNK         0.1400 
     76 CB         -4.2551  -24.7041  -44.2286 C.3       13 UNK        -0.1800 
     77 C          -3.9956  -26.0628  -46.3543 C.2       13 UNK         0.5000 
     78 O          -4.8133  -26.9412  -46.6269 O.2       13 UNK        -0.5000 
     79 N          -2.6792  -26.1679  -46.5894 N.am      14 UNK        -0.5000 
     80 CA         -2.0306  -27.3193  -47.2205 C.3       14 UNK         0.1400 
     81 CB         -0.5055  -27.1708  -47.1104 C.3       14 UNK        -0.1800 
     82 C          -2.4586  -27.5182  -48.6869 C.2       14 UNK         0.5000 
     83 O          -2.7249  -28.6492  -49.0950 O.2       14 UNK        -0.5000 
     84 N          -2.5477  -26.4145  -49.4418 N.am      15 UNK        -0.5000 
     85 CA         -3.0345  -26.3848  -50.8230 C.3       15 UNK         0.1400 
     86 CB         -2.5810  -25.0739  -51.4842 C.3       15 UNK        -0.1800 
     87 C          -4.5654  -26.5216  -50.9318 C.2       15 UNK         0.5000 
     88 O          -5.0663  -26.7919  -52.0235 O.2       15 UNK        -0.5000 
     89 N          -5.2790  -26.2868  -49.8210 N.am      16 UNK        -0.5000 
     90 CA         -6.7348  -26.2717  -49.6174 C.3       16 UNK         0.1400 
     91 CB         -7.3637  -27.6354  -49.9590 C.3       16 UNK        -0.1800 
     92 C          -7.4755  -25.1200  -50.3290 C.2       16 UNK         0.5000 
     93 O          -8.4464  -24.5969  -49.7798 O.2       16 UNK        -0.5000 
     94 N          -7.0081  -24.7382  -51.5191 N.am      17 UNK        -0.5000 
     95 CA         -7.4841  -23.6238  -52.3223 C.3       17 UNK         0.1400 
     96 CB         -8.6931  -24.0654  -53.1743 C.3       17 UNK        -0.1800 
     97 C          -6.2844  -23.0958  -53.1245 C.2       17 UNK         0.5000 
     98 O          -5.3381  -22.5892  -52.5183 O.2       17 UNK        -0.5000 
     99 N          -6.3352  -23.2184  -54.4601 N.am      18 UNK        -0.5000 
    100 CA        -5.2983  -22.8264  -55.4249 C.3       18 UNK         0.1400 
    101 CB        -4.0734  -23.7569  -55.3008 C.3       18 UNK        -0.1800 
    102 C         -4.9224  -21.3337  -55.3219 C.2       18 UNK         0.5000 
    103 O         -3.7381  -20.9938  -55.3303 O.2       18 UNK        -0.5000 
    104 N         -5.9471  -20.4796  -55.1671 N.am      19 UNK        -0.5000 
    105 CA        -5.8626  -19.0330  -54.9243 C.3       19 UNK         0.1400 
    106 CB        -5.3902  -18.2933  -56.1923 C.3       19 UNK        -0.1800 
    107 C         -5.0153  -18.7015  -53.6772 C.2       19 UNK         0.5000 
    108 O         -4.1192  -17.8587  -53.7379 O.2       19 UNK        -0.5000 
    109 N         -5.2872  -19.4302  -52.5831 N.am      20 UNK        -0.5000 
    110 CA        -4.5646  -19.4115  -51.3056 C.3       20 UNK         0.1400 
    111 CB        -4.7965  -18.0758  -50.5714 C.3       20 UNK        -0.1800 
    112 C         -3.0718  -19.7707  -51.4678 C.2       20 UNK         0.5000 
    113 O         -2.2127  -19.1461  -50.8488 O.2       20 UNK        -0.5000 
    114 N         -2.8112  -20.7674  -52.3246 N.am      21 UNK        -0.5000 
    115 CA        -1.5082  -21.2903  -52.7473 C.3       21 UNK         0.1400 
    116 CB        -0.6880  -21.7928  -51.5417 C.3       21 UNK        -0.1800 
    117 C         -0.6853  -20.3569  -53.6651 C.2       21 UNK         0.5000 
    118 O          0.4536  -20.7049  -53.9823 O.2       21 UNK        -0.5000 
    119 N         -1.2525  -19.2263  -54.1102 N.am      22 UNK        -0.5000 
    120 CA        -0.6334  -18.3191  -55.0962 C.3       22 UNK         0.1400 
    121 C         -0.9980  -18.6399  -56.5761 C.2       22 UNK         0.5000 
    122 N         -1.8658  -19.5971  -56.8744 N.am      22 UNK        -0.7600 
    123 O         -0.4539  -18.0215  -57.4873 O.2       22 UNK        -0.5000 
    124 C124       -0.8769  -16.8240  -54.7443 C.3       23 UNK        -0.0398 
    125 S125        0.4208  -16.1815  -53.6358 S.3       23 UNK        -0.2404 
    126 C126       -0.3828  -16.2981  -52.0129 C.3       23 UNK        -0.0205 
    127 H127       -1.7858  -16.0923  -49.1387 H         1 UNK         0.0600 
    128 H128       -3.2799  -15.7295  -48.2640 H         1 UNK         0.0600 
    129 H129       -3.2172  -15.5797  -50.0242 H         1 UNK         0.0600 
    130 H130       -0.3387  -14.4744  -48.5041 H         1 UNK         0.3000 
    131 H131       -0.7217  -11.7850  -49.3704 H         1 UNK         0.0600 
    132 H132        1.5597  -11.4285  -48.2525 H         1 UNK         0.0800 
    133 H133        1.4861  -12.5561  -49.5525 H         1 UNK         0.0800 
    134 H134        3.8303  -14.9668  -48.0565 H         1 UNK         0.0800 
    135 H135        3.3812  -13.9130  -49.3627 H         1 UNK         0.0800 
    136 H136        1.0911  -14.4900  -50.6097 H         1 UNK         0.1150 
    137 H137        0.4439  -18.6934  -51.0474 H         1 UNK         0.1150 
    138 H138        3.2568  -17.2635  -48.1482 H         1 UNK         0.1150 
    139 H139        2.3035  -20.1674  -50.1037 H         1 UNK         0.0800 
    140 H140        3.1741  -19.6360  -48.6805 H         1 UNK         0.0800 
    141 H141        2.3691  -22.1432  -47.7338 H         1 UNK         0.0800 
    142 H142        1.4226  -22.3892  -49.1757 H         1 UNK         0.0800 
    143 H143        0.7993  -23.9489  -47.3545 H         1 UNK         0.0600 
    144 H144        0.6999  -21.6509  -45.6761 H         1 UNK         0.3000 
    145 H145       -1.0073  -22.0420  -43.4039 H         1 UNK         0.0600 
    146 H146       -0.2183  -23.3906  -41.4380 H         1 UNK         0.0600 
    147 H147       -1.2742  -24.3084  -42.4983 H         1 UNK         0.0600 
    148 H148        0.4593  -24.5895  -42.5404 H         1 UNK         0.0600 
    149 H149        0.8688  -20.9274  -43.2056 H         1 UNK         0.3000 
    150 H150        4.2460  -21.6234  -42.7193 H         1 UNK         0.0600 
    151 H151        4.2131  -21.5712  -45.2201 H         1 UNK         0.0600 
    152 H152        4.6210  -19.9925  -44.5651 H         1 UNK         0.0600 
    153 H153        3.0019  -20.2947  -45.1924 H         1 UNK         0.0600 
    154 H154        2.7242  -19.1972  -43.0148 H         1 UNK         0.3000 
    155 H155        1.6543  -19.0118  -39.5816 H         1 UNK         0.0600 
    156 H156        3.5645  -17.3870  -41.3409 H         1 UNK         0.0600 
    157 H157        3.8690  -17.9414  -39.7026 H         1 UNK         0.0600 
    158 H158        2.6257  -16.7340  -39.9983 H         1 UNK         0.0600 
    159 H159        1.0423  -17.3750  -41.8288 H         1 UNK         0.3000 
    160 H160       -1.8762  -19.1282  -42.9097 H         1 UNK         0.0600 
    161 H161       -2.8648  -16.8765  -42.5194 H         1 UNK         0.0600 
    162 H162       -1.5424  -16.4630  -41.4292 H         1 UNK         0.0600 
    163 H163       -2.6652  -17.7474  -41.0069 H         1 UNK         0.0600 
    164 H164       -0.4585  -16.7008  -43.6532 H         1 UNK         0.3000 
    165 H165        1.3852  -18.1861  -46.3117 H         1 UNK         0.0600 
    166 H166        0.1384  -16.4081  -47.5620 H         1 UNK         0.0600 
    167 H167       -0.8967  -17.7886  -47.2556 H         1 UNK         0.0600 
    168 H168       -1.0681  -16.3292  -46.2849 H         1 UNK         0.0600 
    169 H169        1.1646  -15.5020  -45.4580 H         1 UNK         0.3000 
    170 H170        3.4299  -15.5231  -42.7651 H         1 UNK         0.0600 
    171 H171        5.0483  -15.4909  -44.6472 H         1 UNK         0.0600 
    172 H172        4.6916  -13.8601  -44.0997 H         1 UNK         0.0600 
    173 H173        3.9736  -14.4695  -45.5883 H         1 UNK         0.0600 
    174 H174        2.1469  -13.4170  -44.2055 H         1 UNK         0.3000 
    175 H175       -0.8831  -13.6051  -43.5176 H         1 UNK         0.0600 
    176 H176       -1.4077  -12.0571  -41.6126 H         1 UNK         0.0600 
    177 H177       -1.1737  -13.7181  -41.0939 H         1 UNK         0.0600 
    178 H178        0.0953  -12.5359  -40.8227 H         1 UNK         0.0600 
    179 H179       -0.0491  -11.8660  -44.5236 H         1 UNK         0.3000 
    180 H180        1.6583   -9.0329  -43.5869 H         1 UNK         0.0600 
    181 H181        3.0164  -11.0451  -45.4692 H         1 UNK         0.0600 
    182 H182        3.7836  -10.2530  -44.0983 H         1 UNK         0.0600 
    183 H183        3.2618   -9.2982  -45.4756 H         1 UNK         0.0600 
    184 H184        0.8981  -10.0551  -46.1668 H         1 UNK         0.3000 
    185 H185       -2.5344   -9.8446  -45.9239 H         1 UNK         0.0600 
    186 H186       -0.9031   -7.6171  -47.2605 H         1 UNK         0.0600 
    187 H187       -2.5529   -8.0858  -47.6757 H         1 UNK         0.0600 
    188 H188       -2.2106   -7.3714  -46.1093 H         1 UNK         0.0600 
    189 H189       -0.9082   -9.8910  -48.2322 H         1 UNK         0.3000 
    190 H190       -1.5574  -21.3081  -47.0734 H         1 UNK         0.3000 
    191 H191       -3.2455  -22.0715  -49.2323 H         1 UNK         0.0600 
    192 H192       -3.2482  -19.8096  -48.1878 H         1 UNK         0.0600 
    193 H193       -3.8759  -20.4807  -46.6841 H         1 UNK         0.0600 
    194 H194       -4.8602  -20.5112  -48.1425 H         1 UNK         0.0600 
    195 H195       -3.0490  -23.1897  -45.8870 H         1 UNK         0.3000 
    196 H196       -5.5636  -24.6670  -45.9224 H         1 UNK         0.0600 
    197 H197       -4.7759  -25.5275  -43.7383 H         1 UNK         0.0600 
    198 H198       -4.6291  -23.7777  -43.7927 H         1 UNK         0.0600 
    199 H199       -3.1987  -24.7914  -43.9764 H         1 UNK         0.0600 
    200 H200       -2.0673  -25.4168  -46.2840 H         1 UNK         0.3000 
    201 H201       -2.3247  -28.2121  -46.6647 H         1 UNK         0.0600 
    202 H202       -0.1915  -27.0905  -46.0695 H         1 UNK         0.0600 
    203 H203       -0.1476  -26.2852  -47.6357 H         1 UNK         0.0600 
    204 H204        0.0030  -28.0352  -47.5390 H         1 UNK         0.0600 
    205 H205       -2.2347  -25.5267  -49.0536 H         1 UNK         0.3000 
    206 H206       -2.5866  -27.2176  -51.3689 H         1 UNK         0.0600 
    207 H207       -1.4976  -24.9617  -51.4393 H         1 UNK         0.0600 
    208 H208       -2.8667  -25.0478  -52.5359 H         1 UNK         0.0600 
    209 H209       -3.0309  -24.2049  -51.0014 H         1 UNK         0.0600 
    210 H210       -4.7501  -26.0239  -49.0010 H         1 UNK         0.3000 
    211 H211       -6.8715  -26.1079  -48.5473 H         1 UNK         0.0600 
    212 H212       -7.2951  -27.8624  -51.0231 H         1 UNK         0.0600 
    213 H213       -8.4209  -27.6521  -49.6916 H         1 UNK         0.0600 
    214 H214       -6.8764  -28.4414  -49.4103 H         1 UNK         0.0600 
    215 H215       -6.2101  -25.2450  -51.8909 H         1 UNK         0.3000 
    216 H216       -7.7993  -22.8127  -51.6627 H         1 UNK         0.0600 
    217 H217       -9.0557  -23.2501  -53.8015 H         1 UNK         0.0600 
    218 H218       -9.5251  -24.3692  -52.5386 H         1 UNK         0.0600 
    219 H219       -8.4511  -24.9106  -53.8199 H         1 UNK         0.0600 
    220 H220       -7.1601  -23.6442  -54.8593 H         1 UNK         0.3000 
    221 H221       -5.7237  -22.9681  -56.4193 H         1 UNK         0.0600 
    222 H222       -3.5603  -23.6226  -54.3488 H         1 UNK         0.0600 
    223 H223       -4.3632  -24.8046  -55.3799 H         1 UNK         0.0600 
    224 H224       -3.3497  -23.5592  -56.0924 H         1 UNK         0.0600 
    225 H225       -6.8795  -20.8684  -55.1618 H         1 UNK         0.3000 
    226 H226       -6.8757  -18.6931  -54.7044 H         1 UNK         0.0600 
    227 H227       -6.0242  -18.5304  -57.0463 H         1 UNK         0.0600 
    228 H228       -5.4274  -17.2127  -56.0502 H         1 UNK         0.0600 
    229 H229       -4.3653  -18.5511  -56.4550 H         1 UNK         0.0600 
    230 H230       -6.0006  -20.1408  -52.6608 H         1 UNK         0.3000 
    231 H231       -4.9985  -20.2044  -50.6947 H         1 UNK         0.0600 
    232 H232       -5.8593  -17.8926  -50.4146 H         1 UNK         0.0600 
    233 H233       -4.3923  -17.2356  -51.1350 H         1 UNK         0.0600 
    234 H234       -4.3195  -18.0738  -49.5911 H         1 UNK         0.0600 
    235 H235       -3.6083  -21.2114  -52.7664 H         1 UNK         0.3000 
    236 H236       -1.7413  -22.1621  -53.3597 H         1 UNK         0.0600 
    237 H237        0.1883  -22.3543  -51.8665 H         1 UNK         0.0600 
    238 H238       -0.3352  -20.9736  -50.9161 H         1 UNK         0.0600 
    239 H239       -1.2827  -22.4561  -50.9175 H         1 UNK         0.0600 
    240 H240       -2.2034  -19.0104  -53.8377 H         1 UNK         0.3000 
    241 H241        0.4463  -18.4781  -55.0750 H         1 UNK         0.0600 
    242 H242       -2.0636  -19.7898  -57.8426 H         1 UNK         0.3800 
    243 H243       -2.3784  -20.1027  -56.1544 H         1 UNK         0.3800 
    244 H244       -0.8495  -16.1910  -55.6329 H         1 UNK         0.0800 
    245 H245       -1.8645  -16.6690  -54.3097 H         1 UNK         0.0800 
    246 H246       -1.1223  -17.0990  -52.0202 H         1 UNK         0.0800 
    247 H247       -0.9289  -15.3763  -51.8084 H         1 UNK         0.0800 
@<TRIPOS>BOND
     1    1    2 1    
     2    1  127 1    
     3    1  128 1    
     4    1  129 1    
     5    2    3 2    
     6    2    4 am   BACKBONE|DICT|INTERRES
     7    4    5 1    
     8    4  130 1    
     9    5    6 1    
    10    5   65 1    
    11    5  131 1    
    12    6    7 1    
    13    6  132 1    
    14    6  133 1    
    15    7    8 1    
    16    8    9 1    
    17    8  134 1    
    18    8  135 1    
    19    9   10 ar   
    20    9   14 ar   
    21   10   11 ar   
    22   10  136 1    
    23   11   12 ar   
    24   11  126 1    
    25   12   13 ar   
    26   12  137 1    
    27   13   14 ar   
    28   13   15 1    
    29   14  138 1    
    30   15   16 1    
    31   15  139 1    
    32   15  140 1    
    33   16   17 1    
    34   17   18 1    
    35   17  141 1    
    36   17  142 1    
    37   18   19 1    
    38   18   67 1    
    39   18  143 1    
    40   19   20 am   BACKBONE|DICT|INTERRES
    41   19  144 1    
    42   20   21 2    
    43   20   22 1    
    44   22   23 1    
    45   22   24 1    
    46   22  145 1    
    47   23  146 1    
    48   23  147 1    
    49   23  148 1    
    50   24   25 am   BACKBONE|DICT|INTERRES
    51   24  149 1    
    52   25   26 2    
    53   25   27 1    
    54   27   28 1    
    55   27   29 1    
    56   27  150 1    
    57   28  151 1    
    58   28  152 1    
    59   28  153 1    
    60   29   30 am   BACKBONE|DICT|INTERRES
    61   29  154 1    
    62   30   31 2    
    63   30   32 1    
    64   32   33 1    
    65   32   34 1    
    66   32  155 1    
    67   33  156 1    
    68   33  157 1    
    69   33  158 1    
    70   34   35 am   BACKBONE|DICT|INTERRES
    71   34  159 1    
    72   35   36 2    
    73   35   37 1    
    74   37   38 1    
    75   37   39 1    
    76   37  160 1    
    77   38  161 1    
    78   38  162 1    
    79   38  163 1    
    80   39   40 am   BACKBONE|DICT|INTERRES
    81   39  164 1    
    82   40   41 2    
    83   40   42 1    
    84   42   43 1    
    85   42   44 1    
    86   42  165 1    
    87   43  166 1    
    88   43  167 1    
    89   43  168 1    
    90   44   45 am   BACKBONE|DICT|INTERRES
    91   44  169 1    
    92   45   46 2    
    93   45   47 1    
    94   47   48 1    
    95   47   49 1    
    96   47  170 1    
    97   48  171 1    
    98   48  172 1    
    99   48  173 1    
   100   49   50 am   BACKBONE|DICT|INTERRES
   101   49  174 1    
   102   50   51 2    
   103   50   52 1    
   104   52   53 1    
   105   52   54 1    
   106   52  175 1    
   107   53  176 1    
   108   53  177 1    
   109   53  178 1    
   110   54   55 am   BACKBONE|DICT|INTERRES
   111   54  179 1    
   112   55   56 2    
   113   55   57 1    
   114   57   58 1    
   115   57   59 1    
   116   57  180 1    
   117   58  181 1    
   118   58  182 1    
   119   58  183 1    
   120   59   60 am   BACKBONE|DICT|INTERRES
   121   59  184 1    
   122   60   61 2    
   123   60   62 1    
   124   62   63 1    
   125   62   64 1    
   126   62  185 1    
   127   63  186 1    
   128   63  187 1    
   129   63  188 1    
   130   64   65 am   BACKBONE|DICT|INTERRES
   131   64  189 1    
   132   65   66 2    
   133   67   68 2    
   134   67   69 am   BACKBONE|DICT|INTERRES
   135   69   70 1    
   136   69  190 1    
   137   70   71 1    
   138   70   72 1    
   139   70  191 1    
   140   71  192 1    
   141   71  193 1    
   142   71  194 1    
   143   72   73 2    
   144   72   74 am   BACKBONE|DICT|INTERRES
   145   74   75 1    
   146   74  195 1    
   147   75   76 1    
   148   75   77 1    
   149   75  196 1    
   150   76  197 1    
   151   76  198 1    
   152   76  199 1    
   153   77   78 2    
   154   77   79 am   BACKBONE|DICT|INTERRES
   155   79   80 1    
   156   79  200 1    
   157   80   81 1    
   158   80   82 1    
   159   80  201 1    
   160   81  202 1    
   161   81  203 1    
   162   81  204 1    
   163   82   83 2    
   164   82   84 am   BACKBONE|DICT|INTERRES
   165   84   85 1    
   166   84  205 1    
   167   85   86 1    
   168   85   87 1    
   169   85  206 1    
   170   86  207 1    
   171   86  208 1    
   172   86  209 1    
   173   87   88 2    
   174   87   89 am   BACKBONE|DICT|INTERRES
   175   89   90 1    
   176   89  210 1    
   177   90   91 1    
   178   90   92 1    
   179   90  211 1    
   180   91  212 1    
   181   91  213 1    
   182   91  214 1    
   183   92   93 2    
   184   92   94 am   BACKBONE|DICT|INTERRES
   185   94   95 1    
   186   94  215 1    
   187   95   96 1    
   188   95   97 1    
   189   95  216 1    
   190   96  217 1    
   191   96  218 1    
   192   96  219 1    
   193   97   98 2    
   194   97   99 am   BACKBONE|DICT|INTERRES
   195   99  100 1    
   196   99  220 1    
   197  100  101 1    
   198  100  102 1    
   199  100  221 1    
   200  101  222 1    
   201  101  223 1    
   202  101  224 1    
   203  102  103 2    
   204  102  104 am   BACKBONE|DICT|INTERRES
   205  104  105 1    
   206  104  225 1    
   207  105  106 1    
   208  105  107 1    
   209  105  226 1    
   210  106  227 1    
   211  106  228 1    
   212  106  229 1    
   213  107  108 2    
   214  107  109 am   BACKBONE|DICT|INTERRES
   215  109  110 1    
   216  109  230 1    
   217  110  111 1    
   218  110  112 1    
   219  110  231 1    
   220  111  232 1    
   221  111  233 1    
   222  111  234 1    
   223  112  113 2    
   224  112  114 am   BACKBONE|DICT|INTERRES
   225  114  115 1    
   226  114  235 1    
   227  115  116 1    
   228  115  117 1    
   229  115  236 1    
   230  116  237 1    
   231  116  238 1    
   232  116  239 1    
   233  117  118 2    
   234  117  119 am   BACKBONE|DICT|INTERRES
   235  119  120 1    
   236  119  240 1    
   237  120  121 1    
   238  120  124 1    
   239  120  241 1    
   240  121  122 am   BACKBONE|DICT|INTERRES
   241  121  123 2    
   242  122  242 1    
   243  122  243 1    
   244  124  125 1    
   245  124  244 1    
   246  124  245 1    
   247  125  126 1    
   248  126  246 1    
   249  126  247 1    
@<TRIPOS>SUBSTRUCTURE
     1 UNK         1 GROUP             0       ****    0 ROOT    
