@<TRIPOS>MOLECULE
3R540
247   249    1
SMALL
USER_CHARGES


@<TRIPOS>ATOM
      1 CA          4.7301  -13.6369  -48.4092 C.3       0 UNK        -0.1800 
      2 C           3.5420  -13.3785  -47.4970 C.2       0 UNK         0.5000 
      3 O           3.6736  -13.4763  -46.2766 O.2       0 UNK        -0.5000 
      4 N           2.3745  -13.0615  -48.0705 N.am      1 UNK        -0.5000 
      5 CA          1.1476  -12.7593  -47.3232 C.3       1 UNK         0.1400 
      6 C6         -0.1079  -12.8263  -48.2237 C.3       23 UNK        -0.0398 
      7 S7         -1.6288  -13.1742  -47.2777 S.3       23 UNK        -0.2404 
      8 C8         -2.6488  -14.0268  -48.5206 C.3       23 UNK        -0.0205 
      9 C9         -2.3161  -15.5079  -48.6250 C.ar      23 UNK        -0.0193 
     10 C10        -1.3998  -15.9639  -49.5776 C.ar      23 UNK        -0.1150 
     11 C11        -1.1349  -17.3292  -49.7118 C.ar      23 UNK        -0.0193 
     12 C12        -1.7810  -18.2380  -48.8730 C.ar      23 UNK        -0.1150 
     13 C13        -2.7007  -17.7976  -47.9173 C.ar      23 UNK        -0.0193 
     14 C14        -2.9618  -16.4299  -47.7955 C.ar      23 UNK        -0.1150 
     15 C15        -3.3912  -18.8007  -47.0079 C.3       23 UNK        -0.0205 
     16 S16        -4.2592  -20.0961  -47.9498 S.3       23 UNK        -0.2404 
     17 C17        -4.2961  -21.4486  -46.7289 C.3       23 UNK        -0.0398 
     18 CA         -3.1251  -22.4389  -46.9354 C.3       11 UNK         0.1400 
     19 N          -1.8163  -21.8257  -46.6984 N.am      11 UNK        -0.5000 
     20 C          -0.6384  -22.3788  -47.0122 C.2       10 UNK         0.5000 
     21 O          -0.5178  -23.4663  -47.5739 O.2       10 UNK        -0.5000 
     22 CA          0.6170  -21.6099  -46.5701 C.3       10 UNK         0.1400 
     23 CB          1.0376  -20.5863  -47.6339 C.3       10 UNK        -0.1800 
     24 N           0.4343  -20.9495  -45.2740 N.am      10 UNK        -0.5000 
     25 C           0.3432  -21.6234  -44.1177 C.2       9 UNK         0.5000 
     26 O           0.3963  -22.8505  -44.0425 O.2       9 UNK        -0.5000 
     27 CA          0.1237  -20.8087  -42.8323 C.3       9 UNK         0.1400 
     28 CB          1.4440  -20.1888  -42.3546 C.3       9 UNK        -0.1800 
     29 N          -0.8818  -19.7556  -42.9499 N.am      9 UNK        -0.5000 
     30 C          -2.1630  -19.9091  -43.3004 C.2       8 UNK         0.5000 
     31 O          -2.6459  -20.9823  -43.6600 O.2       8 UNK        -0.5000 
     32 CA         -3.0605  -18.6543  -43.2656 C.3       8 UNK         0.1400 
     33 CB         -3.5946  -18.3928  -41.8452 C.3       8 UNK        -0.1800 
     34 N          -2.4432  -17.4525  -43.8453 N.am      8 UNK        -0.5000 
     35 C          -1.3832  -16.7562  -43.4129 C.2       7 UNK         0.5000 
     36 O          -0.7784  -16.9847  -42.3633 O.2       7 UNK        -0.5000 
     37 CA         -0.8657  -15.6638  -44.3642 C.3       7 UNK         0.1400 
     38 CB         -0.7990  -14.3036  -43.6533 C.3       7 UNK        -0.1800 
     39 N           0.4542  -15.9847  -44.9107 N.am      7 UNK        -0.5000 
     40 C           0.8036  -17.1142  -45.5469 C.2       6 UNK         0.5000 
     41 O           0.0607  -18.0836  -45.7042 O.2       6 UNK        -0.5000 
     42 CA          2.2300  -17.1712  -46.1170 C.3       6 UNK         0.1400 
     43 CB          2.2119  -16.7946  -47.6064 C.3       6 UNK        -0.1800 
     44 N           3.1549  -16.2901  -45.3986 N.am      6 UNK        -0.5000 
     45 C           3.8445  -16.6606  -44.3099 C.2       5 UNK         0.5000 
     46 O           3.7885  -17.7837  -43.8102 O.2       5 UNK        -0.5000 
     47 CA          4.7389  -15.5917  -43.6657 C.3       5 UNK         0.1400 
     48 CB          6.0317  -15.3998  -44.4751 C.3       5 UNK        -0.1800 
     49 N           4.0380  -14.3151  -43.5730 N.am      5 UNK        -0.5000 
     50 C           3.2958  -13.9176  -42.5317 C.2       4 UNK         0.5000 
     51 O           3.1267  -14.5981  -41.5190 O.2       4 UNK        -0.5000 
     52 CA          2.6257  -12.5306  -42.6494 C.3       4 UNK         0.1400 
     53 CB          2.3855  -11.8567  -41.2828 C.3       4 UNK        -0.1800 
     54 N           3.3205  -11.6272  -43.5725 N.am      4 UNK        -0.5000 
     55 C           4.5642  -11.1320  -43.4619 C.2       3 UNK         0.5000 
     56 O           5.2922  -11.3185  -42.4864 O.2       3 UNK        -0.5000 
     57 CA          5.1085  -10.3195  -44.6560 C.3       3 UNK         0.1400 
     58 CB          6.2778  -11.0648  -45.3213 C.3       3 UNK        -0.1800 
     59 N           4.0905  -10.0547  -45.6738 N.am      3 UNK        -0.5000 
     60 C           3.1844   -9.0691  -45.6211 C.2       2 UNK         0.5000 
     61 O           3.1594   -8.2076  -44.7421 O.2       2 UNK        -0.5000 
     62 CA          2.1058   -9.0675  -46.7231 C.3       2 UNK         0.1400 
     63 CB          2.5098   -8.1290  -47.8701 C.3       2 UNK        -0.1800 
     64 N           1.8348  -10.4019  -47.2695 N.am      2 UNK        -0.5000 
     65 C           1.2619  -11.4069  -46.5891 C.2       1 UNK         0.5000 
     66 O           0.9032  -11.3158  -45.4156 O.2       1 UNK        -0.5000 
     67 C          -3.3034  -23.6983  -46.0703 C.2       11 UNK         0.5000 
     68 O          -3.7291  -24.7280  -46.5887 O.2       11 UNK        -0.5000 
     69 N          -2.9316  -23.6104  -44.7862 N.am      12 UNK        -0.5000 
     70 CA         -2.9472  -24.7268  -43.8423 C.3       12 UNK         0.1400 
     71 CB         -2.6555  -24.1995  -42.4289 C.3       12 UNK        -0.1800 
     72 C          -1.9632  -25.8498  -44.2226 C.2       12 UNK         0.5000 
     73 O          -2.3128  -27.0247  -44.1048 O.2       12 UNK        -0.5000 
     74 N          -0.7590  -25.4707  -44.6715 N.am      13 UNK        -0.5000 
     75 CA          0.3024  -26.3937  -45.0658 C.3       13 UNK         0.1400 
     76 CB          1.6423  -25.6431  -45.1268 C.3       13 UNK        -0.1800 
     77 C           0.0192  -27.1080  -46.3984 C.2       13 UNK         0.5000 
     78 O           0.0973  -28.3363  -46.4529 O.2       13 UNK        -0.5000 
     79 N          -0.2671  -26.3344  -47.4544 N.am      14 UNK        -0.5000 
     80 CA         -0.3706  -26.8470  -48.8217 C.3       14 UNK         0.1400 
     81 CB          0.0280  -25.7384  -49.8079 C.3       14 UNK        -0.1800 
     82 C          -1.7668  -27.3799  -49.1772 C.2       14 UNK         0.5000 
     83 O          -1.8713  -28.1880  -50.1011 O.2       14 UNK        -0.5000 
     84 N          -2.8120  -26.8910  -48.4915 N.am      15 UNK        -0.5000 
     85 CA         -4.2471  -27.1161  -48.7255 C.3       15 UNK         0.1400 
     86 CB         -4.6230  -28.6070  -48.6207 C.3       15 UNK        -0.1800 
     87 C          -4.7577  -26.4910  -50.0393 C.2       15 UNK         0.5000 
     88 O          -5.7148  -25.7165  -50.0181 O.2       15 UNK        -0.5000 
     89 N          -4.0959  -26.8174  -51.1557 N.am      16 UNK        -0.5000 
     90 CA         -4.4180  -26.3688  -52.5090 C.3       16 UNK         0.1400 
     91 CB         -3.5772  -27.1692  -53.5141 C.3       16 UNK        -0.1800 
     92 C          -4.2201  -24.8596  -52.7317 C.2       16 UNK         0.5000 
     93 O          -4.9132  -24.2910  -53.5731 O.2       16 UNK        -0.5000 
     94 N          -3.3126  -24.2292  -51.9696 N.am      17 UNK        -0.5000 
     95 CA         -2.9624  -22.8053  -52.0693 C.3       17 UNK         0.1400 
     96 CB         -1.8276  -22.4878  -51.0830 C.3       17 UNK        -0.1800 
     97 C          -4.1444  -21.8390  -51.8569 C.2       17 UNK         0.5000 
     98 O          -4.1355  -20.7396  -52.4120 O.2       17 UNK        -0.5000 
     99 N          -5.1509  -22.2760  -51.0878 N.am      18 UNK        -0.5000 
    100 CA        -6.3963  -21.5457  -50.8559 C.3       18 UNK         0.1400 
    101 CB        -7.1442  -22.2034  -49.6867 C.3       18 UNK        -0.1800 
    102 C         -7.3061  -21.4877  -52.0990 C.2       18 UNK         0.5000 
    103 O         -8.0623  -20.5273  -52.2475 O.2       18 UNK        -0.5000 
    104 N         -7.2316  -22.5164  -52.9535 N.am      19 UNK        -0.5000 
    105 CA        -8.0362  -22.6529  -54.1665 C.3       19 UNK         0.1400 
    106 CB        -8.4834  -24.1169  -54.3049 C.3       19 UNK        -0.1800 
    107 C         -7.2571  -22.2128  -55.4156 C.2       19 UNK         0.5000 
    108 O         -7.8403  -21.5930  -56.3056 O.2       19 UNK        -0.5000 
    109 N         -5.9611  -22.5393  -55.4603 N.am      20 UNK        -0.5000 
    110 CA        -5.0569  -22.2894  -56.5736 C.3       20 UNK         0.1400 
    111 CB        -4.8060  -23.6210  -57.3056 C.3       20 UNK        -0.1800 
    112 C         -3.7552  -21.6667  -56.0297 C.2       20 UNK         0.5000 
    113 O         -2.7994  -22.3986  -55.7753 O.2       20 UNK        -0.5000 
    114 N         -3.6803  -20.3453  -55.8252 N.am      21 UNK        -0.5000 
    115 CA        -4.7292  -19.3410  -56.0265 C.3       21 UNK         0.1400 
    116 CB        -4.7040  -18.8629  -57.4932 C.3       21 UNK        -0.1800 
    117 C         -4.5782  -18.1444  -55.0663 C.2       21 UNK         0.5000 
    118 O         -5.3453  -17.1876  -55.1862 O.2       21 UNK        -0.5000 
    119 N         -3.5843  -18.1787  -54.1683 N.am      22 UNK        -0.5000 
    120 CA        -3.2493  -17.0657  -53.2676 C.3       22 UNK         0.1400 
    121 C         -4.1087  -17.0006  -51.9738 C.2       22 UNK         0.5000 
    122 N         -4.6736  -18.1030  -51.4994 N.am      22 UNK        -0.7600 
    123 O         -4.2969  -15.9224  -51.4178 O.2       22 UNK        -0.5000 
    124 C124       -1.7265  -16.9993  -52.9847 C.3       23 UNK        -0.0398 
    125 S125       -1.0246  -18.5080  -52.2230 S.3       23 UNK        -0.2404 
    126 C126       -0.1623  -17.8311  -50.7671 C.3       23 UNK        -0.0205 
    127 H127        5.5314  -12.9320  -48.1886 H         1 UNK         0.0600 
    128 H128        4.4634  -13.5343  -49.4612 H         1 UNK         0.0600 
    129 H129        5.1090  -14.6464  -48.2498 H         1 UNK         0.0600 
    130 H130        2.3148  -13.0034  -49.0774 H         1 UNK         0.3000 
    131 H131        1.0491  -13.5335  -46.5588 H         1 UNK         0.0600 
    132 H132       -0.2420  -11.9116  -48.8039 H         1 UNK         0.0800 
    133 H133        0.0212  -13.6237  -48.9534 H         1 UNK         0.0800 
    134 H134       -3.6988  -13.9110  -48.2478 H         1 UNK         0.0800 
    135 H135       -2.5383  -13.5406  -49.4912 H         1 UNK         0.0800 
    136 H136       -0.9127  -15.2587  -50.2345 H         1 UNK         0.1150 
    137 H137       -1.5859  -19.2954  -48.9806 H         1 UNK         0.1150 
    138 H138       -3.6759  -16.0789  -47.0643 H         1 UNK         0.1150 
    139 H139       -2.6331  -19.2404  -46.3613 H         1 UNK         0.0800 
    140 H140       -4.1138  -18.3065  -46.3578 H         1 UNK         0.0800 
    141 H141       -5.2514  -21.9629  -46.8416 H         1 UNK         0.0800 
    142 H142       -4.2986  -21.0372  -45.7190 H         1 UNK         0.0800 
    143 H143       -3.1505  -22.7688  -47.9755 H         1 UNK         0.0600 
    144 H144       -1.8094  -20.9577  -46.1864 H         1 UNK         0.3000 
    145 H145        1.4262  -22.3367  -46.4722 H         1 UNK         0.0600 
    146 H146        1.1325  -21.0548  -48.6144 H         1 UNK         0.0600 
    147 H147        2.0034  -20.1440  -47.3919 H         1 UNK         0.0600 
    148 H148        0.3130  -19.7793  -47.7248 H         1 UNK         0.0600 
    149 H149        0.3346  -19.9375  -45.2783 H         1 UNK         0.3000 
    150 H150       -0.2238  -21.5014  -42.0633 H         1 UNK         0.0600 
    151 H151        1.8087  -19.4399  -43.0582 H         1 UNK         0.0600 
    152 H152        2.2201  -20.9478  -42.2482 H         1 UNK         0.0600 
    153 H153        1.3256  -19.7055  -41.3847 H         1 UNK         0.0600 
    154 H154       -0.5937  -18.8186  -42.6809 H         1 UNK         0.3000 
    155 H155       -3.9230  -18.8756  -43.8958 H         1 UNK         0.0600 
    156 H156       -2.7923  -18.1944  -41.1342 H         1 UNK         0.0600 
    157 H157       -4.1480  -19.2567  -41.4751 H         1 UNK         0.0600 
    158 H158       -4.2744  -17.5409  -41.8306 H         1 UNK         0.0600 
    159 H159       -2.8186  -17.1857  -44.7430 H         1 UNK         0.3000 
    160 H160       -1.5516  -15.5719  -45.2084 H         1 UNK         0.0600 
    161 H161       -0.1155  -14.3274  -42.8037 H         1 UNK         0.0600 
    162 H162       -1.7803  -14.0146  -43.2753 H         1 UNK         0.0600 
    163 H163       -0.4704  -13.5161  -44.3313 H         1 UNK         0.0600 
    164 H164        1.1658  -15.2819  -44.7932 H         1 UNK         0.3000 
    165 H165        2.5794  -18.2025  -46.0367 H         1 UNK         0.0600 
    166 H166        3.2164  -16.7911  -48.0295 H         1 UNK         0.0600 
    167 H167        1.6209  -17.5114  -48.1776 H         1 UNK         0.0600 
    168 H168        1.7691  -15.8127  -47.7707 H         1 UNK         0.0600 
    169 H169        3.2782  -15.3479  -45.7531 H         1 UNK         0.3000 
    170 H170        5.0148  -15.9342  -42.6660 H         1 UNK         0.0600 
    171 H171        6.6859  -14.6682  -44.0005 H         1 UNK         0.0600 
    172 H172        5.8306  -15.0565  -45.4906 H         1 UNK         0.0600 
    173 H173        6.5878  -16.3351  -44.5485 H         1 UNK         0.0600 
    174 H174        4.0716  -13.7246  -44.3985 H         1 UNK         0.3000 
    175 H175        1.6488  -12.7089  -43.0976 H         1 UNK         0.0600 
    176 H176        1.7244  -12.4609  -40.6605 H         1 UNK         0.0600 
    177 H177        3.3143  -11.7159  -40.7297 H         1 UNK         0.0600 
    178 H178        1.9137  -10.8814  -41.4024 H         1 UNK         0.0600 
    179 H179        2.7967  -11.4009  -44.4089 H         1 UNK         0.3000 
    180 H180        5.4831   -9.3704  -44.2671 H         1 UNK         0.0600 
    181 H181        5.9731  -12.0424  -45.6963 H         1 UNK         0.0600 
    182 H182        7.0917  -11.2271  -44.6136 H         1 UNK         0.0600 
    183 H183        6.6855  -10.4958  -46.1570 H         1 UNK         0.0600 
    184 H184        4.0280  -10.7210  -46.4288 H         1 UNK         0.3000 
    185 H185        1.1825   -8.6891  -46.2790 H         1 UNK         0.0600 
    186 H186        2.6937   -7.1188  -47.5018 H         1 UNK         0.0600 
    187 H187        3.4198   -8.4680  -48.3668 H         1 UNK         0.0600 
    188 H188        1.7220   -8.0609  -48.6206 H         1 UNK         0.0600 
    189 H189        2.1248  -10.5656  -48.2226 H         1 UNK         0.3000 
    190 H190       -2.6305  -22.7102  -44.4212 H         1 UNK         0.3000 
    191 H191       -3.9530  -25.1520  -43.8451 H         1 UNK         0.0600 
    192 H192       -3.3932  -23.4561  -42.1260 H         1 UNK         0.0600 
    193 H193       -2.6858  -25.0068  -41.6962 H         1 UNK         0.0600 
    194 H194       -1.6707  -23.7355  -42.3674 H         1 UNK         0.0600 
    195 H195       -0.5259  -24.4824  -44.6753 H         1 UNK         0.3000 
    196 H196        0.3887  -27.1597  -44.2921 H         1 UNK         0.0600 
    197 H197        2.4524  -26.3102  -45.4239 H         1 UNK         0.0600 
    198 H198        1.9045  -25.2280  -44.1535 H         1 UNK         0.0600 
    199 H199        1.6130  -24.8210  -45.8428 H         1 UNK         0.0600 
    200 H200       -0.3281  -25.3246  -47.3434 H         1 UNK         0.3000 
    201 H201        0.3366  -27.6696  -48.9489 H         1 UNK         0.0600 
    202 H202        0.0460  -26.1125  -50.8324 H         1 UNK         0.0600 
    203 H203        1.0215  -25.3484  -49.5859 H         1 UNK         0.0600 
    204 H204       -0.6736  -24.9057  -49.7766 H         1 UNK         0.0600 
    205 H205       -2.6188  -26.2120  -47.7644 H         1 UNK         0.3000 
    206 H206       -4.7718  -26.6078  -47.9171 H         1 UNK         0.0600 
    207 H207       -4.2945  -29.0282  -47.6705 H         1 UNK         0.0600 
    208 H208       -5.7044  -28.7365  -48.6769 H         1 UNK         0.0600 
    209 H209       -4.1855  -29.2038  -49.4210 H         1 UNK         0.0600 
    210 H210       -3.3027  -27.4458  -51.0535 H         1 UNK         0.3000 
    211 H211       -5.4718  -26.5892  -52.6918 H         1 UNK         0.0600 
    212 H212       -2.5089  -27.0142  -53.3575 H         1 UNK         0.0600 
    213 H213       -3.8062  -26.8740  -54.5392 H         1 UNK         0.0600 
    214 H214       -3.7766  -28.2378  -53.4323 H         1 UNK         0.0600 
    215 H215       -2.7999  -24.7768  -51.2957 H         1 UNK         0.3000 
    216 H216       -2.5887  -22.6309  -53.0795 H         1 UNK         0.0600 
    217 H217       -1.5755  -21.4264  -51.1013 H         1 UNK         0.0600 
    218 H218       -0.9209  -23.0366  -51.3366 H         1 UNK         0.0600 
    219 H219       -2.0996  -22.7400  -50.0587 H         1 UNK         0.0600 
    220 H220       -5.0848  -23.1999  -50.6844 H         1 UNK         0.3000 
    221 H221       -6.1474  -20.5212  -50.5723 H         1 UNK         0.0600 
    222 H222       -7.4156  -23.2357  -49.9123 H         1 UNK         0.0600 
    223 H223       -6.5371  -22.2088  -48.7832 H         1 UNK         0.0600 
    224 H224       -8.0634  -21.6631  -49.4569 H         1 UNK         0.0600 
    225 H225       -6.5362  -23.2345  -52.7922 H         1 UNK         0.3000 
    226 H226       -8.9335  -22.0344  -54.0955 H         1 UNK         0.0600 
    227 H227       -9.0945  -24.2558  -55.1977 H         1 UNK         0.0600 
    228 H228       -7.6323  -24.7951  -54.3803 H         1 UNK         0.0600 
    229 H229       -9.0831  -24.4271  -53.4490 H         1 UNK         0.0600 
    230 H230       -5.5585  -23.0715  -54.6901 H         1 UNK         0.3000 
    231 H231       -5.5061  -21.6085  -57.2952 H         1 UNK         0.0600 
    232 H232       -4.4037  -24.3822  -56.6355 H         1 UNK         0.0600 
    233 H233       -4.0960  -23.4900  -58.1231 H         1 UNK         0.0600 
    234 H234       -5.7286  -24.0117  -57.7350 H         1 UNK         0.0600 
    235 H235       -2.7980  -19.9737  -55.5083 H         1 UNK         0.3000 
    236 H236       -5.7058  -19.7706  -55.8057 H         1 UNK         0.0600 
    237 H237       -4.8077  -19.6836  -58.2011 H         1 UNK         0.0600 
    238 H238       -5.5195  -18.1666  -57.6926 H         1 UNK         0.0600 
    239 H239       -3.7711  -18.3477  -57.7251 H         1 UNK         0.0600 
    240 H240       -3.0745  -19.0354  -54.0118 H         1 UNK         0.3000 
    241 H241       -3.4801  -16.1410  -53.8011 H         1 UNK         0.0600 
    242 H242       -5.2170  -18.0479  -50.6549 H         1 UNK         0.3800 
    243 H243       -4.4854  -19.0072  -51.9268 H         1 UNK         0.3800 
    244 H244       -1.4967  -16.1244  -52.3772 H         1 UNK         0.0800 
    245 H245       -1.1974  -16.8371  -53.9245 H         1 UNK         0.0800 
    246 H246        0.5169  -17.0362  -51.0788 H         1 UNK         0.0800 
    247 H247        0.4635  -18.6137  -50.3355 H         1 UNK         0.0800 
@<TRIPOS>BOND
     1    1    2 1    
     2    1  127 1    
     3    1  128 1    
     4    1  129 1    
     5    2    3 2    
     6    2    4 am   BACKBONE|DICT|INTERRES
     7    4    5 1    
     8    4  130 1    
     9    5    6 1    
    10    5   65 1    
    11    5  131 1    
    12    6    7 1    
    13    6  132 1    
    14    6  133 1    
    15    7    8 1    
    16    8    9 1    
    17    8  134 1    
    18    8  135 1    
    19    9   10 ar   
    20    9   14 ar   
    21   10   11 ar   
    22   10  136 1    
    23   11   12 ar   
    24   11  126 1    
    25   12   13 ar   
    26   12  137 1    
    27   13   14 ar   
    28   13   15 1    
    29   14  138 1    
    30   15   16 1    
    31   15  139 1    
    32   15  140 1    
    33   16   17 1    
    34   17   18 1    
    35   17  141 1    
    36   17  142 1    
    37   18   19 1    
    38   18   67 1    
    39   18  143 1    
    40   19   20 am   BACKBONE|DICT|INTERRES
    41   19  144 1    
    42   20   21 2    
    43   20   22 1    
    44   22   23 1    
    45   22   24 1    
    46   22  145 1    
    47   23  146 1    
    48   23  147 1    
    49   23  148 1    
    50   24   25 am   BACKBONE|DICT|INTERRES
    51   24  149 1    
    52   25   26 2    
    53   25   27 1    
    54   27   28 1    
    55   27   29 1    
    56   27  150 1    
    57   28  151 1    
    58   28  152 1    
    59   28  153 1    
    60   29   30 am   BACKBONE|DICT|INTERRES
    61   29  154 1    
    62   30   31 2    
    63   30   32 1    
    64   32   33 1    
    65   32   34 1    
    66   32  155 1    
    67   33  156 1    
    68   33  157 1    
    69   33  158 1    
    70   34   35 am   BACKBONE|DICT|INTERRES
    71   34  159 1    
    72   35   36 2    
    73   35   37 1    
    74   37   38 1    
    75   37   39 1    
    76   37  160 1    
    77   38  161 1    
    78   38  162 1    
    79   38  163 1    
    80   39   40 am   BACKBONE|DICT|INTERRES
    81   39  164 1    
    82   40   41 2    
    83   40   42 1    
    84   42   43 1    
    85   42   44 1    
    86   42  165 1    
    87   43  166 1    
    88   43  167 1    
    89   43  168 1    
    90   44   45 am   BACKBONE|DICT|INTERRES
    91   44  169 1    
    92   45   46 2    
    93   45   47 1    
    94   47   48 1    
    95   47   49 1    
    96   47  170 1    
    97   48  171 1    
    98   48  172 1    
    99   48  173 1    
   100   49   50 am   BACKBONE|DICT|INTERRES
   101   49  174 1    
   102   50   51 2    
   103   50   52 1    
   104   52   53 1    
   105   52   54 1    
   106   52  175 1    
   107   53  176 1    
   108   53  177 1    
   109   53  178 1    
   110   54   55 am   BACKBONE|DICT|INTERRES
   111   54  179 1    
   112   55   56 2    
   113   55   57 1    
   114   57   58 1    
   115   57   59 1    
   116   57  180 1    
   117   58  181 1    
   118   58  182 1    
   119   58  183 1    
   120   59   60 am   BACKBONE|DICT|INTERRES
   121   59  184 1    
   122   60   61 2    
   123   60   62 1    
   124   62   63 1    
   125   62   64 1    
   126   62  185 1    
   127   63  186 1    
   128   63  187 1    
   129   63  188 1    
   130   64   65 am   BACKBONE|DICT|INTERRES
   131   64  189 1    
   132   65   66 2    
   133   67   68 2    
   134   67   69 am   BACKBONE|DICT|INTERRES
   135   69   70 1    
   136   69  190 1    
   137   70   71 1    
   138   70   72 1    
   139   70  191 1    
   140   71  192 1    
   141   71  193 1    
   142   71  194 1    
   143   72   73 2    
   144   72   74 am   BACKBONE|DICT|INTERRES
   145   74   75 1    
   146   74  195 1    
   147   75   76 1    
   148   75   77 1    
   149   75  196 1    
   150   76  197 1    
   151   76  198 1    
   152   76  199 1    
   153   77   78 2    
   154   77   79 am   BACKBONE|DICT|INTERRES
   155   79   80 1    
   156   79  200 1    
   157   80   81 1    
   158   80   82 1    
   159   80  201 1    
   160   81  202 1    
   161   81  203 1    
   162   81  204 1    
   163   82   83 2    
   164   82   84 am   BACKBONE|DICT|INTERRES
   165   84   85 1    
   166   84  205 1    
   167   85   86 1    
   168   85   87 1    
   169   85  206 1    
   170   86  207 1    
   171   86  208 1    
   172   86  209 1    
   173   87   88 2    
   174   87   89 am   BACKBONE|DICT|INTERRES
   175   89   90 1    
   176   89  210 1    
   177   90   91 1    
   178   90   92 1    
   179   90  211 1    
   180   91  212 1    
   181   91  213 1    
   182   91  214 1    
   183   92   93 2    
   184   92   94 am   BACKBONE|DICT|INTERRES
   185   94   95 1    
   186   94  215 1    
   187   95   96 1    
   188   95   97 1    
   189   95  216 1    
   190   96  217 1    
   191   96  218 1    
   192   96  219 1    
   193   97   98 2    
   194   97   99 am   BACKBONE|DICT|INTERRES
   195   99  100 1    
   196   99  220 1    
   197  100  101 1    
   198  100  102 1    
   199  100  221 1    
   200  101  222 1    
   201  101  223 1    
   202  101  224 1    
   203  102  103 2    
   204  102  104 am   BACKBONE|DICT|INTERRES
   205  104  105 1    
   206  104  225 1    
   207  105  106 1    
   208  105  107 1    
   209  105  226 1    
   210  106  227 1    
   211  106  228 1    
   212  106  229 1    
   213  107  108 2    
   214  107  109 am   BACKBONE|DICT|INTERRES
   215  109  110 1    
   216  109  230 1    
   217  110  111 1    
   218  110  112 1    
   219  110  231 1    
   220  111  232 1    
   221  111  233 1    
   222  111  234 1    
   223  112  113 2    
   224  112  114 am   BACKBONE|DICT|INTERRES
   225  114  115 1    
   226  114  235 1    
   227  115  116 1    
   228  115  117 1    
   229  115  236 1    
   230  116  237 1    
   231  116  238 1    
   232  116  239 1    
   233  117  118 2    
   234  117  119 am   BACKBONE|DICT|INTERRES
   235  119  120 1    
   236  119  240 1    
   237  120  121 1    
   238  120  124 1    
   239  120  241 1    
   240  121  122 am   BACKBONE|DICT|INTERRES
   241  121  123 2    
   242  122  242 1    
   243  122  243 1    
   244  124  125 1    
   245  124  244 1    
   246  124  245 1    
   247  125  126 1    
   248  126  246 1    
   249  126  247 1    
@<TRIPOS>SUBSTRUCTURE
     1 UNK         1 GROUP             0       ****    0 ROOT    
