@<TRIPOS>MOLECULE
3R540
247   249    1
SMALL
USER_CHARGES


@<TRIPOS>ATOM
      1 CA          7.3860  -22.9237  -49.0798 C.3       0 UNK        -0.1800 
      2 C           6.2219  -21.9821  -48.8071 C.2       0 UNK         0.5000 
      3 O           5.5020  -22.1720  -47.8290 O.2       0 UNK        -0.5000 
      4 N           6.0394  -20.9726  -49.6693 N.am      1 UNK        -0.5000 
      5 CA          4.9767  -19.9623  -49.5911 C.3       1 UNK         0.1400 
      6 C6          4.9418  -19.1168  -50.8976 C.3       23 UNK        -0.0398 
      7 S7          3.8122  -17.6812  -50.9157 S.3       23 UNK        -0.2404 
      8 C8          2.2028  -18.5152  -51.0764 C.3       23 UNK        -0.0205 
      9 C9          1.0633  -17.6516  -50.5668 C.ar      23 UNK        -0.0193 
     10 C10        -0.0249  -17.3393  -51.3844 C.ar      23 UNK        -0.1150 
     11 C11        -1.0880  -16.5776  -50.8884 C.ar      23 UNK        -0.0193 
     12 C12        -1.0610  -16.1396  -49.5589 C.ar      23 UNK        -0.1150 
     13 C13         0.0296  -16.4428  -48.7352 C.ar      23 UNK        -0.0193 
     14 C14         1.0856  -17.1934  -49.2496 C.ar      23 UNK        -0.1150 
     15 C15         0.0921  -15.9375  -47.3029 C.3       23 UNK        -0.0205 
     16 S16        -0.4736  -17.1794  -46.1010 S.3       23 UNK        -0.2404 
     17 C17         0.9721  -18.2756  -45.8687 C.3       23 UNK        -0.0398 
     18 CA          0.6799  -19.7863  -46.0604 C.3       11 UNK         0.1400 
     19 N          -0.3359  -20.2803  -45.1211 N.am      11 UNK        -0.5000 
     20 C          -0.6393  -21.5752  -44.9482 C.2       10 UNK         0.5000 
     21 O          -0.0802  -22.4972  -45.5424 O.2       10 UNK        -0.5000 
     22 CA         -1.7827  -21.8968  -43.9761 C.3       10 UNK         0.1400 
     23 CB         -1.2872  -21.8493  -42.5235 C.3       10 UNK        -0.1800 
     24 N          -2.9281  -21.0024  -44.1352 N.am      10 UNK        -0.5000 
     25 C          -3.7796  -21.0282  -45.1690 C.2       9 UNK         0.5000 
     26 O          -3.6338  -21.7456  -46.1570 O.2       9 UNK        -0.5000 
     27 CA         -5.0034  -20.1007  -45.0823 C.3       9 UNK         0.1400 
     28 CB         -6.1028  -20.7393  -44.2201 C.3       9 UNK        -0.1800 
     29 N          -4.6639  -18.7880  -44.5385 N.am      9 UNK        -0.5000 
     30 C          -4.0535  -17.8320  -45.2490 C.2       8 UNK         0.5000 
     31 O          -3.7860  -17.9422  -46.4453 O.2       8 UNK        -0.5000 
     32 CA         -3.6860  -16.5333  -44.5047 C.3       8 UNK         0.1400 
     33 CB         -4.8550  -15.5392  -44.5835 C.3       8 UNK        -0.1800 
     34 N          -3.2835  -16.6834  -43.0998 N.am      8 UNK        -0.5000 
     35 C          -2.3666  -17.5253  -42.5973 C.2       7 UNK         0.5000 
     36 O          -1.8162  -18.4202  -43.2405 O.2       7 UNK        -0.5000 
     37 CA         -1.9867  -17.2811  -41.1271 C.3       7 UNK         0.1400 
     38 CB         -1.0011  -18.3262  -40.5757 C.3       7 UNK        -0.1800 
     39 N          -1.3693  -15.9629  -41.0468 N.am      7 UNK        -0.5000 
     40 C          -1.8214  -14.9219  -40.3356 C.2       6 UNK         0.5000 
     41 O          -2.7804  -14.9843  -39.5657 O.2       6 UNK        -0.5000 
     42 CA         -1.1016  -13.5701  -40.5397 C.3       6 UNK         0.1400 
     43 CB         -0.0387  -13.3575  -39.4512 C.3       6 UNK        -0.1800 
     44 N          -0.4656  -13.4515  -41.8541 N.am      6 UNK        -0.5000 
     45 C          -1.1194  -13.4486  -43.0241 C.2       5 UNK         0.5000 
     46 O          -2.3448  -13.3715  -43.1121 O.2       5 UNK        -0.5000 
     47 CA         -0.2830  -13.5958  -44.3122 C.3       5 UNK         0.1400 
     48 CB         -0.2924  -12.2905  -45.1215 C.3       5 UNK        -0.1800 
     49 N           1.1095  -14.0250  -44.1314 N.am      5 UNK        -0.5000 
     50 C           1.5363  -15.1616  -43.5655 C.2       4 UNK         0.5000 
     51 O           0.7885  -15.9710  -43.0160 O.2       4 UNK        -0.5000 
     52 CA          3.0549  -15.4246  -43.6348 C.3       4 UNK         0.1400 
     53 CB          3.4783  -16.6768  -42.8456 C.3       4 UNK        -0.1800 
     54 N           3.5234  -15.5625  -45.0146 N.am      4 UNK        -0.5000 
     55 C           3.7376  -14.5615  -45.8804 C.2       3 UNK         0.5000 
     56 O           3.5228  -13.3784  -45.6093 O.2       3 UNK        -0.5000 
     57 CA          4.2558  -14.9568  -47.2814 C.3       3 UNK         0.1400 
     58 CB          5.0476  -13.8278  -47.9721 C.3       3 UNK        -0.1800 
     59 N           5.0132  -16.2137  -47.2824 N.am      3 UNK        -0.5000 
     60 C           6.1755  -16.4830  -46.6713 C.2       2 UNK         0.5000 
     61 O           6.8223  -15.6485  -46.0380 O.2       2 UNK        -0.5000 
     62 CA          6.7170  -17.9281  -46.7638 C.3       2 UNK         0.1400 
     63 CB          6.3984  -18.7050  -45.4712 C.3       2 UNK        -0.1800 
     64 N           6.3077  -18.7024  -47.9482 N.am      2 UNK        -0.5000 
     65 C           5.0787  -19.1056  -48.3076 C.2       1 UNK         0.5000 
     66 O           4.0576  -18.8232  -47.6795 O.2       1 UNK        -0.5000 
     67 C           0.3296  -20.1491  -47.5193 C.2       11 UNK         0.5000 
     68 O           1.1941  -20.5907  -48.2767 O.2       11 UNK        -0.5000 
     69 N          -0.9589  -20.0168  -47.8542 N.am      12 UNK        -0.5000 
     70 CA         -1.5240  -20.3723  -49.1455 C.3       12 UNK         0.1400 
     71 CB         -2.9292  -19.7789  -49.2362 C.3       12 UNK        -0.1800 
     72 C          -1.5623  -21.8903  -49.3705 C.2       12 UNK         0.5000 
     73 O          -1.2517  -22.3450  -50.4716 O.2       12 UNK        -0.5000 
     74 N          -1.9562  -22.6568  -48.3433 N.am      13 UNK        -0.5000 
     75 CA         -2.0209  -24.1200  -48.3786 C.3       13 UNK         0.1400 
     76 CB         -2.7260  -24.6476  -47.1218 C.3       13 UNK        -0.1800 
     77 C          -0.6406  -24.7764  -48.5432 C.2       13 UNK         0.5000 
     78 O          -0.5334  -25.7775  -49.2505 O.2       13 UNK        -0.5000 
     79 N           0.3984  -24.1730  -47.9495 N.am      14 UNK        -0.5000 
     80 CA          1.7965  -24.5891  -48.0900 C.3       14 UNK         0.1400 
     81 CB          2.6616  -23.7850  -47.1103 C.3       14 UNK        -0.1800 
     82 C           2.3383  -24.4652  -49.5306 C.2       14 UNK         0.5000 
     83 O           3.2371  -25.2197  -49.9035 O.2       14 UNK        -0.5000 
     84 N           1.7599  -23.5507  -50.3208 N.am      15 UNK        -0.5000 
     85 CA          2.0318  -23.3746  -51.7491 C.3       15 UNK         0.1400 
     86 CB          2.0578  -21.8705  -52.0534 C.3       15 UNK        -0.1800 
     87 C           1.0050  -24.0975  -52.6462 C.2       15 UNK         0.5000 
     88 O           1.0993  -23.9889  -53.8692 O.2       15 UNK        -0.5000 
     89 N           0.0398  -24.8028  -52.0361 N.am      16 UNK        -0.5000 
     90 CA         -1.0802  -25.5225  -52.6543 C.3       16 UNK         0.1400 
     91 CB         -0.5738  -26.6767  -53.5446 C.3       16 UNK        -0.1800 
     92 C          -2.1022  -24.6143  -53.3755 C.2       16 UNK         0.5000 
     93 O          -2.8794  -25.1073  -54.1948 O.2       16 UNK        -0.5000 
     94 N          -2.1123  -23.3156  -53.0459 N.am      17 UNK        -0.5000 
     95 CA         -3.0992  -22.3460  -53.5234 C.3       17 UNK         0.1400 
     96 CB         -2.4902  -20.9347  -53.4750 C.3       17 UNK        -0.1800 
     97 C          -4.3856  -22.4174  -52.6828 C.2       17 UNK         0.5000 
     98 O          -5.4826  -22.4122  -53.2417 O.2       17 UNK        -0.5000 
     99 N          -4.2010  -22.5221  -51.3579 N.am      18 UNK        -0.5000 
    100 CA        -5.2103  -22.5911  -50.2962 C.3       18 UNK         0.1400 
    101 CB        -6.0762  -23.8574  -50.4604 C.3       18 UNK        -0.1800 
    102 C         -6.0779  -21.3207  -50.1580 C.2       18 UNK         0.5000 
    103 O         -6.0104  -20.3970  -50.9746 O.2       18 UNK        -0.5000 
    104 N         -6.9046  -21.3031  -49.1033 N.am      19 UNK        -0.5000 
    105 CA        -7.8452  -20.2231  -48.7861 C.3       19 UNK         0.1400 
    106 CB        -8.4922  -20.5068  -47.4227 C.3       19 UNK        -0.1800 
    107 C         -8.9305  -20.0083  -49.8605 C.2       19 UNK         0.5000 
    108 O         -9.4779  -18.9106  -49.9545 O.2       19 UNK        -0.5000 
    109 N         -9.1935  -21.0390  -50.6765 N.am      20 UNK        -0.5000 
    110 CA       -10.0734  -20.9845  -51.8442 C.3       20 UNK         0.1400 
    111 CB       -10.2083  -22.3972  -52.4327 C.3       20 UNK        -0.1800 
    112 C         -9.5948  -19.9928  -52.9244 C.2       20 UNK         0.5000 
    113 O        -10.4319  -19.4093  -53.6144 O.2       20 UNK        -0.5000 
    114 N         -8.2721  -19.8088  -53.0398 N.am      21 UNK        -0.5000 
    115 CA        -7.6530  -18.8279  -53.9268 C.3       21 UNK         0.1400 
    116 CB        -6.3868  -19.4340  -54.5528 C.3       21 UNK        -0.1800 
    117 C         -7.3074  -17.5391  -53.1652 C.2       21 UNK         0.5000 
    118 O         -7.6165  -16.4486  -53.6473 O.2       21 UNK        -0.5000 
    119 N         -6.6499  -17.6870  -52.0087 N.am      22 UNK        -0.5000 
    120 CA        -6.0265  -16.5792  -51.2646 C.3       22 UNK         0.1400 
    121 C         -6.9442  -15.8778  -50.2238 C.2       22 UNK         0.5000 
    122 N         -8.1451  -16.3619  -49.9387 N.am      22 UNK        -0.7600 
    123 O         -6.5641  -14.8491  -49.6718 O.2       22 UNK        -0.5000 
    124 C124       -4.6894  -17.0291  -50.6277 C.3       23 UNK        -0.0398 
    125 S125       -3.4826  -17.5374  -51.9047 S.3       23 UNK        -0.2404 
    126 C126       -2.2423  -16.2102  -51.8095 C.3       23 UNK        -0.0205 
    127 H127        7.0194  -23.9411  -49.2172 H         1 UNK         0.0600 
    128 H128        7.9396  -22.6380  -49.9745 H         1 UNK         0.0600 
    129 H129        8.0767  -22.9200  -48.2365 H         1 UNK         0.0600 
    130 H130        6.6728  -20.8839  -50.4512 H         1 UNK         0.3000 
    131 H131        4.0329  -20.5065  -49.5181 H         1 UNK         0.0600 
    132 H132        4.6967  -19.7567  -51.7462 H         1 UNK         0.0800 
    133 H133        5.9391  -18.7257  -51.1054 H         1 UNK         0.0800 
    134 H134        2.2011  -19.4279  -50.4830 H         1 UNK         0.0800 
    135 H135        2.0475  -18.8077  -52.1159 H         1 UNK         0.0800 
    136 H136       -0.0493  -17.6898  -52.4067 H         1 UNK         0.1150 
    137 H137       -1.8809  -15.5531  -49.1695 H         1 UNK         0.1150 
    138 H138        1.9347  -17.4318  -48.6278 H         1 UNK         0.1150 
    139 H139        1.1026  -15.6168  -47.0523 H         1 UNK         0.0800 
    140 H140       -0.5364  -15.0517  -47.2052 H         1 UNK         0.0800 
    141 H141        1.3266  -18.1161  -44.8506 H         1 UNK         0.0800 
    142 H142        1.7946  -17.9616  -46.5081 H         1 UNK         0.0800 
    143 H143        1.6050  -20.3185  -45.8278 H         1 UNK         0.0600 
    144 H144       -0.8485  -19.5797  -44.5915 H         1 UNK         0.3000 
    145 H145       -2.1206  -22.9146  -44.1814 H         1 UNK         0.0600 
    146 H146       -2.0877  -22.0850  -41.8222 H         1 UNK         0.0600 
    147 H147       -0.4886  -22.5745  -42.3624 H         1 UNK         0.0600 
    148 H148       -0.8908  -20.8671  -42.2672 H         1 UNK         0.0600 
    149 H149       -3.0447  -20.2914  -43.4271 H         1 UNK         0.3000 
    150 H150       -5.3973  -19.9745  -46.0933 H         1 UNK         0.0600 
    151 H151       -6.3906  -21.7145  -44.6151 H         1 UNK         0.0600 
    152 H152       -6.9992  -20.1191  -44.2018 H         1 UNK         0.0600 
    153 H153       -5.7759  -20.8861  -43.1899 H         1 UNK         0.0600 
    154 H154       -4.8603  -18.6196  -43.5632 H         1 UNK         0.3000 
    155 H155       -2.8422  -16.0841  -45.0275 H         1 UNK         0.0600 
    156 H156       -5.7247  -15.8970  -44.0312 H         1 UNK         0.0600 
    157 H157       -5.1646  -15.3801  -45.6175 H         1 UNK         0.0600 
    158 H158       -4.5767  -14.5664  -44.1784 H         1 UNK         0.0600 
    159 H159       -3.6469  -15.9777  -42.4756 H         1 UNK         0.3000 
    160 H160       -2.9032  -17.3253  -40.5355 H         1 UNK         0.0600 
    161 H161       -0.7212  -18.0972  -39.5475 H         1 UNK         0.0600 
    162 H162       -0.0859  -18.3714  -41.1683 H         1 UNK         0.0600 
    163 H163       -1.4497  -19.3194  -40.5748 H         1 UNK         0.0600 
    164 H164       -0.5930  -15.8204  -41.6895 H         1 UNK         0.3000 
    165 H165       -1.8495  -12.7794  -40.4521 H         1 UNK         0.0600 
    166 H166        0.4298  -12.3774  -39.5426 H         1 UNK         0.0600 
    167 H167       -0.4824  -13.4130  -38.4563 H         1 UNK         0.0600 
    168 H168        0.7466  -14.1128  -39.5031 H         1 UNK         0.0600 
    169 H169        0.5410  -13.5139  -41.8776 H         1 UNK         0.3000 
    170 H170       -0.7800  -14.3648  -44.9045 H         1 UNK         0.0600 
    171 H171       -1.3119  -11.9556  -45.3176 H         1 UNK         0.0600 
    172 H172        0.2220  -11.4878  -44.5917 H         1 UNK         0.0600 
    173 H173        0.1953  -12.4223  -46.0877 H         1 UNK         0.0600 
    174 H174        1.8161  -13.4465  -44.5753 H         1 UNK         0.3000 
    175 H175        3.5528  -14.5654  -43.1805 H         1 UNK         0.0600 
    176 H176        3.0337  -17.5850  -43.2531 H         1 UNK         0.0600 
    177 H177        4.5613  -16.8014  -42.8572 H         1 UNK         0.0600 
    178 H178        3.1727  -16.6026  -41.8011 H         1 UNK         0.0600 
    179 H179        3.7157  -16.5019  -45.3277 H         1 UNK         0.3000 
    180 H180        3.3688  -15.1450  -47.8875 H         1 UNK         0.0600 
    181 H181        5.9151  -13.5220  -47.3870 H         1 UNK         0.0600 
    182 H182        4.4242  -12.9445  -48.1153 H         1 UNK         0.0600 
    183 H183        5.3980  -14.1383  -48.9565 H         1 UNK         0.0600 
    184 H184        4.5460  -17.0088  -47.7092 H         1 UNK         0.3000 
    185 H185        7.8023  -17.8407  -46.8334 H         1 UNK         0.0600 
    186 H186        6.8023  -18.1917  -44.5976 H         1 UNK         0.0600 
    187 H187        5.3250  -18.8152  -45.3144 H         1 UNK         0.0600 
    188 H188        6.8370  -19.7027  -45.4933 H         1 UNK         0.0600 
    189 H189        7.0698  -18.9775  -48.5517 H         1 UNK         0.3000 
    190 H190       -1.5940  -19.6287  -47.1704 H         1 UNK         0.3000 
    191 H191       -0.9073  -19.9250  -49.9278 H         1 UNK         0.0600 
    192 H192       -3.3626  -19.9578  -50.2194 H         1 UNK         0.0600 
    193 H193       -3.6042  -20.1987  -48.4897 H         1 UNK         0.0600 
    194 H194       -2.8936  -18.7010  -49.0806 H         1 UNK         0.0600 
    195 H195       -2.2673  -22.2141  -47.4835 H         1 UNK         0.3000 
    196 H196       -2.6216  -24.4061  -49.2446 H         1 UNK         0.0600 
    197 H197       -2.7704  -25.7374  -47.1254 H         1 UNK         0.0600 
    198 H198       -3.7517  -24.2836  -47.0637 H         1 UNK         0.0600 
    199 H199       -2.2074  -24.3424  -46.2128 H         1 UNK         0.0600 
    200 H200        0.2188  -23.3841  -47.3354 H         1 UNK         0.3000 
    201 H201        1.8568  -25.6423  -47.8086 H         1 UNK         0.0600 
    202 H202        2.3177  -23.9090  -46.0834 H         1 UNK         0.0600 
    203 H203        2.6488  -22.7194  -47.3422 H         1 UNK         0.0600 
    204 H204        3.6997  -24.1169  -47.1465 H         1 UNK         0.0600 
    205 H205        1.0277  -22.9713  -49.9311 H         1 UNK         0.3000 
    206 H206        3.0135  -23.7831  -51.9968 H         1 UNK         0.0600 
    207 H207        2.8601  -21.3885  -51.4985 H         1 UNK         0.0600 
    208 H208        2.2402  -21.6785  -53.1114 H         1 UNK         0.0600 
    209 H209        1.1166  -21.3879  -51.7863 H         1 UNK         0.0600 
    210 H210        0.0616  -24.8510  -51.0245 H         1 UNK         0.3000 
    211 H211       -1.6288  -25.9732  -51.8264 H         1 UNK         0.0600 
    212 H212       -0.0838  -26.3097  -54.4467 H         1 UNK         0.0600 
    213 H213       -1.3973  -27.3181  -53.8606 H         1 UNK         0.0600 
    214 H214        0.1363  -27.3058  -53.0080 H         1 UNK         0.0600 
    215 H215       -1.4789  -22.9988  -52.3190 H         1 UNK         0.3000 
    216 H216       -3.3552  -22.5691  -54.5613 H         1 UNK         0.0600 
    217 H217       -3.1971  -20.1923  -53.8467 H         1 UNK         0.0600 
    218 H218       -1.5958  -20.8709  -54.0946 H         1 UNK         0.0600 
    219 H219       -2.2143  -20.6419  -52.4614 H         1 UNK         0.0600 
    220 H220       -3.2399  -22.5144  -51.0413 H         1 UNK         0.3000 
    221 H221       -4.6548  -22.6857  -49.3626 H         1 UNK         0.0600 
    222 H222       -6.7362  -23.7901  -51.3259 H         1 UNK         0.0600 
    223 H223       -5.4541  -24.7440  -50.5844 H         1 UNK         0.0600 
    224 H224       -6.7036  -24.0293  -49.5855 H         1 UNK         0.0600 
    225 H225       -6.9049  -22.0897  -48.4702 H         1 UNK         0.3000 
    226 H226       -7.2737  -19.2954  -48.7098 H         1 UNK         0.0600 
    227 H227       -9.0717  -21.4307  -47.4365 H         1 UNK         0.0600 
    228 H228       -9.1672  -19.6997  -47.1350 H         1 UNK         0.0600 
    229 H229       -7.7413  -20.5936  -46.6391 H         1 UNK         0.0600 
    230 H230       -8.7021  -21.9060  -50.5212 H         1 UNK         0.3000 
    231 H231      -11.0583  -20.6560  -51.5060 H         1 UNK         0.0600 
    232 H232      -10.6208  -23.0926  -51.7015 H         1 UNK         0.0600 
    233 H233       -9.2452  -22.7882  -52.7639 H         1 UNK         0.0600 
    234 H234      -10.8772  -22.3989  -53.2944 H         1 UNK         0.0600 
    235 H235       -7.6476  -20.3110  -52.4202 H         1 UNK         0.3000 
    236 H236       -8.3337  -18.5692  -54.7406 H         1 UNK         0.0600 
    237 H237       -6.6183  -20.3394  -55.1139 H         1 UNK         0.0600 
    238 H238       -5.9172  -18.7319  -55.2427 H         1 UNK         0.0600 
    239 H239       -5.6467  -19.6920  -53.7946 H         1 UNK         0.0600 
    240 H240       -6.4203  -18.6221  -51.6857 H         1 UNK         0.3000 
    241 H241       -5.7770  -15.7928  -51.9801 H         1 UNK         0.0600 
    242 H242       -8.7193  -15.8738  -49.2706 H         1 UNK         0.3800 
    243 H243       -8.4872  -17.2284  -50.3375 H         1 UNK         0.3800 
    244 H244       -4.8706  -17.8682  -49.9556 H         1 UNK         0.0800 
    245 H245       -4.2541  -16.2396  -50.0131 H         1 UNK         0.0800 
    246 H246       -2.7061  -15.2735  -51.4973 H         1 UNK         0.0800 
    247 H247       -1.8560  -16.0289  -52.8135 H         1 UNK         0.0800 
@<TRIPOS>BOND
     1    1    2 1    
     2    1  127 1    
     3    1  128 1    
     4    1  129 1    
     5    2    3 2    
     6    2    4 am   BACKBONE|DICT|INTERRES
     7    4    5 1    
     8    4  130 1    
     9    5    6 1    
    10    5   65 1    
    11    5  131 1    
    12    6    7 1    
    13    6  132 1    
    14    6  133 1    
    15    7    8 1    
    16    8    9 1    
    17    8  134 1    
    18    8  135 1    
    19    9   10 ar   
    20    9   14 ar   
    21   10   11 ar   
    22   10  136 1    
    23   11   12 ar   
    24   11  126 1    
    25   12   13 ar   
    26   12  137 1    
    27   13   14 ar   
    28   13   15 1    
    29   14  138 1    
    30   15   16 1    
    31   15  139 1    
    32   15  140 1    
    33   16   17 1    
    34   17   18 1    
    35   17  141 1    
    36   17  142 1    
    37   18   19 1    
    38   18   67 1    
    39   18  143 1    
    40   19   20 am   BACKBONE|DICT|INTERRES
    41   19  144 1    
    42   20   21 2    
    43   20   22 1    
    44   22   23 1    
    45   22   24 1    
    46   22  145 1    
    47   23  146 1    
    48   23  147 1    
    49   23  148 1    
    50   24   25 am   BACKBONE|DICT|INTERRES
    51   24  149 1    
    52   25   26 2    
    53   25   27 1    
    54   27   28 1    
    55   27   29 1    
    56   27  150 1    
    57   28  151 1    
    58   28  152 1    
    59   28  153 1    
    60   29   30 am   BACKBONE|DICT|INTERRES
    61   29  154 1    
    62   30   31 2    
    63   30   32 1    
    64   32   33 1    
    65   32   34 1    
    66   32  155 1    
    67   33  156 1    
    68   33  157 1    
    69   33  158 1    
    70   34   35 am   BACKBONE|DICT|INTERRES
    71   34  159 1    
    72   35   36 2    
    73   35   37 1    
    74   37   38 1    
    75   37   39 1    
    76   37  160 1    
    77   38  161 1    
    78   38  162 1    
    79   38  163 1    
    80   39   40 am   BACKBONE|DICT|INTERRES
    81   39  164 1    
    82   40   41 2    
    83   40   42 1    
    84   42   43 1    
    85   42   44 1    
    86   42  165 1    
    87   43  166 1    
    88   43  167 1    
    89   43  168 1    
    90   44   45 am   BACKBONE|DICT|INTERRES
    91   44  169 1    
    92   45   46 2    
    93   45   47 1    
    94   47   48 1    
    95   47   49 1    
    96   47  170 1    
    97   48  171 1    
    98   48  172 1    
    99   48  173 1    
   100   49   50 am   BACKBONE|DICT|INTERRES
   101   49  174 1    
   102   50   51 2    
   103   50   52 1    
   104   52   53 1    
   105   52   54 1    
   106   52  175 1    
   107   53  176 1    
   108   53  177 1    
   109   53  178 1    
   110   54   55 am   BACKBONE|DICT|INTERRES
   111   54  179 1    
   112   55   56 2    
   113   55   57 1    
   114   57   58 1    
   115   57   59 1    
   116   57  180 1    
   117   58  181 1    
   118   58  182 1    
   119   58  183 1    
   120   59   60 am   BACKBONE|DICT|INTERRES
   121   59  184 1    
   122   60   61 2    
   123   60   62 1    
   124   62   63 1    
   125   62   64 1    
   126   62  185 1    
   127   63  186 1    
   128   63  187 1    
   129   63  188 1    
   130   64   65 am   BACKBONE|DICT|INTERRES
   131   64  189 1    
   132   65   66 2    
   133   67   68 2    
   134   67   69 am   BACKBONE|DICT|INTERRES
   135   69   70 1    
   136   69  190 1    
   137   70   71 1    
   138   70   72 1    
   139   70  191 1    
   140   71  192 1    
   141   71  193 1    
   142   71  194 1    
   143   72   73 2    
   144   72   74 am   BACKBONE|DICT|INTERRES
   145   74   75 1    
   146   74  195 1    
   147   75   76 1    
   148   75   77 1    
   149   75  196 1    
   150   76  197 1    
   151   76  198 1    
   152   76  199 1    
   153   77   78 2    
   154   77   79 am   BACKBONE|DICT|INTERRES
   155   79   80 1    
   156   79  200 1    
   157   80   81 1    
   158   80   82 1    
   159   80  201 1    
   160   81  202 1    
   161   81  203 1    
   162   81  204 1    
   163   82   83 2    
   164   82   84 am   BACKBONE|DICT|INTERRES
   165   84   85 1    
   166   84  205 1    
   167   85   86 1    
   168   85   87 1    
   169   85  206 1    
   170   86  207 1    
   171   86  208 1    
   172   86  209 1    
   173   87   88 2    
   174   87   89 am   BACKBONE|DICT|INTERRES
   175   89   90 1    
   176   89  210 1    
   177   90   91 1    
   178   90   92 1    
   179   90  211 1    
   180   91  212 1    
   181   91  213 1    
   182   91  214 1    
   183   92   93 2    
   184   92   94 am   BACKBONE|DICT|INTERRES
   185   94   95 1    
   186   94  215 1    
   187   95   96 1    
   188   95   97 1    
   189   95  216 1    
   190   96  217 1    
   191   96  218 1    
   192   96  219 1    
   193   97   98 2    
   194   97   99 am   BACKBONE|DICT|INTERRES
   195   99  100 1    
   196   99  220 1    
   197  100  101 1    
   198  100  102 1    
   199  100  221 1    
   200  101  222 1    
   201  101  223 1    
   202  101  224 1    
   203  102  103 2    
   204  102  104 am   BACKBONE|DICT|INTERRES
   205  104  105 1    
   206  104  225 1    
   207  105  106 1    
   208  105  107 1    
   209  105  226 1    
   210  106  227 1    
   211  106  228 1    
   212  106  229 1    
   213  107  108 2    
   214  107  109 am   BACKBONE|DICT|INTERRES
   215  109  110 1    
   216  109  230 1    
   217  110  111 1    
   218  110  112 1    
   219  110  231 1    
   220  111  232 1    
   221  111  233 1    
   222  111  234 1    
   223  112  113 2    
   224  112  114 am   BACKBONE|DICT|INTERRES
   225  114  115 1    
   226  114  235 1    
   227  115  116 1    
   228  115  117 1    
   229  115  236 1    
   230  116  237 1    
   231  116  238 1    
   232  116  239 1    
   233  117  118 2    
   234  117  119 am   BACKBONE|DICT|INTERRES
   235  119  120 1    
   236  119  240 1    
   237  120  121 1    
   238  120  124 1    
   239  120  241 1    
   240  121  122 am   BACKBONE|DICT|INTERRES
   241  121  123 2    
   242  122  242 1    
   243  122  243 1    
   244  124  125 1    
   245  124  244 1    
   246  124  245 1    
   247  125  126 1    
   248  126  246 1    
   249  126  247 1    
@<TRIPOS>SUBSTRUCTURE
     1 UNK         1 GROUP             0       ****    0 ROOT    
