@<TRIPOS>MOLECULE
3R540
247   249    1
SMALL
USER_CHARGES


@<TRIPOS>ATOM
      1 CA          5.7293  -10.1172  -47.2200 C.3       0 UNK        -0.1800 
      2 C           4.6161  -11.1445  -47.3700 C.2       0 UNK         0.5000 
      3 O           4.6315  -11.9348  -48.3135 O.2       0 UNK        -0.5000 
      4 N           3.6568  -11.1395  -46.4403 N.am      1 UNK        -0.5000 
      5 CA          2.5496  -12.0886  -46.3548 C.3       1 UNK         0.1400 
      6 C6          1.4536  -11.8412  -47.4297 C.3       23 UNK        -0.0398 
      7 S7          0.5336  -13.3617  -47.8405 S.3       23 UNK        -0.2404 
      8 C8          1.5936  -14.0467  -49.1517 C.3       23 UNK        -0.0205 
      9 C9          1.1680  -15.4586  -49.5208 C.ar      23 UNK        -0.0193 
     10 C10         0.1285  -15.6626  -50.4326 C.ar      23 UNK        -0.1150 
     11 C11        -0.2749  -16.9575  -50.7705 C.ar      23 UNK        -0.0193 
     12 C12         0.3761  -18.0527  -50.1965 C.ar      23 UNK        -0.1150 
     13 C13         1.4093  -17.8620  -49.2728 C.ar      23 UNK        -0.0193 
     14 C14         1.8076  -16.5623  -48.9474 C.ar      23 UNK        -0.1150 
     15 C15         2.0886  -19.0600  -48.6208 C.3       23 UNK        -0.0205 
     16 S16         1.5571  -19.3122  -46.8929 S.3       23 UNK        -0.2404 
     17 C17        -0.2178  -19.6794  -47.0972 C.3       23 UNK        -0.0398 
     18 CA         -0.5124  -21.1961  -47.0965 C.3       11 UNK         0.1400 
     19 N          -0.2552  -21.8278  -45.7993 N.am      11 UNK        -0.5000 
     20 C          -0.1556  -23.1519  -45.6101 C.2       10 UNK         0.5000 
     21 O          -0.2332  -23.9753  -46.5208 O.2       10 UNK        -0.5000 
     22 CA          0.0093  -23.6480  -44.1593 C.3       10 UNK         0.1400 
     23 CB          1.4947  -23.6884  -43.7719 C.3       10 UNK        -0.1800 
     24 N          -0.7192  -22.8336  -43.1857 N.am      10 UNK        -0.5000 
     25 C          -2.0478  -22.6562  -43.1754 C.2       9 UNK         0.5000 
     26 O          -2.8153  -23.2467  -43.9350 O.2       9 UNK        -0.5000 
     27 CA         -2.6122  -21.6030  -42.1985 C.3       9 UNK         0.1400 
     28 CB         -3.1614  -22.2858  -40.9375 C.3       9 UNK        -0.1800 
     29 N          -1.6616  -20.5546  -41.8013 N.am      9 UNK        -0.5000 
     30 C          -1.0050  -19.7357  -42.6354 C.2       8 UNK         0.5000 
     31 O          -1.1058  -19.7991  -43.8634 O.2       8 UNK        -0.5000 
     32 CA         -0.0535  -18.7071  -42.0003 C.3       8 UNK         0.1400 
     33 CB          0.8758  -19.3411  -40.9443 C.3       8 UNK        -0.1800 
     34 N           0.7495  -18.0955  -43.0552 N.am      8 UNK        -0.5000 
     35 C           1.3478  -16.9047  -42.9916 C.2       7 UNK         0.5000 
     36 O           1.2620  -16.1378  -42.0274 O.2       7 UNK        -0.5000 
     37 CA          2.1764  -16.5017  -44.2194 C.3       7 UNK         0.1400 
     38 CB          1.2743  -15.9424  -45.3287 C.3       7 UNK        -0.1800 
     39 N           3.1289  -15.4764  -43.8094 N.am      7 UNK        -0.5000 
     40 C           4.4441  -15.4806  -44.0519 C.2       6 UNK         0.5000 
     41 O           5.0020  -16.3059  -44.7756 O.2       6 UNK        -0.5000 
     42 CA          5.2871  -14.3853  -43.3674 C.3       6 UNK         0.1400 
     43 CB          5.9119  -13.4422  -44.4067 C.3       6 UNK        -0.1800 
     44 N           4.5079  -13.5865  -42.4186 N.am      6 UNK        -0.5000 
     45 C           4.3575  -13.8672  -41.1164 C.2       5 UNK         0.5000 
     46 O           4.8692  -14.8476  -40.5733 O.2       5 UNK        -0.5000 
     47 CA          3.4765  -12.9008  -40.2916 C.3       5 UNK         0.1400 
     48 CB          3.8650  -12.8576  -38.7992 C.3       5 UNK        -0.1800 
     49 N           3.4048  -11.5483  -40.8577 N.am      5 UNK        -0.5000 
     50 C           4.4100  -10.6735  -41.0312 C.2       4 UNK         0.5000 
     51 O           5.5591  -10.8661  -40.6325 O.2       4 UNK        -0.5000 
     52 CA          4.0952   -9.3817  -41.8150 C.3       4 UNK         0.1400 
     53 CB          5.0446   -9.2346  -43.0177 C.3       4 UNK        -0.1800 
     54 N           2.7194   -9.3710  -42.3149 N.am      4 UNK        -0.5000 
     55 C           1.7028   -8.6741  -41.7905 C.2       3 UNK         0.5000 
     56 O           1.8231   -7.8927  -40.8466 O.2       3 UNK        -0.5000 
     57 CA          0.3079   -8.8990  -42.4136 C.3       3 UNK         0.1400 
     58 CB         -0.0124   -7.7859  -43.4227 C.3       3 UNK        -0.1800 
     59 N           0.1584  -10.1974  -43.0791 N.am      3 UNK        -0.5000 
     60 C           0.1969  -11.3877  -42.4639 C.2       2 UNK         0.5000 
     61 O           0.3369  -11.5229  -41.2488 O.2       2 UNK        -0.5000 
     62 CA          0.1457  -12.6386  -43.3620 C.3       2 UNK         0.1400 
     63 CB         -1.3055  -13.1035  -43.5532 C.3       2 UNK        -0.1800 
     64 N           0.7760  -12.4691  -44.6773 N.am      2 UNK        -0.5000 
     65 C           2.0470  -12.1065  -44.8965 C.2       1 UNK         0.5000 
     66 O           2.8224  -11.7953  -43.9873 O.2       1 UNK        -0.5000 
     67 C          -1.9561  -21.4535  -47.5623 C.2       11 UNK         0.5000 
     68 O          -2.1687  -21.7181  -48.7449 O.2       11 UNK        -0.5000 
     69 N          -2.9154  -21.4036  -46.6263 N.am      12 UNK        -0.5000 
     70 CA         -4.3226  -21.7136  -46.8814 C.3       12 UNK         0.1400 
     71 CB         -5.1766  -21.3157  -45.6681 C.3       12 UNK        -0.1800 
     72 C          -4.5242  -23.1942  -47.2473 C.2       12 UNK         0.5000 
     73 O          -5.2464  -23.4893  -48.1988 O.2       12 UNK        -0.5000 
     74 N          -3.8357  -24.0892  -46.5245 N.am      13 UNK        -0.5000 
     75 CA         -3.7890  -25.5245  -46.8012 C.3       13 UNK         0.1400 
     76 CB         -3.0357  -26.2432  -45.6722 C.3       13 UNK        -0.1800 
     77 C          -3.1630  -25.8418  -48.1716 C.2       13 UNK         0.5000 
     78 O          -3.7213  -26.6467  -48.9170 O.2       13 UNK        -0.5000 
     79 N          -2.0449  -25.1764  -48.4984 N.am      14 UNK        -0.5000 
     80 CA         -1.3716  -25.2781  -49.7941 C.3       14 UNK         0.1400 
     81 CB         -0.0375  -24.5180  -49.7562 C.3       14 UNK        -0.1800 
     82 C          -2.2492  -24.7856  -50.9575 C.2       14 UNK         0.5000 
     83 O          -2.3327  -25.4689  -51.9769 O.2       14 UNK        -0.5000 
     84 N          -2.9209  -23.6401  -50.7714 N.am      15 UNK        -0.5000 
     85 CA         -3.8780  -23.0774  -51.7242 C.3       15 UNK         0.1400 
     86 CB         -4.3365  -21.6907  -51.2474 C.3       15 UNK        -0.1800 
     87 C          -5.0830  -24.0033  -51.9623 C.2       15 UNK         0.5000 
     88 O          -5.4403  -24.2450  -53.1164 O.2       15 UNK        -0.5000 
     89 N          -5.6599  -24.5359  -50.8746 N.am      16 UNK        -0.5000 
     90 CA         -6.7594  -25.5040  -50.8894 C.3       16 UNK         0.1400 
     91 CB         -7.2289  -25.7799  -49.4534 C.3       16 UNK        -0.1800 
     92 C          -6.4025  -26.8152  -51.6100 C.2       16 UNK         0.5000 
     93 O          -7.2197  -27.3235  -52.3781 O.2       16 UNK        -0.5000 
     94 N          -5.1835  -27.3187  -51.3747 N.am      17 UNK        -0.5000 
     95 CA         -4.6325  -28.4935  -52.0487 C.3       17 UNK         0.1400 
     96 CB         -3.3515  -28.9417  -51.3286 C.3       17 UNK        -0.1800 
     97 C          -4.3601  -28.2519  -53.5456 C.2       17 UNK         0.5000 
     98 O          -4.5665  -29.1628  -54.3486 O.2       17 UNK        -0.5000 
     99 N          -3.9007  -27.0410  -53.8907 N.am      18 UNK        -0.5000 
    100 CA        -3.5895  -26.6246  -55.2552 C.3       18 UNK         0.1400 
    101 CB        -2.7602  -25.3289  -55.2342 C.3       18 UNK        -0.1800 
    102 C         -4.8440  -26.4732  -56.1326 C.2       18 UNK         0.5000 
    103 O         -4.9729  -27.1927  -57.1249 O.2       18 UNK        -0.5000 
    104 N         -5.7289  -25.5320  -55.7749 N.am      19 UNK        -0.5000 
    105 CA        -6.8748  -25.1425  -56.6083 C.3       19 UNK         0.1400 
    106 CB        -6.3731  -24.3187  -57.8160 C.3       19 UNK        -0.1800 
    107 C         -7.9729  -24.3654  -55.8561 C.2       19 UNK         0.5000 
    108 O         -8.9249  -23.9219  -56.4998 O.2       19 UNK        -0.5000 
    109 N         -7.8182  -24.1663  -54.5384 N.am      20 UNK        -0.5000 
    110 CA        -8.5562  -23.2055  -53.7056 C.3       20 UNK         0.1400 
    111 CB       -10.0616  -23.5355  -53.6290 C.3       20 UNK        -0.1800 
    112 C         -8.2523  -21.7485  -54.1152 C.2       20 UNK         0.5000 
    113 O         -9.1320  -20.8867  -54.0754 O.2       20 UNK        -0.5000 
    114 N         -6.9943  -21.5119  -54.5030 N.am      21 UNK        -0.5000 
    115 CA        -6.4399  -20.2448  -54.9567 C.3       21 UNK         0.1400 
    116 CB        -6.8380  -19.9938  -56.4225 C.3       21 UNK        -0.1800 
    117 C         -4.9140  -20.3147  -54.8030 C.2       21 UNK         0.5000 
    118 O         -4.3568  -21.4141  -54.7380 O.2       21 UNK        -0.5000 
    119 N         -4.2715  -19.1442  -54.7395 N.am      22 UNK        -0.5000 
    120 CA        -2.8124  -18.9921  -54.6392 C.3       22 UNK         0.1400 
    121 C         -2.0656  -19.5113  -55.9023 C.2       22 UNK         0.5000 
    122 N         -0.9487  -20.2059  -55.7346 N.am      22 UNK        -0.7600 
    123 O         -2.4743  -19.2562  -57.0332 O.2       22 UNK        -0.5000 
    124 C124       -2.4405  -17.5193  -54.3245 C.3       23 UNK        -0.0398 
    125 S125       -0.8493  -17.3625  -53.4442 S.3       23 UNK        -0.2404 
    126 C126       -1.4318  -17.1729  -51.7324 C.3       23 UNK        -0.0205 
    127 H127        6.6896  -10.6201  -47.1065 H         1 UNK         0.0600 
    128 H128        5.5764   -9.4772  -46.3505 H         1 UNK         0.0600 
    129 H129        5.7769   -9.4829  -48.1051 H         1 UNK         0.0600 
    130 H130        3.7207  -10.5101  -45.6516 H         1 UNK         0.3000 
    131 H131        2.9790  -13.0796  -46.5172 H         1 UNK         0.0600 
    132 H132        0.7553  -11.0636  -47.1158 H         1 UNK         0.0800 
    133 H133        1.8978  -11.4677  -48.3532 H         1 UNK         0.0800 
    134 H134        1.5486  -13.4018  -50.0306 H         1 UNK         0.0800 
    135 H135        2.6338  -14.0450  -48.8217 H         1 UNK         0.0800 
    136 H136       -0.3731  -14.8114  -50.8713 H         1 UNK         0.1150 
    137 H137        0.0631  -19.0546  -50.4555 H         1 UNK         0.1150 
    138 H138        2.6082  -16.4130  -48.2368 H         1 UNK         0.1150 
    139 H139        1.8971  -19.9700  -49.1916 H         1 UNK         0.0800 
    140 H140        3.1693  -18.9127  -48.6377 H         1 UNK         0.0800 
    141 H141       -0.5789  -19.2215  -48.0164 H         1 UNK         0.0800 
    142 H142       -0.7654  -19.1760  -46.3009 H         1 UNK         0.0800 
    143 H143        0.1458  -21.6633  -47.8324 H         1 UNK         0.0600 
    144 H144       -0.2534  -21.2091  -44.9962 H         1 UNK         0.3000 
    145 H145       -0.3870  -24.6641  -44.1086 H         1 UNK         0.0600 
    146 H146        1.6319  -24.1120  -42.7769 H         1 UNK         0.0600 
    147 H147        2.0626  -24.3067  -44.4684 H         1 UNK         0.0600 
    148 H148        1.9399  -22.6925  -43.7785 H         1 UNK         0.0600 
    149 H149       -0.1646  -22.3137  -42.5226 H         1 UNK         0.3000 
    150 H150       -3.4427  -21.1104  -42.7080 H         1 UNK         0.0600 
    151 H151       -2.3686  -22.7669  -40.3634 H         1 UNK         0.0600 
    152 H152       -3.8926  -23.0535  -41.1950 H         1 UNK         0.0600 
    153 H153       -3.6621  -21.5694  -40.2861 H         1 UNK         0.0600 
    154 H154       -1.5165  -20.4457  -40.8079 H         1 UNK         0.3000 
    155 H155       -0.6713  -17.9403  -41.5287 H         1 UNK         0.0600 
    156 H156        1.4674  -20.1538  -41.3677 H         1 UNK         0.0600 
    157 H157        0.3129  -19.7436  -40.1018 H         1 UNK         0.0600 
    158 H158        1.5690  -18.6061  -40.5348 H         1 UNK         0.0600 
    159 H159        0.7803  -18.6300  -43.9142 H         1 UNK         0.3000 
    160 H160        2.7013  -17.3850  -44.5893 H         1 UNK         0.0600 
    161 H161        0.6330  -15.1438  -44.9628 H         1 UNK         0.0600 
    162 H162        0.6224  -16.7153  -45.7356 H         1 UNK         0.0600 
    163 H163        1.8666  -15.5473  -46.1526 H         1 UNK         0.0600 
    164 H164        2.7741  -14.8218  -43.1265 H         1 UNK         0.3000 
    165 H165        6.1012  -14.8851  -42.8386 H         1 UNK         0.0600 
    166 H166        6.5612  -13.9878  -45.0924 H         1 UNK         0.0600 
    167 H167        5.1494  -12.9471  -45.0038 H         1 UNK         0.0600 
    168 H168        6.5168  -12.6713  -43.9288 H         1 UNK         0.0600 
    169 H169        4.0250  -12.7804  -42.8043 H         1 UNK         0.3000 
    170 H170        2.4638  -13.3021  -40.3521 H         1 UNK         0.0600 
    171 H171        3.7570  -13.8402  -38.3385 H         1 UNK         0.0600 
    172 H172        4.8993  -12.5437  -38.6569 H         1 UNK         0.0600 
    173 H173        3.2256  -12.1701  -38.2455 H         1 UNK         0.0600 
    174 H174        2.4886  -11.2792  -41.1938 H         1 UNK         0.3000 
    175 H175        4.2633   -8.5403  -41.1400 H         1 UNK         0.0600 
    176 H176        6.0817   -9.1514  -42.6907 H         1 UNK         0.0600 
    177 H177        4.9823  -10.0923  -43.6883 H         1 UNK         0.0600 
    178 H178        4.8158   -8.3385  -43.5947 H         1 UNK         0.0600 
    179 H179        2.5257  -10.0273  -43.0628 H         1 UNK         0.3000 
    180 H180       -0.4235   -8.8499  -41.6043 H         1 UNK         0.0600 
    181 H181        0.6763   -7.7992  -44.2684 H         1 UNK         0.0600 
    182 H182        0.0596   -6.8024  -42.9562 H         1 UNK         0.0600 
    183 H183       -1.0259   -7.8851  -43.8119 H         1 UNK         0.0600 
    184 H184        0.0464  -10.1819  -44.0820 H         1 UNK         0.3000 
    185 H185        0.6891  -13.4297  -42.8415 H         1 UNK         0.0600 
    186 H186       -1.7963  -13.2578  -42.5912 H         1 UNK         0.0600 
    187 H187       -1.8924  -12.3705  -44.1081 H         1 UNK         0.0600 
    188 H188       -1.3527  -14.0491  -44.0929 H         1 UNK         0.0600 
    189 H189        0.2089  -12.7158  -45.4778 H         1 UNK         0.3000 
    190 H190       -2.6543  -21.2014  -45.6720 H         1 UNK         0.3000 
    191 H191       -4.6488  -21.1132  -47.7333 H         1 UNK         0.0600 
    192 H192       -5.0554  -20.2589  -45.4295 H         1 UNK         0.0600 
    193 H193       -6.2353  -21.4840  -45.8691 H         1 UNK         0.0600 
    194 H194       -4.9192  -21.8919  -44.7798 H         1 UNK         0.0600 
    195 H195       -3.3087  -23.7615  -45.7197 H         1 UNK         0.3000 
    196 H196       -4.8167  -25.8932  -46.8117 H         1 UNK         0.0600 
    197 H197       -3.0227  -27.3212  -45.8369 H         1 UNK         0.0600 
    198 H198       -3.5104  -26.0661  -44.7068 H         1 UNK         0.0600 
    199 H199       -2.0006  -25.9093  -45.6011 H         1 UNK         0.0600 
    200 H200       -1.6106  -24.5713  -47.8085 H         1 UNK         0.3000 
    201 H201       -1.1528  -26.3333  -49.9701 H         1 UNK         0.0600 
    202 H202        0.4828  -24.5952  -50.7117 H         1 UNK         0.0600 
    203 H203        0.6254  -24.9241  -48.9922 H         1 UNK         0.0600 
    204 H204       -0.1818  -23.4584  -49.5458 H         1 UNK         0.0600 
    205 H205       -2.7607  -23.1077  -49.9205 H         1 UNK         0.3000 
    206 H206       -3.3628  -22.9546  -52.6789 H         1 UNK         0.0600 
    207 H207       -3.4996  -20.9931  -51.2087 H         1 UNK         0.0600 
    208 H208       -5.0808  -21.2687  -51.9230 H         1 UNK         0.0600 
    209 H209       -4.7833  -21.7318  -50.2542 H         1 UNK         0.0600 
    210 H210       -5.3249  -24.2531  -49.9569 H         1 UNK         0.3000 
    211 H211       -7.5943  -25.0568  -51.4277 H         1 UNK         0.0600 
    212 H212       -6.4289  -26.1943  -48.8399 H         1 UNK         0.0600 
    213 H213       -8.0552  -26.4918  -49.4415 H         1 UNK         0.0600 
    214 H214       -7.5800  -24.8670  -48.9723 H         1 UNK         0.0600 
    215 H215       -4.5924  -26.8714  -50.6800 H         1 UNK         0.3000 
    216 H216       -5.3638  -29.3006  -51.9706 H         1 UNK         0.0600 
    217 H217       -2.9282  -29.8297  -51.7993 H         1 UNK         0.0600 
    218 H218       -3.5522  -29.1899  -50.2862 H         1 UNK         0.0600 
    219 H219       -2.5872  -28.1641  -51.3451 H         1 UNK         0.0600 
    220 H220       -3.6964  -26.3709  -53.1564 H         1 UNK         0.3000 
    221 H221       -2.9675  -27.4011  -55.7056 H         1 UNK         0.0600 
    222 H222       -3.2810  -24.5153  -54.7291 H         1 UNK         0.0600 
    223 H223       -1.8094  -25.4808  -54.7234 H         1 UNK         0.0600 
    224 H224       -2.5336  -24.9931  -56.2468 H         1 UNK         0.0600 
    225 H225       -5.5492  -24.9931  -54.9337 H         1 UNK         0.3000 
    226 H226       -7.3550  -26.0497  -56.9807 H         1 UNK         0.0600 
    227 H227       -7.1959  -24.0199  -58.4665 H         1 UNK         0.0600 
    228 H228       -5.8649  -23.4099  -57.4910 H         1 UNK         0.0600 
    229 H229       -5.6779  -24.8868  -58.4335 H         1 UNK         0.0600 
    230 H230       -6.9966  -24.5522  -54.0847 H         1 UNK         0.3000 
    231 H231       -8.1563  -23.3029  -52.6975 H         1 UNK         0.0600 
    232 H232      -10.5716  -23.3524  -54.5746 H         1 UNK         0.0600 
    233 H233      -10.5538  -22.9222  -52.8735 H         1 UNK         0.0600 
    234 H234      -10.2223  -24.5782  -53.3553 H         1 UNK         0.0600 
    235 H235       -6.3105  -22.2590  -54.4612 H         1 UNK         0.3000 
    236 H236       -6.8194  -19.4396  -54.3244 H         1 UNK         0.0600 
    237 H237       -7.9202  -19.9266  -56.5344 H         1 UNK         0.0600 
    238 H238       -6.4160  -19.0578  -56.7901 H         1 UNK         0.0600 
    239 H239       -6.4841  -20.7931  -57.0749 H         1 UNK         0.0600 
    240 H240       -4.8014  -18.2909  -54.8382 H         1 UNK         0.3000 
    241 H241       -2.5077  -19.6085  -53.7904 H         1 UNK         0.0600 
    242 H242       -0.4501  -20.5360  -56.5460 H         1 UNK         0.3800 
    243 H243       -0.5843  -20.4029  -54.8156 H         1 UNK         0.3800 
    244 H244       -2.4028  -16.9179  -55.2348 H         1 UNK         0.0800 
    245 H245       -3.2123  -17.0571  -53.7074 H         1 UNK         0.0800 
    246 H246       -2.1230  -16.3306  -51.6727 H         1 UNK         0.0800 
    247 H247       -1.9988  -18.0589  -51.4415 H         1 UNK         0.0800 
@<TRIPOS>BOND
     1    1    2 1    
     2    1  127 1    
     3    1  128 1    
     4    1  129 1    
     5    2    3 2    
     6    2    4 am   BACKBONE|DICT|INTERRES
     7    4    5 1    
     8    4  130 1    
     9    5    6 1    
    10    5   65 1    
    11    5  131 1    
    12    6    7 1    
    13    6  132 1    
    14    6  133 1    
    15    7    8 1    
    16    8    9 1    
    17    8  134 1    
    18    8  135 1    
    19    9   10 ar   
    20    9   14 ar   
    21   10   11 ar   
    22   10  136 1    
    23   11   12 ar   
    24   11  126 1    
    25   12   13 ar   
    26   12  137 1    
    27   13   14 ar   
    28   13   15 1    
    29   14  138 1    
    30   15   16 1    
    31   15  139 1    
    32   15  140 1    
    33   16   17 1    
    34   17   18 1    
    35   17  141 1    
    36   17  142 1    
    37   18   19 1    
    38   18   67 1    
    39   18  143 1    
    40   19   20 am   BACKBONE|DICT|INTERRES
    41   19  144 1    
    42   20   21 2    
    43   20   22 1    
    44   22   23 1    
    45   22   24 1    
    46   22  145 1    
    47   23  146 1    
    48   23  147 1    
    49   23  148 1    
    50   24   25 am   BACKBONE|DICT|INTERRES
    51   24  149 1    
    52   25   26 2    
    53   25   27 1    
    54   27   28 1    
    55   27   29 1    
    56   27  150 1    
    57   28  151 1    
    58   28  152 1    
    59   28  153 1    
    60   29   30 am   BACKBONE|DICT|INTERRES
    61   29  154 1    
    62   30   31 2    
    63   30   32 1    
    64   32   33 1    
    65   32   34 1    
    66   32  155 1    
    67   33  156 1    
    68   33  157 1    
    69   33  158 1    
    70   34   35 am   BACKBONE|DICT|INTERRES
    71   34  159 1    
    72   35   36 2    
    73   35   37 1    
    74   37   38 1    
    75   37   39 1    
    76   37  160 1    
    77   38  161 1    
    78   38  162 1    
    79   38  163 1    
    80   39   40 am   BACKBONE|DICT|INTERRES
    81   39  164 1    
    82   40   41 2    
    83   40   42 1    
    84   42   43 1    
    85   42   44 1    
    86   42  165 1    
    87   43  166 1    
    88   43  167 1    
    89   43  168 1    
    90   44   45 am   BACKBONE|DICT|INTERRES
    91   44  169 1    
    92   45   46 2    
    93   45   47 1    
    94   47   48 1    
    95   47   49 1    
    96   47  170 1    
    97   48  171 1    
    98   48  172 1    
    99   48  173 1    
   100   49   50 am   BACKBONE|DICT|INTERRES
   101   49  174 1    
   102   50   51 2    
   103   50   52 1    
   104   52   53 1    
   105   52   54 1    
   106   52  175 1    
   107   53  176 1    
   108   53  177 1    
   109   53  178 1    
   110   54   55 am   BACKBONE|DICT|INTERRES
   111   54  179 1    
   112   55   56 2    
   113   55   57 1    
   114   57   58 1    
   115   57   59 1    
   116   57  180 1    
   117   58  181 1    
   118   58  182 1    
   119   58  183 1    
   120   59   60 am   BACKBONE|DICT|INTERRES
   121   59  184 1    
   122   60   61 2    
   123   60   62 1    
   124   62   63 1    
   125   62   64 1    
   126   62  185 1    
   127   63  186 1    
   128   63  187 1    
   129   63  188 1    
   130   64   65 am   BACKBONE|DICT|INTERRES
   131   64  189 1    
   132   65   66 2    
   133   67   68 2    
   134   67   69 am   BACKBONE|DICT|INTERRES
   135   69   70 1    
   136   69  190 1    
   137   70   71 1    
   138   70   72 1    
   139   70  191 1    
   140   71  192 1    
   141   71  193 1    
   142   71  194 1    
   143   72   73 2    
   144   72   74 am   BACKBONE|DICT|INTERRES
   145   74   75 1    
   146   74  195 1    
   147   75   76 1    
   148   75   77 1    
   149   75  196 1    
   150   76  197 1    
   151   76  198 1    
   152   76  199 1    
   153   77   78 2    
   154   77   79 am   BACKBONE|DICT|INTERRES
   155   79   80 1    
   156   79  200 1    
   157   80   81 1    
   158   80   82 1    
   159   80  201 1    
   160   81  202 1    
   161   81  203 1    
   162   81  204 1    
   163   82   83 2    
   164   82   84 am   BACKBONE|DICT|INTERRES
   165   84   85 1    
   166   84  205 1    
   167   85   86 1    
   168   85   87 1    
   169   85  206 1    
   170   86  207 1    
   171   86  208 1    
   172   86  209 1    
   173   87   88 2    
   174   87   89 am   BACKBONE|DICT|INTERRES
   175   89   90 1    
   176   89  210 1    
   177   90   91 1    
   178   90   92 1    
   179   90  211 1    
   180   91  212 1    
   181   91  213 1    
   182   91  214 1    
   183   92   93 2    
   184   92   94 am   BACKBONE|DICT|INTERRES
   185   94   95 1    
   186   94  215 1    
   187   95   96 1    
   188   95   97 1    
   189   95  216 1    
   190   96  217 1    
   191   96  218 1    
   192   96  219 1    
   193   97   98 2    
   194   97   99 am   BACKBONE|DICT|INTERRES
   195   99  100 1    
   196   99  220 1    
   197  100  101 1    
   198  100  102 1    
   199  100  221 1    
   200  101  222 1    
   201  101  223 1    
   202  101  224 1    
   203  102  103 2    
   204  102  104 am   BACKBONE|DICT|INTERRES
   205  104  105 1    
   206  104  225 1    
   207  105  106 1    
   208  105  107 1    
   209  105  226 1    
   210  106  227 1    
   211  106  228 1    
   212  106  229 1    
   213  107  108 2    
   214  107  109 am   BACKBONE|DICT|INTERRES
   215  109  110 1    
   216  109  230 1    
   217  110  111 1    
   218  110  112 1    
   219  110  231 1    
   220  111  232 1    
   221  111  233 1    
   222  111  234 1    
   223  112  113 2    
   224  112  114 am   BACKBONE|DICT|INTERRES
   225  114  115 1    
   226  114  235 1    
   227  115  116 1    
   228  115  117 1    
   229  115  236 1    
   230  116  237 1    
   231  116  238 1    
   232  116  239 1    
   233  117  118 2    
   234  117  119 am   BACKBONE|DICT|INTERRES
   235  119  120 1    
   236  119  240 1    
   237  120  121 1    
   238  120  124 1    
   239  120  241 1    
   240  121  122 am   BACKBONE|DICT|INTERRES
   241  121  123 2    
   242  122  242 1    
   243  122  243 1    
   244  124  125 1    
   245  124  244 1    
   246  124  245 1    
   247  125  126 1    
   248  126  246 1    
   249  126  247 1    
@<TRIPOS>SUBSTRUCTURE
     1 UNK         1 GROUP             0       ****    0 ROOT    
