@<TRIPOS>MOLECULE
3R540
247   249    1
SMALL
USER_CHARGES


@<TRIPOS>ATOM
      1 CA          1.8735  -16.2856  -42.8459 C.3       0 UNK        -0.1800 
      2 C           0.3610  -16.3073  -42.6886 C.2       0 UNK         0.5000 
      3 O          -0.1402  -16.3491  -41.5646 O.2       0 UNK        -0.5000 
      4 N          -0.3612  -16.2851  -43.8140 N.am      1 UNK        -0.5000 
      5 CA         -1.8266  -16.2145  -43.8637 C.3       1 UNK         0.1400 
      6 C6         -2.3760  -16.9439  -45.1158 C.3       23 UNK        -0.0398 
      7 S7         -4.0648  -17.5970  -44.8899 S.3       23 UNK        -0.2404 
      8 C8         -4.9202  -16.9632  -46.3661 C.3       23 UNK        -0.0205 
      9 C9         -4.3612  -17.5269  -47.6673 C.ar      23 UNK        -0.0193 
     10 C10        -3.8540  -16.6640  -48.6410 C.ar      23 UNK        -0.1150 
     11 C11        -3.3975  -17.1574  -49.8659 C.ar      23 UNK        -0.0193 
     12 C12        -3.4444  -18.5338  -50.1127 C.ar      23 UNK        -0.1150 
     13 C13        -3.9488  -19.4137  -49.1460 C.ar      23 UNK        -0.0193 
     14 C14        -4.4012  -18.9005  -47.9255 C.ar      23 UNK        -0.1150 
     15 C15        -4.0944  -20.9068  -49.4286 C.3       23 UNK        -0.0205 
     16 S16        -2.6221  -21.6918  -50.1656 S.3       23 UNK        -0.2404 
     17 C17        -1.4020  -21.5641  -48.8234 C.3       23 UNK        -0.0398 
     18 CA         -1.2317  -22.8608  -47.9912 C.3       11 UNK         0.1400 
     19 N           0.0782  -22.9007  -47.3310 N.am      11 UNK        -0.5000 
     20 C           0.5645  -23.9221  -46.6104 C.2       10 UNK         0.5000 
     21 O          -0.0178  -24.9941  -46.4538 O.2       10 UNK        -0.5000 
     22 CA          1.9106  -23.6797  -45.9043 C.3       10 UNK         0.1400 
     23 CB          3.0821  -23.9347  -46.8637 C.3       10 UNK        -0.1800 
     24 N           2.0095  -22.3242  -45.3607 N.am      10 UNK        -0.5000 
     25 C           1.2911  -21.8741  -44.3200 C.2       9 UNK         0.5000 
     26 O           0.5085  -22.5729  -43.6775 O.2       9 UNK        -0.5000 
     27 CA          1.4201  -20.3740  -43.9869 C.3       9 UNK         0.1400 
     28 CB          2.6551  -20.1249  -43.1095 C.3       9 UNK        -0.1800 
     29 N           1.4899  -19.5421  -45.1917 N.am      9 UNK        -0.5000 
     30 C           0.5192  -19.4935  -46.1174 C.2       8 UNK         0.5000 
     31 O          -0.5703  -20.0434  -45.9724 O.2       8 UNK        -0.5000 
     32 CA          0.8091  -18.7858  -47.4525 C.3       8 UNK         0.1400 
     33 CB         -0.0931  -17.5678  -47.6624 C.3       8 UNK        -0.1800 
     34 N           2.2055  -18.3993  -47.6238 N.am      8 UNK        -0.5000 
     35 C           3.2004  -19.2588  -47.8841 C.2       7 UNK         0.5000 
     36 O           3.0334  -20.4739  -47.9975 O.2       7 UNK        -0.5000 
     37 CA          4.6177  -18.6672  -48.0025 C.3       7 UNK         0.1400 
     38 CB          4.9785  -18.4490  -49.4795 C.3       7 UNK        -0.1800 
     39 N           4.7831  -17.4030  -47.2792 N.am      7 UNK        -0.5000 
     40 C           4.7031  -17.2618  -45.9480 C.2       6 UNK         0.5000 
     41 O           4.4855  -18.1933  -45.1734 O.2       6 UNK        -0.5000 
     42 CA          4.8349  -15.8281  -45.4031 C.3       6 UNK         0.1400 
     43 CB          6.3119  -15.4625  -45.1944 C.3       6 UNK        -0.1800 
     44 N           4.2021  -14.8251  -46.2659 N.am      6 UNK        -0.5000 
     45 C           2.8856  -14.7494  -46.5003 C.2       5 UNK         0.5000 
     46 O           2.0584  -15.5370  -46.0352 O.2       5 UNK        -0.5000 
     47 CA          2.4064  -13.6152  -47.4189 C.3       5 UNK         0.1400 
     48 CB          1.8118  -14.1784  -48.7188 C.3       5 UNK        -0.1800 
     49 N           1.3866  -12.8343  -46.7284 N.am      5 UNK        -0.5000 
     50 C           1.6379  -11.8902  -45.8129 C.2       4 UNK         0.5000 
     51 O           2.7746  -11.4994  -45.5413 O.2       4 UNK        -0.5000 
     52 CA          0.4319  -11.3133  -45.0429 C.3       4 UNK         0.1400 
     53 CB          0.5231   -9.7850  -44.8496 C.3       4 UNK        -0.1800 
     54 N          -0.8737  -11.7194  -45.5790 N.am      4 UNK        -0.5000 
     55 C          -1.4772  -11.3161  -46.7090 C.2       3 UNK         0.5000 
     56 O          -0.9864  -10.5043  -47.4933 O.2       3 UNK        -0.5000 
     57 CA         -2.8526  -11.9387  -47.0430 C.3       3 UNK         0.1400 
     58 CB         -2.7523  -12.8248  -48.2947 C.3       3 UNK        -0.1800 
     59 N          -3.4204  -12.7370  -45.9537 N.am      3 UNK        -0.5000 
     60 C          -3.9492  -12.2431  -44.8254 C.2       2 UNK         0.5000 
     61 O          -4.1150  -11.0403  -44.6213 O.2       2 UNK        -0.5000 
     62 CA         -4.3265  -13.2583  -43.7242 C.3       2 UNK         0.1400 
     63 CB         -5.8413  -13.5146  -43.7326 C.3       2 UNK        -0.1800 
     64 N          -3.6328  -14.5510  -43.8034 N.am      2 UNK        -0.5000 
     65 C          -2.3072  -14.7474  -43.7755 C.2       1 UNK         0.5000 
     66 O          -1.4916  -13.8238  -43.7192 O.2       1 UNK        -0.5000 
     67 C          -2.3768  -23.0377  -46.9735 C.2       11 UNK         0.5000 
     68 O          -3.2575  -23.8730  -47.1820 O.2       11 UNK        -0.5000 
     69 N          -2.3063  -22.2754  -45.8737 N.am      12 UNK        -0.5000 
     70 CA         -3.2334  -22.3195  -44.7471 C.3       12 UNK         0.1400 
     71 CB         -2.9232  -21.1549  -43.7956 C.3       12 UNK        -0.1800 
     72 C          -3.1931  -23.6592  -43.9927 C.2       12 UNK         0.5000 
     73 O          -4.2521  -24.2032  -43.6807 O.2       12 UNK        -0.5000 
     74 N          -1.9824  -24.1757  -43.7324 N.am      13 UNK        -0.5000 
     75 CA         -1.7523  -25.4510  -43.0484 C.3       13 UNK         0.1400 
     76 CB         -0.2574  -25.6087  -42.7330 C.3       13 UNK        -0.1800 
     77 C          -2.2688  -26.6632  -43.8438 C.2       13 UNK         0.5000 
     78 O          -2.8682  -27.5647  -43.2565 O.2       13 UNK        -0.5000 
     79 N          -2.0499  -26.6520  -45.1654 N.am      14 UNK        -0.5000 
     80 CA         -2.5591  -27.6618  -46.0942 C.3       14 UNK         0.1400 
     81 CB         -1.7727  -27.5642  -47.4110 C.3       14 UNK        -0.1800 
     82 C          -4.0683  -27.5221  -46.3727 C.2       14 UNK         0.5000 
     83 O          -4.6898  -28.4952  -46.8013 O.2       14 UNK        -0.5000 
     84 N          -4.6112  -26.3130  -46.1597 N.am      15 UNK        -0.5000 
     85 CA         -5.9476  -25.8484  -46.5481 C.3       15 UNK         0.1400 
     86 CB         -7.0454  -26.5774  -45.7465 C.3       15 UNK        -0.1800 
     87 C          -6.1431  -25.9269  -48.0774 C.2       15 UNK         0.5000 
     88 O          -7.1809  -26.3881  -48.5575 O.2       15 UNK        -0.5000 
     89 N          -5.0992  -25.5205  -48.8102 N.am      16 UNK        -0.5000 
     90 CA         -5.0008  -25.6317  -50.2610 C.3       16 UNK         0.1400 
     91 CB         -3.5215  -25.5416  -50.6606 C.3       16 UNK        -0.1800 
     92 C          -5.8274  -24.5582  -50.9870 C.2       16 UNK         0.5000 
     93 O          -6.0348  -23.4629  -50.4591 O.2       16 UNK        -0.5000 
     94 N          -6.2460  -24.8783  -52.2163 N.am      17 UNK        -0.5000 
     95 CA         -7.0028  -24.0009  -53.1087 C.3       17 UNK         0.1400 
     96 CB         -7.8007  -24.8730  -54.0954 C.3       17 UNK        -0.1800 
     97 C          -6.0769  -22.9916  -53.8187 C.2       17 UNK         0.5000 
     98 O          -5.9004  -23.0654  -55.0360 O.2       17 UNK        -0.5000 
     99 N          -5.4928  -22.0799  -53.0284 N.am      18 UNK        -0.5000 
    100 CA        -4.5827  -21.0027  -53.4341 C.3       18 UNK         0.1400 
    101 CB        -5.3213  -19.9499  -54.2860 C.3       18 UNK        -0.1800 
    102 C         -3.2947  -21.5306  -54.0995 C.2       18 UNK         0.5000 
    103 O         -2.9526  -21.1288  -55.2135 O.2       18 UNK        -0.5000 
    104 N         -2.6011  -22.4335  -53.3907 N.am      19 UNK        -0.5000 
    105 CA        -1.2702  -22.9287  -53.7542 C.3       19 UNK         0.1400 
    106 CB        -0.8954  -24.1157  -52.8542 C.3       19 UNK        -0.1800 
    107 C         -0.1974  -21.8254  -53.6761 C.2       19 UNK         0.5000 
    108 O          0.6883  -21.7758  -54.5305 O.2       19 UNK        -0.5000 
    109 N         -0.3255  -20.9385  -52.6798 N.am      20 UNK        -0.5000 
    110 CA         0.3766  -19.6608  -52.6289 C.3       20 UNK         0.1400 
    111 CB         0.5049  -19.1985  -51.1687 C.3       20 UNK        -0.1800 
    112 C         -0.4149  -18.6378  -53.4577 C.2       20 UNK         0.5000 
    113 O         -1.6308  -18.5317  -53.2847 O.2       20 UNK        -0.5000 
    114 N          0.2804  -17.9104  -54.3395 N.am      21 UNK        -0.5000 
    115 CA        -0.3157  -16.8709  -55.1820 C.3       21 UNK         0.1400 
    116 CB         0.6130  -16.5952  -56.3747 C.3       21 UNK        -0.1800 
    117 C         -0.5972  -15.5710  -54.4058 C.2       21 UNK         0.5000 
    118 O         -1.5407  -14.8564  -54.7452 O.2       21 UNK        -0.5000 
    119 N          0.2314  -15.2948  -53.3880 N.am      22 UNK        -0.5000 
    120 CA         0.1656  -14.1219  -52.4965 C.3       22 UNK         0.1400 
    121 C          0.4378  -12.7504  -53.1914 C.2       22 UNK         0.5000 
    122 N          1.0447  -12.7164  -54.3717 N.am      22 UNK        -0.7600 
    123 O          0.1285  -11.6958  -52.6436 O.2       22 UNK        -0.5000 
    124 C124       -1.1124  -14.1033  -51.6125 C.3       23 UNK        -0.0398 
    125 S125       -1.2374  -15.5711  -50.5356 S.3       23 UNK        -0.2404 
    126 C126       -2.9020  -16.1852  -50.9270 C.3       23 UNK        -0.0205 
    127 H127        2.3601  -16.7021  -41.9640 H         1 UNK         0.0600 
    128 H128        2.1821  -16.8734  -43.7102 H         1 UNK         0.0600 
    129 H129        2.2228  -15.2619  -42.9808 H         1 UNK         0.0600 
    130 H130        0.1258  -16.1720  -44.6935 H         1 UNK         0.3000 
    131 H131       -2.2162  -16.7276  -42.9817 H         1 UNK         0.0600 
    132 H132       -2.3139  -16.3156  -46.0058 H         1 UNK         0.0800 
    133 H133       -1.7629  -17.8184  -45.3233 H         1 UNK         0.0800 
    134 H134       -4.8813  -15.8730  -46.3627 H         1 UNK         0.0800 
    135 H135       -5.9758  -17.2291  -46.2974 H         1 UNK         0.0800 
    136 H136       -3.8311  -15.6001  -48.4577 H         1 UNK         0.1150 
    137 H137       -3.1075  -18.9153  -51.0657 H         1 UNK         0.1150 
    138 H138       -4.8102  -19.5668  -47.1788 H         1 UNK         0.1150 
    139 H139       -4.3638  -21.4505  -48.5221 H         1 UNK         0.0800 
    140 H140       -4.9329  -21.0351  -50.1124 H         1 UNK         0.0800 
    141 H141       -0.4570  -21.3299  -49.3127 H         1 UNK         0.0800 
    142 H142       -1.6365  -20.7024  -48.1985 H         1 UNK         0.0800 
    143 H143       -1.2610  -23.7147  -48.6715 H         1 UNK         0.0600 
    144 H144        0.6331  -22.0601  -47.3785 H         1 UNK         0.3000 
    145 H145        1.9884  -24.3876  -45.0767 H         1 UNK         0.0600 
    146 H146        4.0397  -23.8191  -46.3558 H         1 UNK         0.0600 
    147 H147        3.0456  -24.9498  -47.2613 H         1 UNK         0.0600 
    148 H148        3.0676  -23.2493  -47.7120 H         1 UNK         0.0600 
    149 H149        2.6084  -21.6782  -45.8567 H         1 UNK         0.3000 
    150 H150        0.5323  -20.0771  -43.4245 H         1 UNK         0.0600 
    151 H151        2.6124  -20.7220  -42.1977 H         1 UNK         0.0600 
    152 H152        2.7253  -19.0809  -42.8086 H         1 UNK         0.0600 
    153 H153        3.5781  -20.3845  -43.6294 H         1 UNK         0.0600 
    154 H154        2.3663  -19.0675  -45.3691 H         1 UNK         0.3000 
    155 H155        0.5707  -19.4992  -48.2403 H         1 UNK         0.0600 
    156 H156        0.1495  -17.0759  -48.6013 H         1 UNK         0.0600 
    157 H157        0.0099  -16.8366  -46.8630 H         1 UNK         0.0600 
    158 H158       -1.1416  -17.8636  -47.7161 H         1 UNK         0.0600 
    159 H159        2.4240  -17.4228  -47.4830 H         1 UNK         0.3000 
    160 H160        5.3140  -19.3940  -47.5791 H         1 UNK         0.0600 
    161 H161        4.3225  -17.7154  -49.9502 H         1 UNK         0.0600 
    162 H162        4.8903  -19.3780  -50.0447 H         1 UNK         0.0600 
    163 H163        6.0059  -18.1010  -49.5880 H         1 UNK         0.0600 
    164 H164        4.9586  -16.5806  -47.8375 H         1 UNK         0.3000 
    165 H165        4.3393  -15.7969  -44.4311 H         1 UNK         0.0600 
    166 H166        6.8617  -15.4467  -46.1362 H         1 UNK         0.0600 
    167 H167        6.4131  -14.4816  -44.7295 H         1 UNK         0.0600 
    168 H168        6.8033  -16.1830  -44.5391 H         1 UNK         0.0600 
    169 H169        4.8135  -14.1323  -46.6734 H         1 UNK         0.3000 
    170 H170        3.2485  -12.9692  -47.6766 H         1 UNK         0.0600 
    171 H171        2.5408  -14.7865  -49.2555 H         1 UNK         0.0600 
    172 H172        0.9410  -14.8039  -48.5231 H         1 UNK         0.0600 
    173 H173        1.4993  -13.3763  -49.3877 H         1 UNK         0.0600 
    174 H174        0.4304  -13.1270  -46.8559 H         1 UNK         0.3000 
    175 H175        0.4833  -11.7629  -44.0503 H         1 UNK         0.0600 
    176 H176       -0.3415   -9.4034  -44.3065 H         1 UNK         0.0600 
    177 H177        1.4099   -9.5176  -44.2739 H         1 UNK         0.0600 
    178 H178        0.5851   -9.2560  -45.8007 H         1 UNK         0.0600 
    179 H179       -1.3454  -12.4173  -45.0099 H         1 UNK         0.3000 
    180 H180       -3.5359  -11.1155  -47.2614 H         1 UNK         0.0600 
    181 H181       -3.7307  -13.2051  -48.5880 H         1 UNK         0.0600 
    182 H182       -2.3636  -12.2592  -49.1419 H         1 UNK         0.0600 
    183 H183       -2.0898  -13.6768  -48.1363 H         1 UNK         0.0600 
    184 H184       -3.3315  -13.7376  -46.0343 H         1 UNK         0.3000 
    185 H185       -4.0607  -12.8049  -42.7672 H         1 UNK         0.0600 
    186 H186       -6.1400  -14.1475  -42.8967 H         1 UNK         0.0600 
    187 H187       -6.3980  -12.5806  -43.6448 H         1 UNK         0.0600 
    188 H188       -6.1610  -14.0020  -44.6546 H         1 UNK         0.0600 
    189 H189       -4.2283  -15.3666  -43.8611 H         1 UNK         0.3000 
    190 H190       -1.5683  -21.5770  -45.8152 H         1 UNK         0.3000 
    191 H191       -4.2423  -22.1820  -45.1416 H         1 UNK         0.0600 
    192 H192       -3.6496  -21.1071  -42.9837 H         1 UNK         0.0600 
    193 H193       -2.9558  -20.2026  -44.3218 H         1 UNK         0.0600 
    194 H194       -1.9328  -21.2490  -43.3492 H         1 UNK         0.0600 
    195 H195       -1.1562  -23.6375  -43.9745 H         1 UNK         0.3000 
    196 H196       -2.2955  -25.4221  -42.1016 H         1 UNK         0.0600 
    197 H197       -0.0632  -26.5497  -42.2169 H         1 UNK         0.0600 
    198 H198        0.0957  -24.8056  -42.0861 H         1 UNK         0.0600 
    199 H199        0.3478  -25.5999  -43.6398 H         1 UNK         0.0600 
    200 H200       -1.4911  -25.9047  -45.5692 H         1 UNK         0.3000 
    201 H201       -2.3887  -28.6513  -45.6649 H         1 UNK         0.0600 
    202 H202       -0.7072  -27.7256  -47.2469 H         1 UNK         0.0600 
    203 H203       -1.8943  -26.5854  -47.8773 H         1 UNK         0.0600 
    204 H204       -2.1096  -28.3143  -48.1275 H         1 UNK         0.0600 
    205 H205       -3.9889  -25.5831  -45.8380 H         1 UNK         0.3000 
    206 H206       -5.9920  -24.7904  -46.2855 H         1 UNK         0.0600 
    207 H207       -6.8673  -26.4954  -44.6742 H         1 UNK         0.0600 
    208 H208       -8.0257  -26.1440  -45.9472 H         1 UNK         0.0600 
    209 H209       -7.0995  -27.6368  -45.9980 H         1 UNK         0.0600 
    210 H210       -4.3259  -25.0709  -48.3293 H         1 UNK         0.3000 
    211 H211       -5.3762  -26.6143  -50.5551 H         1 UNK         0.0600 
    212 H212       -3.0797  -24.5926  -50.3590 H         1 UNK         0.0600 
    213 H213       -3.4054  -25.6358  -51.7401 H         1 UNK         0.0600 
    214 H214       -2.9397  -26.3413  -50.2022 H         1 UNK         0.0600 
    215 H215       -5.9998  -25.7821  -52.5938 H         1 UNK         0.3000 
    216 H216       -7.7226  -23.4273  -52.5207 H         1 UNK         0.0600 
    217 H217       -8.3952  -24.2555  -54.7701 H         1 UNK         0.0600 
    218 H218       -8.4911  -25.5320  -53.5686 H         1 UNK         0.0600 
    219 H219       -7.1462  -25.4943  -54.7081 H         1 UNK         0.0600 
    220 H220       -5.6710  -22.1630  -52.0328 H         1 UNK         0.3000 
    221 H221       -4.2667  -20.5038  -52.5179 H         1 UNK         0.0600 
    222 H222       -5.6504  -20.3561  -55.2428 H         1 UNK         0.0600 
    223 H223       -6.1978  -19.5658  -53.7643 H         1 UNK         0.0600 
    224 H224       -4.6718  -19.0993  -54.4974 H         1 UNK         0.0600 
    225 H225       -2.9565  -22.7110  -52.4871 H         1 UNK         0.3000 
    226 H226       -1.3082  -23.2821  -54.7867 H         1 UNK         0.0600 
    227 H227        0.1134  -24.4682  -53.0731 H         1 UNK         0.0600 
    228 H228       -0.9277  -23.8514  -51.7966 H         1 UNK         0.0600 
    229 H229       -1.5688  -24.9562  -53.0163 H         1 UNK         0.0600 
    230 H230       -1.1140  -21.0349  -52.0560 H         1 UNK         0.3000 
    231 H231        1.3811  -19.7720  -53.0430 H         1 UNK         0.0600 
    232 H232        1.0007  -18.2289  -51.1064 H         1 UNK         0.0600 
    233 H233        1.0998  -19.9033  -50.5881 H         1 UNK         0.0600 
    234 H234       -0.4689  -19.0959  -50.6878 H         1 UNK         0.0600 
    235 H235        1.2717  -18.0708  -54.4464 H         1 UNK         0.3000 
    236 H236       -1.2678  -17.2380  -55.5722 H         1 UNK         0.0600 
    237 H237        1.5924  -16.2402  -56.0519 H         1 UNK         0.0600 
    238 H238        0.7622  -17.4940  -56.9734 H         1 UNK         0.0600 
    239 H239        0.1884  -15.8355  -57.0324 H         1 UNK         0.0600 
    240 H240        0.9734  -15.9492  -53.1921 H         1 UNK         0.3000 
    241 H241        1.0116  -14.2379  -51.8184 H         1 UNK         0.0600 
    242 H242        1.2270  -11.8269  -54.8096 H         1 UNK         0.3800 
    243 H243        1.3180  -13.5683  -54.8340 H         1 UNK         0.3800 
    244 H244       -2.0055  -14.0081  -52.2309 H         1 UNK         0.0800 
    245 H245       -1.1075  -13.2340  -50.9543 H         1 UNK         0.0800 
    246 H246       -3.5958  -15.3455  -50.9877 H         1 UNK         0.0800 
    247 H247       -2.8938  -16.6517  -51.9125 H         1 UNK         0.0800 
@<TRIPOS>BOND
     1    1    2 1    
     2    1  127 1    
     3    1  128 1    
     4    1  129 1    
     5    2    3 2    
     6    2    4 am   BACKBONE|DICT|INTERRES
     7    4    5 1    
     8    4  130 1    
     9    5    6 1    
    10    5   65 1    
    11    5  131 1    
    12    6    7 1    
    13    6  132 1    
    14    6  133 1    
    15    7    8 1    
    16    8    9 1    
    17    8  134 1    
    18    8  135 1    
    19    9   10 ar   
    20    9   14 ar   
    21   10   11 ar   
    22   10  136 1    
    23   11   12 ar   
    24   11  126 1    
    25   12   13 ar   
    26   12  137 1    
    27   13   14 ar   
    28   13   15 1    
    29   14  138 1    
    30   15   16 1    
    31   15  139 1    
    32   15  140 1    
    33   16   17 1    
    34   17   18 1    
    35   17  141 1    
    36   17  142 1    
    37   18   19 1    
    38   18   67 1    
    39   18  143 1    
    40   19   20 am   BACKBONE|DICT|INTERRES
    41   19  144 1    
    42   20   21 2    
    43   20   22 1    
    44   22   23 1    
    45   22   24 1    
    46   22  145 1    
    47   23  146 1    
    48   23  147 1    
    49   23  148 1    
    50   24   25 am   BACKBONE|DICT|INTERRES
    51   24  149 1    
    52   25   26 2    
    53   25   27 1    
    54   27   28 1    
    55   27   29 1    
    56   27  150 1    
    57   28  151 1    
    58   28  152 1    
    59   28  153 1    
    60   29   30 am   BACKBONE|DICT|INTERRES
    61   29  154 1    
    62   30   31 2    
    63   30   32 1    
    64   32   33 1    
    65   32   34 1    
    66   32  155 1    
    67   33  156 1    
    68   33  157 1    
    69   33  158 1    
    70   34   35 am   BACKBONE|DICT|INTERRES
    71   34  159 1    
    72   35   36 2    
    73   35   37 1    
    74   37   38 1    
    75   37   39 1    
    76   37  160 1    
    77   38  161 1    
    78   38  162 1    
    79   38  163 1    
    80   39   40 am   BACKBONE|DICT|INTERRES
    81   39  164 1    
    82   40   41 2    
    83   40   42 1    
    84   42   43 1    
    85   42   44 1    
    86   42  165 1    
    87   43  166 1    
    88   43  167 1    
    89   43  168 1    
    90   44   45 am   BACKBONE|DICT|INTERRES
    91   44  169 1    
    92   45   46 2    
    93   45   47 1    
    94   47   48 1    
    95   47   49 1    
    96   47  170 1    
    97   48  171 1    
    98   48  172 1    
    99   48  173 1    
   100   49   50 am   BACKBONE|DICT|INTERRES
   101   49  174 1    
   102   50   51 2    
   103   50   52 1    
   104   52   53 1    
   105   52   54 1    
   106   52  175 1    
   107   53  176 1    
   108   53  177 1    
   109   53  178 1    
   110   54   55 am   BACKBONE|DICT|INTERRES
   111   54  179 1    
   112   55   56 2    
   113   55   57 1    
   114   57   58 1    
   115   57   59 1    
   116   57  180 1    
   117   58  181 1    
   118   58  182 1    
   119   58  183 1    
   120   59   60 am   BACKBONE|DICT|INTERRES
   121   59  184 1    
   122   60   61 2    
   123   60   62 1    
   124   62   63 1    
   125   62   64 1    
   126   62  185 1    
   127   63  186 1    
   128   63  187 1    
   129   63  188 1    
   130   64   65 am   BACKBONE|DICT|INTERRES
   131   64  189 1    
   132   65   66 2    
   133   67   68 2    
   134   67   69 am   BACKBONE|DICT|INTERRES
   135   69   70 1    
   136   69  190 1    
   137   70   71 1    
   138   70   72 1    
   139   70  191 1    
   140   71  192 1    
   141   71  193 1    
   142   71  194 1    
   143   72   73 2    
   144   72   74 am   BACKBONE|DICT|INTERRES
   145   74   75 1    
   146   74  195 1    
   147   75   76 1    
   148   75   77 1    
   149   75  196 1    
   150   76  197 1    
   151   76  198 1    
   152   76  199 1    
   153   77   78 2    
   154   77   79 am   BACKBONE|DICT|INTERRES
   155   79   80 1    
   156   79  200 1    
   157   80   81 1    
   158   80   82 1    
   159   80  201 1    
   160   81  202 1    
   161   81  203 1    
   162   81  204 1    
   163   82   83 2    
   164   82   84 am   BACKBONE|DICT|INTERRES
   165   84   85 1    
   166   84  205 1    
   167   85   86 1    
   168   85   87 1    
   169   85  206 1    
   170   86  207 1    
   171   86  208 1    
   172   86  209 1    
   173   87   88 2    
   174   87   89 am   BACKBONE|DICT|INTERRES
   175   89   90 1    
   176   89  210 1    
   177   90   91 1    
   178   90   92 1    
   179   90  211 1    
   180   91  212 1    
   181   91  213 1    
   182   91  214 1    
   183   92   93 2    
   184   92   94 am   BACKBONE|DICT|INTERRES
   185   94   95 1    
   186   94  215 1    
   187   95   96 1    
   188   95   97 1    
   189   95  216 1    
   190   96  217 1    
   191   96  218 1    
   192   96  219 1    
   193   97   98 2    
   194   97   99 am   BACKBONE|DICT|INTERRES
   195   99  100 1    
   196   99  220 1    
   197  100  101 1    
   198  100  102 1    
   199  100  221 1    
   200  101  222 1    
   201  101  223 1    
   202  101  224 1    
   203  102  103 2    
   204  102  104 am   BACKBONE|DICT|INTERRES
   205  104  105 1    
   206  104  225 1    
   207  105  106 1    
   208  105  107 1    
   209  105  226 1    
   210  106  227 1    
   211  106  228 1    
   212  106  229 1    
   213  107  108 2    
   214  107  109 am   BACKBONE|DICT|INTERRES
   215  109  110 1    
   216  109  230 1    
   217  110  111 1    
   218  110  112 1    
   219  110  231 1    
   220  111  232 1    
   221  111  233 1    
   222  111  234 1    
   223  112  113 2    
   224  112  114 am   BACKBONE|DICT|INTERRES
   225  114  115 1    
   226  114  235 1    
   227  115  116 1    
   228  115  117 1    
   229  115  236 1    
   230  116  237 1    
   231  116  238 1    
   232  116  239 1    
   233  117  118 2    
   234  117  119 am   BACKBONE|DICT|INTERRES
   235  119  120 1    
   236  119  240 1    
   237  120  121 1    
   238  120  124 1    
   239  120  241 1    
   240  121  122 am   BACKBONE|DICT|INTERRES
   241  121  123 2    
   242  122  242 1    
   243  122  243 1    
   244  124  125 1    
   245  124  244 1    
   246  124  245 1    
   247  125  126 1    
   248  126  246 1    
   249  126  247 1    
@<TRIPOS>SUBSTRUCTURE
     1 UNK         1 GROUP             0       ****    0 ROOT    
