@<TRIPOS>MOLECULE
3R540
247   249    1
SMALL
USER_CHARGES


@<TRIPOS>ATOM
      1 CA          5.3004  -15.9993  -48.2000 C.3       0 UNK        -0.1800 
      2 C           5.4650  -14.7581  -49.0733 C.2       0 UNK         0.5000 
      3 O           6.0599  -14.8512  -50.1452 O.2       0 UNK        -0.5000 
      4 N           4.9673  -13.5824  -48.6730 N.am      1 UNK        -0.5000 
      5 CA          4.2992  -13.2695  -47.4080 C.3       1 UNK         0.1400 
      6 C6          2.7816  -13.0103  -47.5919 C.3       23 UNK        -0.0398 
      7 S7          1.8447  -14.5338  -47.9221 S.3       23 UNK        -0.2404 
      8 C8          1.6750  -14.4633  -49.7283 C.3       23 UNK        -0.0205 
      9 C9          1.1138  -15.7640  -50.2771 C.ar      23 UNK        -0.0193 
     10 C10        -0.1832  -15.8174  -50.7938 C.ar      23 UNK        -0.1150 
     11 C11        -0.6799  -17.0031  -51.3447 C.ar      23 UNK        -0.0193 
     12 C12         0.1235  -18.1473  -51.3531 C.ar      23 UNK        -0.1150 
     13 C13         1.4127  -18.1122  -50.8114 C.ar      23 UNK        -0.0193 
     14 C14         1.9051  -16.9153  -50.2869 C.ar      23 UNK        -0.1150 
     15 C15         2.2803  -19.3615  -50.7902 C.3       23 UNK        -0.0205 
     16 S16         2.1739  -20.2230  -49.1887 S.3       23 UNK        -0.2404 
     17 C17         0.4493  -20.8027  -49.2413 C.3       23 UNK        -0.0398 
     18 CA          0.1798  -21.9856  -48.2851 C.3       11 UNK         0.1400 
     19 N           0.2557  -21.6159  -46.8669 N.am      11 UNK        -0.5000 
     20 C           0.1969  -22.4965  -45.8560 C.2       10 UNK         0.5000 
     21 O           0.1553  -23.7166  -46.0159 O.2       10 UNK        -0.5000 
     22 CA          0.1065  -21.9251  -44.4294 C.3       10 UNK         0.1400 
     23 CB          1.4955  -21.5440  -43.8969 C.3       10 UNK        -0.1800 
     24 N          -0.7967  -20.7770  -44.3422 N.am      10 UNK        -0.5000 
     25 C          -2.1169  -20.8310  -44.5714 C.2       9 UNK         0.5000 
     26 O          -2.7222  -21.8742  -44.8115 O.2       9 UNK        -0.5000 
     27 CA         -2.8840  -19.4952  -44.5899 C.3       9 UNK         0.1400 
     28 CB         -3.2911  -19.0755  -43.1707 C.3       9 UNK        -0.1800 
     29 N          -2.1235  -18.4209  -45.2298 N.am      9 UNK        -0.5000 
     30 C          -1.7541  -18.4206  -46.5194 C.2       8 UNK         0.5000 
     31 O          -2.0717  -19.2998  -47.3200 O.2       8 UNK        -0.5000 
     32 CA         -0.8374  -17.2733  -46.9752 C.3       8 UNK         0.1400 
     33 CB         -1.6664  -16.0430  -47.3747 C.3       8 UNK        -0.1800 
     34 N           0.1284  -16.9144  -45.9346 N.am      8 UNK        -0.5000 
     35 C           1.1755  -17.6788  -45.5922 C.2       7 UNK         0.5000 
     36 O           1.4449  -18.7460  -46.1421 O.2       7 UNK        -0.5000 
     37 CA          2.0274  -17.2062  -44.3964 C.3       7 UNK         0.1400 
     38 CB          3.0511  -16.1442  -44.8220 C.3       7 UNK        -0.1800 
     39 N           1.2177  -16.6801  -43.2972 N.am      7 UNK        -0.5000 
     40 C           0.3773  -17.4184  -42.5589 C.2       6 UNK         0.5000 
     41 O           0.2449  -18.6336  -42.6929 O.2       6 UNK        -0.5000 
     42 CA         -0.4941  -16.6746  -41.5273 C.3       6 UNK         0.1400 
     43 CB          0.2033  -16.6448  -40.1593 C.3       6 UNK        -0.1800 
     44 N          -0.8410  -15.3055  -41.9132 N.am      6 UNK        -0.5000 
     45 C          -1.4576  -14.9304  -43.0433 C.2       5 UNK         0.5000 
     46 O          -1.8332  -15.7293  -43.9021 O.2       5 UNK        -0.5000 
     47 CA         -1.6803  -13.4178  -43.2660 C.3       5 UNK         0.1400 
     48 CB         -3.1793  -13.1074  -43.4034 C.3       5 UNK        -0.1800 
     49 N          -1.1167  -12.5626  -42.2136 N.am      5 UNK        -0.5000 
     50 C           0.1877  -12.3364  -42.0074 C.2       4 UNK         0.5000 
     51 O           1.0820  -12.8355  -42.6936 O.2       4 UNK        -0.5000 
     52 CA          0.5264  -11.4774  -40.7725 C.3       4 UNK         0.1400 
     53 CB          0.4061  -12.3206  -39.4916 C.3       4 UNK        -0.1800 
     54 N           1.8695  -10.9005  -40.8175 N.am      4 UNK        -0.5000 
     55 C           2.2714   -9.9319  -41.6493 C.2       3 UNK         0.5000 
     56 O           1.5340   -9.3955  -42.4790 O.2       3 UNK        -0.5000 
     57 CA          3.7342   -9.4481  -41.5267 C.3       3 UNK         0.1400 
     58 CB          4.5056  -10.0265  -40.3169 C.3       3 UNK        -0.1800 
     59 N           4.4773   -9.6586  -42.7728 N.am      3 UNK        -0.5000 
     60 C           4.7203  -10.8334  -43.3681 C.2       2 UNK         0.5000 
     61 O           4.4118  -11.9316  -42.8970 O.2       2 UNK        -0.5000 
     62 CA          5.4399  -10.7772  -44.7212 C.3       2 UNK         0.1400 
     63 CB          6.9681  -10.8161  -44.5458 C.3       2 UNK        -0.1800 
     64 N           4.9916  -11.9259  -45.4967 N.am      2 UNK        -0.5000 
     65 C           4.9711  -12.0145  -46.8278 C.2       1 UNK         0.5000 
     66 O           5.4176  -11.1467  -47.5838 O.2       1 UNK        -0.5000 
     67 C          -1.1703  -22.6450  -48.6285 C.2       11 UNK         0.5000 
     68 O          -1.1776  -23.6796  -49.2927 O.2       11 UNK        -0.5000 
     69 N          -2.2801  -22.0634  -48.1508 N.am      12 UNK        -0.5000 
     70 CA         -3.6306  -22.6027  -48.3223 C.3       12 UNK         0.1400 
     71 CB         -4.6659  -21.5995  -47.7943 C.3       12 UNK        -0.1800 
     72 C          -3.8074  -23.9823  -47.6630 C.2       12 UNK         0.5000 
     73 O          -4.3848  -24.8776  -48.2776 O.2       12 UNK        -0.5000 
     74 N          -3.2666  -24.1516  -46.4484 N.am      13 UNK        -0.5000 
     75 CA         -3.2325  -25.4219  -45.7227 C.3       13 UNK         0.1400 
     76 CB         -2.6964  -25.1963  -44.3014 C.3       13 UNK        -0.1800 
     77 C          -2.4154  -26.5005  -46.4575 C.2       13 UNK         0.5000 
     78 O          -2.8913  -27.6279  -46.5953 O.2       13 UNK        -0.5000 
     79 N          -1.2321  -26.1264  -46.9668 N.am      14 UNK        -0.5000 
     80 CA         -0.3721  -26.9816  -47.7917 C.3       14 UNK         0.1400 
     81 CB          0.9737  -26.2805  -48.0289 C.3       14 UNK        -0.1800 
     82 C          -1.0242  -27.3821  -49.1306 C.2       14 UNK         0.5000 
     83 O          -0.8177  -28.5021  -49.5982 O.2       14 UNK        -0.5000 
     84 N          -1.8382  -26.4798  -49.6931 N.am      15 UNK        -0.5000 
     85 CA         -2.6590  -26.6889  -50.8863 C.3       15 UNK         0.1400 
     86 CB         -2.9176  -25.3259  -51.5522 C.3       15 UNK        -0.1800 
     87 C          -3.9812  -27.4402  -50.6050 C.2       15 UNK         0.5000 
     88 O          -4.8108  -27.5394  -51.5086 O.2       15 UNK        -0.5000 
     89 N          -4.1653  -27.9539  -49.3785 N.am      16 UNK        -0.5000 
     90 CA         -5.3092  -28.7388  -48.9015 C.3       16 UNK         0.1400 
     91 CB         -5.4204  -30.0772  -49.6623 C.3       16 UNK        -0.1800 
     92 C          -6.6253  -27.9348  -48.8788 C.2       16 UNK         0.5000 
     93 O          -7.6687  -28.4339  -49.3036 O.2       16 UNK        -0.5000 
     94 N          -6.5369  -26.6985  -48.3697 N.am      17 UNK        -0.5000 
     95 CA         -7.6053  -25.7083  -48.1941 C.3       17 UNK         0.1400 
     96 CB         -8.7692  -26.2589  -47.3429 C.3       17 UNK        -0.1800 
     97 C          -8.0737  -25.0522  -49.5086 C.2       17 UNK         0.5000 
     98 O          -9.1202  -24.4009  -49.5239 O.2       17 UNK        -0.5000 
     99 N          -7.2804  -25.1931  -50.5781 N.am      18 UNK        -0.5000 
    100 CA        -7.4299  -24.4425  -51.8232 C.3       18 UNK         0.1400 
    101 CB        -6.7400  -25.2178  -52.9563 C.3       18 UNK        -0.1800 
    102 C         -6.8410  -23.0240  -51.6847 C.2       18 UNK         0.5000 
    103 O         -6.1746  -22.7158  -50.6946 O.2       18 UNK        -0.5000 
    104 N         -7.0753  -22.1860  -52.7019 N.am      19 UNK        -0.5000 
    105 CA        -6.6334  -20.7877  -52.7548 C.3       19 UNK         0.1400 
    106 CB        -7.4073  -20.0732  -53.8734 C.3       19 UNK        -0.1800 
    107 C         -5.1128  -20.5943  -52.9436 C.2       19 UNK         0.5000 
    108 O         -4.6426  -19.4607  -52.8510 O.2       19 UNK        -0.5000 
    109 N         -4.3774  -21.6807  -53.2310 N.am      20 UNK        -0.5000 
    110 CA        -2.9223  -21.7358  -53.4294 C.3       20 UNK         0.1400 
    111 CB        -2.1833  -21.4874  -52.0994 C.3       20 UNK        -0.1800 
    112 C         -2.4379  -20.8230  -54.5768 C.2       20 UNK         0.5000 
    113 O         -1.4154  -20.1489  -54.4510 O.2       20 UNK        -0.5000 
    114 N         -3.2173  -20.8198  -55.6685 N.am      21 UNK        -0.5000 
    115 CA        -3.0492  -20.0579  -56.9126 C.3       21 UNK         0.1400 
    116 CB        -1.6904  -20.3590  -57.5795 C.3       21 UNK        -0.1800 
    117 C         -3.3154  -18.5409  -56.7962 C.2       21 UNK         0.5000 
    118 O         -3.2089  -17.8440  -57.8074 O.2       21 UNK        -0.5000 
    119 N         -3.6860  -18.0485  -55.6075 N.am      22 UNK        -0.5000 
    120 CA        -4.1275  -16.6622  -55.3908 C.3       22 UNK         0.1400 
    121 C         -5.5995  -16.4338  -55.8376 C.2       22 UNK         0.5000 
    122 N         -5.9895  -15.1898  -56.0821 N.am      22 UNK        -0.7600 
    123 O         -6.3998  -17.3600  -55.9483 O.2       22 UNK        -0.5000 
    124 C124       -3.9072  -16.2087  -53.9264 C.3       23 UNK        -0.0398 
    125 S125       -2.1340  -16.1193  -53.5089 S.3       23 UNK        -0.2404 
    126 C126       -2.0788  -17.0364  -51.9399 C.3       23 UNK        -0.0205 
    127 H127        5.6771  -16.8828  -48.7156 H         1 UNK         0.0600 
    128 H128        4.2524  -16.1785  -47.9665 H         1 UNK         0.0600 
    129 H129        5.8574  -15.8931  -47.2692 H         1 UNK         0.0600 
    130 H130        5.1520  -12.7631  -49.2365 H         1 UNK         0.3000 
    131 H131        4.4395  -14.0739  -46.6847 H         1 UNK         0.0600 
    132 H132        2.3526  -12.5788  -46.6853 H         1 UNK         0.0800 
    133 H133        2.6004  -12.2826  -48.3852 H         1 UNK         0.0800 
    134 H134        2.6466  -14.2747  -50.1857 H         1 UNK         0.0800 
    135 H135        1.0361  -13.6206  -49.9966 H         1 UNK         0.0800 
    136 H136       -0.8017  -14.9309  -50.7909 H         1 UNK         0.1150 
    137 H137       -0.2554  -19.0650  -51.7806 H         1 UNK         0.1150 
    138 H138        2.9046  -16.8812  -49.8779 H         1 UNK         0.1150 
    139 H139        1.9981  -20.0401  -51.5968 H         1 UNK         0.0800 
    140 H140        3.3204  -19.0881  -50.9742 H         1 UNK         0.0800 
    141 H141        0.2375  -21.0986  -50.2698 H         1 UNK         0.0800 
    142 H142       -0.2102  -19.9628  -49.0223 H         1 UNK         0.0800 
    143 H143        0.9503  -22.7392  -48.4624 H         1 UNK         0.0600 
    144 H144        0.3361  -20.6283  -46.6560 H         1 UNK         0.3000 
    145 H145       -0.2947  -22.7097  -43.7847 H         1 UNK         0.0600 
    146 H146        1.4415  -21.2079  -42.8613 H         1 UNK         0.0600 
    147 H147        2.1718  -22.3991  -43.9267 H         1 UNK         0.0600 
    148 H148        1.9504  -20.7463  -44.4835 H         1 UNK         0.0600 
    149 H149       -0.3824  -19.8909  -44.0707 H         1 UNK         0.3000 
    150 H150       -3.7960  -19.6408  -45.1720 H         1 UNK         0.0600 
    151 H151       -3.9814  -19.8005  -42.7380 H         1 UNK         0.0600 
    152 H152       -3.7907  -18.1064  -43.1688 H         1 UNK         0.0600 
    153 H153       -2.4302  -19.0142  -42.5070 H         1 UNK         0.0600 
    154 H154       -1.8605  -17.6289  -44.6529 H         1 UNK         0.3000 
    155 H155       -0.2855  -17.6090  -47.8565 H         1 UNK         0.0600 
    156 H156       -2.2559  -15.6597  -46.5416 H         1 UNK         0.0600 
    157 H157       -1.0306  -15.2355  -47.7350 H         1 UNK         0.0600 
    158 H158       -2.3588  -16.2900  -48.1805 H         1 UNK         0.0600 
    159 H159       -0.0753  -16.0864  -45.3937 H         1 UNK         0.3000 
    160 H160        2.5777  -18.0735  -44.0252 H         1 UNK         0.0600 
    161 H161        2.5660  -15.2139  -45.1178 H         1 UNK         0.0600 
    162 H162        3.6470  -16.4935  -45.6650 H         1 UNK         0.0600 
    163 H163        3.7408  -15.9153  -44.0095 H         1 UNK         0.0600 
    164 H164        1.2664  -15.6857  -43.1245 H         1 UNK         0.3000 
    165 H165       -1.4279  -17.2278  -41.4211 H         1 UNK         0.0600 
    166 H166       -0.4401  -16.2051  -39.3969 H         1 UNK         0.0600 
    167 H167        0.4557  -17.6529  -39.8274 H         1 UNK         0.0600 
    168 H168        1.1286  -16.0680  -40.1920 H         1 UNK         0.0600 
    169 H169       -0.5683  -14.5781  -41.2706 H         1 UNK         0.3000 
    170 H170       -1.1928  -13.1620  -44.2090 H         1 UNK         0.0600 
    171 H171       -3.6282  -13.6857  -44.2123 H         1 UNK         0.0600 
    172 H172       -3.7244  -13.3445  -42.4890 H         1 UNK         0.0600 
    173 H173       -3.3453  -12.0543  -43.6313 H         1 UNK         0.0600 
    174 H174       -1.7867  -12.1344  -41.5903 H         1 UNK         0.3000 
    175 H175       -0.1919  -10.6565  -40.7197 H         1 UNK         0.0600 
    176 H176        1.1055  -13.1579  -39.4939 H         1 UNK         0.0600 
    177 H177        0.6065  -11.7199  -38.6041 H         1 UNK         0.0600 
    178 H178       -0.5979  -12.7318  -39.3791 H         1 UNK         0.0600 
    179 H179        2.5567  -11.3166  -40.2068 H         1 UNK         0.3000 
    180 H180        3.6785   -8.3678  -41.3846 H         1 UNK         0.0600 
    181 H181        4.6154  -11.1099  -40.3701 H         1 UNK         0.0600 
    182 H182        4.0012   -9.7886  -39.3795 H         1 UNK         0.0600 
    183 H183        5.5064   -9.5990  -40.2563 H         1 UNK         0.0600 
    184 H184        4.7552   -8.8138  -43.2527 H         1 UNK         0.3000 
    185 H185        5.1513   -9.8574  -45.2348 H         1 UNK         0.0600 
    186 H186        7.3147   -9.9705  -43.9506 H         1 UNK         0.0600 
    187 H187        7.2904  -11.7280  -44.0415 H         1 UNK         0.0600 
    188 H188        7.4788  -10.7669  -45.5076 H         1 UNK         0.0600 
    189 H189        4.5767  -12.6525  -44.9246 H         1 UNK         0.3000 
    190 H190       -2.1987  -21.1795  -47.6551 H         1 UNK         0.3000 
    191 H191       -3.8016  -22.7276  -49.3925 H         1 UNK         0.0600 
    192 H192       -4.5550  -21.4260  -46.7246 H         1 UNK         0.0600 
    193 H193       -5.6795  -21.9644  -47.9649 H         1 UNK         0.0600 
    194 H194       -4.5767  -20.6391  -48.3024 H         1 UNK         0.0600 
    195 H195       -2.8613  -23.3462  -45.9778 H         1 UNK         0.3000 
    196 H196       -4.2599  -25.7831  -45.6420 H         1 UNK         0.0600 
    197 H197       -2.6876  -26.1282  -43.7348 H         1 UNK         0.0600 
    198 H198       -3.3188  -24.4882  -43.7541 H         1 UNK         0.0600 
    199 H199       -1.6782  -24.8075  -44.3103 H         1 UNK         0.0600 
    200 H200       -0.8917  -25.1873  -46.7792 H         1 UNK         0.3000 
    201 H201       -0.1823  -27.8991  -47.2311 H         1 UNK         0.0600 
    202 H202        1.4742  -26.0592  -47.0861 H         1 UNK         0.0600 
    203 H203        0.8495  -25.3420  -48.5691 H         1 UNK         0.0600 
    204 H204        1.6448  -26.9103  -48.6141 H         1 UNK         0.0600 
    205 H205       -1.8908  -25.5564  -49.2744 H         1 UNK         0.3000 
    206 H206       -2.0910  -27.2994  -51.5907 H         1 UNK         0.0600 
    207 H207       -1.9876  -24.7790  -51.7080 H         1 UNK         0.0600 
    208 H208       -3.3781  -25.4514  -52.5317 H         1 UNK         0.0600 
    209 H209       -3.5777  -24.7005  -50.9502 H         1 UNK         0.0600 
    210 H210       -3.4492  -27.7807  -48.6835 H         1 UNK         0.3000 
    211 H211       -5.0909  -28.9793  -47.8601 H         1 UNK         0.0600 
    212 H212       -5.6963  -29.9314  -50.7070 H         1 UNK         0.0600 
    213 H213       -6.1788  -30.7188  -49.2124 H         1 UNK         0.0600 
    214 H214       -4.4778  -30.6240  -49.6370 H         1 UNK         0.0600 
    215 H215       -5.6091  -26.3396  -48.1571 H         1 UNK         0.3000 
    216 H216       -7.1499  -24.9000  -47.6203 H         1 UNK         0.0600 
    217 H217       -9.4528  -25.4595  -47.0549 H         1 UNK         0.0600 
    218 H218       -8.4045  -26.7177  -46.4240 H         1 UNK         0.0600 
    219 H219       -9.3537  -27.0033  -47.8836 H         1 UNK         0.0600 
    220 H220       -6.4272  -25.7228  -50.4699 H         1 UNK         0.3000 
    221 H221       -8.4917  -24.3525  -52.0615 H         1 UNK         0.0600 
    222 H222       -5.6620  -25.2650  -52.8110 H         1 UNK         0.0600 
    223 H223       -7.1119  -26.2409  -53.0174 H         1 UNK         0.0600 
    224 H224       -6.9205  -24.7513  -53.9251 H         1 UNK         0.0600 
    225 H225       -7.6219  -22.5100  -53.4869 H         1 UNK         0.3000 
    226 H226       -6.8970  -20.3150  -51.8064 H         1 UNK         0.0600 
    227 H227       -8.4842  -20.1533  -53.7249 H         1 UNK         0.0600 
    228 H228       -7.1655  -19.0100  -53.8965 H         1 UNK         0.0600 
    229 H229       -7.1697  -20.4843  -54.8553 H         1 UNK         0.0600 
    230 H230       -4.8651  -22.5616  -53.2974 H         1 UNK         0.3000 
    231 H231       -2.6931  -22.7559  -53.7410 H         1 UNK         0.0600 
    232 H232       -1.1083  -21.6236  -52.2191 H         1 UNK         0.0600 
    233 H233       -2.5142  -22.1902  -51.3366 H         1 UNK         0.0600 
    234 H234       -2.3502  -20.4797  -51.7196 H         1 UNK         0.0600 
    235 H235       -4.0473  -21.3948  -55.6355 H         1 UNK         0.3000 
    236 H236       -3.8229  -20.4342  -57.5834 H         1 UNK         0.0600 
    237 H237       -1.6470  -19.9372  -58.5843 H         1 UNK         0.0600 
    238 H238       -0.8578  -19.9363  -57.0169 H         1 UNK         0.0600 
    239 H239       -1.5244  -21.4321  -57.6731 H         1 UNK         0.0600 
    240 H240       -3.7772  -18.6739  -54.8176 H         1 UNK         0.3000 
    241 H241       -3.5149  -16.0168  -56.0240 H         1 UNK         0.0600 
    242 H242       -5.3557  -14.4089  -56.0062 H         1 UNK         0.3800 
    243 H243       -6.9428  -15.0247  -56.3666 H         1 UNK         0.3800 
    244 H244       -4.3238  -15.2139  -53.7608 H         1 UNK         0.0800 
    245 H245       -4.4286  -16.8722  -53.2357 H         1 UNK         0.0800 
    246 H246       -2.4009  -18.0638  -52.1144 H         1 UNK         0.0800 
    247 H247       -2.7857  -16.6004  -51.2325 H         1 UNK         0.0800 
@<TRIPOS>BOND
     1    1    2 1    
     2    1  127 1    
     3    1  128 1    
     4    1  129 1    
     5    2    3 2    
     6    2    4 am   BACKBONE|DICT|INTERRES
     7    4    5 1    
     8    4  130 1    
     9    5    6 1    
    10    5   65 1    
    11    5  131 1    
    12    6    7 1    
    13    6  132 1    
    14    6  133 1    
    15    7    8 1    
    16    8    9 1    
    17    8  134 1    
    18    8  135 1    
    19    9   10 ar   
    20    9   14 ar   
    21   10   11 ar   
    22   10  136 1    
    23   11   12 ar   
    24   11  126 1    
    25   12   13 ar   
    26   12  137 1    
    27   13   14 ar   
    28   13   15 1    
    29   14  138 1    
    30   15   16 1    
    31   15  139 1    
    32   15  140 1    
    33   16   17 1    
    34   17   18 1    
    35   17  141 1    
    36   17  142 1    
    37   18   19 1    
    38   18   67 1    
    39   18  143 1    
    40   19   20 am   BACKBONE|DICT|INTERRES
    41   19  144 1    
    42   20   21 2    
    43   20   22 1    
    44   22   23 1    
    45   22   24 1    
    46   22  145 1    
    47   23  146 1    
    48   23  147 1    
    49   23  148 1    
    50   24   25 am   BACKBONE|DICT|INTERRES
    51   24  149 1    
    52   25   26 2    
    53   25   27 1    
    54   27   28 1    
    55   27   29 1    
    56   27  150 1    
    57   28  151 1    
    58   28  152 1    
    59   28  153 1    
    60   29   30 am   BACKBONE|DICT|INTERRES
    61   29  154 1    
    62   30   31 2    
    63   30   32 1    
    64   32   33 1    
    65   32   34 1    
    66   32  155 1    
    67   33  156 1    
    68   33  157 1    
    69   33  158 1    
    70   34   35 am   BACKBONE|DICT|INTERRES
    71   34  159 1    
    72   35   36 2    
    73   35   37 1    
    74   37   38 1    
    75   37   39 1    
    76   37  160 1    
    77   38  161 1    
    78   38  162 1    
    79   38  163 1    
    80   39   40 am   BACKBONE|DICT|INTERRES
    81   39  164 1    
    82   40   41 2    
    83   40   42 1    
    84   42   43 1    
    85   42   44 1    
    86   42  165 1    
    87   43  166 1    
    88   43  167 1    
    89   43  168 1    
    90   44   45 am   BACKBONE|DICT|INTERRES
    91   44  169 1    
    92   45   46 2    
    93   45   47 1    
    94   47   48 1    
    95   47   49 1    
    96   47  170 1    
    97   48  171 1    
    98   48  172 1    
    99   48  173 1    
   100   49   50 am   BACKBONE|DICT|INTERRES
   101   49  174 1    
   102   50   51 2    
   103   50   52 1    
   104   52   53 1    
   105   52   54 1    
   106   52  175 1    
   107   53  176 1    
   108   53  177 1    
   109   53  178 1    
   110   54   55 am   BACKBONE|DICT|INTERRES
   111   54  179 1    
   112   55   56 2    
   113   55   57 1    
   114   57   58 1    
   115   57   59 1    
   116   57  180 1    
   117   58  181 1    
   118   58  182 1    
   119   58  183 1    
   120   59   60 am   BACKBONE|DICT|INTERRES
   121   59  184 1    
   122   60   61 2    
   123   60   62 1    
   124   62   63 1    
   125   62   64 1    
   126   62  185 1    
   127   63  186 1    
   128   63  187 1    
   129   63  188 1    
   130   64   65 am   BACKBONE|DICT|INTERRES
   131   64  189 1    
   132   65   66 2    
   133   67   68 2    
   134   67   69 am   BACKBONE|DICT|INTERRES
   135   69   70 1    
   136   69  190 1    
   137   70   71 1    
   138   70   72 1    
   139   70  191 1    
   140   71  192 1    
   141   71  193 1    
   142   71  194 1    
   143   72   73 2    
   144   72   74 am   BACKBONE|DICT|INTERRES
   145   74   75 1    
   146   74  195 1    
   147   75   76 1    
   148   75   77 1    
   149   75  196 1    
   150   76  197 1    
   151   76  198 1    
   152   76  199 1    
   153   77   78 2    
   154   77   79 am   BACKBONE|DICT|INTERRES
   155   79   80 1    
   156   79  200 1    
   157   80   81 1    
   158   80   82 1    
   159   80  201 1    
   160   81  202 1    
   161   81  203 1    
   162   81  204 1    
   163   82   83 2    
   164   82   84 am   BACKBONE|DICT|INTERRES
   165   84   85 1    
   166   84  205 1    
   167   85   86 1    
   168   85   87 1    
   169   85  206 1    
   170   86  207 1    
   171   86  208 1    
   172   86  209 1    
   173   87   88 2    
   174   87   89 am   BACKBONE|DICT|INTERRES
   175   89   90 1    
   176   89  210 1    
   177   90   91 1    
   178   90   92 1    
   179   90  211 1    
   180   91  212 1    
   181   91  213 1    
   182   91  214 1    
   183   92   93 2    
   184   92   94 am   BACKBONE|DICT|INTERRES
   185   94   95 1    
   186   94  215 1    
   187   95   96 1    
   188   95   97 1    
   189   95  216 1    
   190   96  217 1    
   191   96  218 1    
   192   96  219 1    
   193   97   98 2    
   194   97   99 am   BACKBONE|DICT|INTERRES
   195   99  100 1    
   196   99  220 1    
   197  100  101 1    
   198  100  102 1    
   199  100  221 1    
   200  101  222 1    
   201  101  223 1    
   202  101  224 1    
   203  102  103 2    
   204  102  104 am   BACKBONE|DICT|INTERRES
   205  104  105 1    
   206  104  225 1    
   207  105  106 1    
   208  105  107 1    
   209  105  226 1    
   210  106  227 1    
   211  106  228 1    
   212  106  229 1    
   213  107  108 2    
   214  107  109 am   BACKBONE|DICT|INTERRES
   215  109  110 1    
   216  109  230 1    
   217  110  111 1    
   218  110  112 1    
   219  110  231 1    
   220  111  232 1    
   221  111  233 1    
   222  111  234 1    
   223  112  113 2    
   224  112  114 am   BACKBONE|DICT|INTERRES
   225  114  115 1    
   226  114  235 1    
   227  115  116 1    
   228  115  117 1    
   229  115  236 1    
   230  116  237 1    
   231  116  238 1    
   232  116  239 1    
   233  117  118 2    
   234  117  119 am   BACKBONE|DICT|INTERRES
   235  119  120 1    
   236  119  240 1    
   237  120  121 1    
   238  120  124 1    
   239  120  241 1    
   240  121  122 am   BACKBONE|DICT|INTERRES
   241  121  123 2    
   242  122  242 1    
   243  122  243 1    
   244  124  125 1    
   245  124  244 1    
   246  124  245 1    
   247  125  126 1    
   248  126  246 1    
   249  126  247 1    
@<TRIPOS>SUBSTRUCTURE
     1 UNK         1 GROUP             0       ****    0 ROOT    
