@<TRIPOS>MOLECULE
3R540
247   249    1
SMALL
USER_CHARGES


@<TRIPOS>ATOM
      1 CA         -5.4251  -17.0108  -47.7465 C.3       0 UNK        -0.1800 
      2 C          -4.4738  -15.8356  -47.5722 C.2       0 UNK         0.5000 
      3 O          -4.9183  -14.7266  -47.2726 O.2       0 UNK        -0.5000 
      4 N          -3.1681  -16.0683  -47.7569 N.am      1 UNK        -0.5000 
      5 CA         -2.1040  -15.0690  -47.6215 C.3       1 UNK         0.1400 
      6 C6         -0.8344  -15.4556  -48.4212 C.3       23 UNK        -0.0398 
      7 S7         -1.1159  -15.3493  -50.2194 S.3       23 UNK        -0.2404 
      8 C8          0.5468  -15.7133  -50.8653 C.3       23 UNK        -0.0205 
      9 C9          0.8750  -17.1920  -50.7447 C.ar      23 UNK        -0.0193 
     10 C10         0.3575  -18.0987  -51.6742 C.ar      23 UNK        -0.1150 
     11 C11         0.6131  -19.4669  -51.5493 C.ar      23 UNK        -0.0193 
     12 C12         1.3970  -19.9216  -50.4857 C.ar      23 UNK        -0.1150 
     13 C13         1.9129  -19.0267  -49.5441 C.ar      23 UNK        -0.0193 
     14 C14         1.6657  -17.6586  -49.6908 C.ar      23 UNK        -0.1150 
     15 C15         2.6977  -19.5509  -48.3477 C.3       23 UNK        -0.0205 
     16 S16         1.9380  -19.1446  -46.7341 S.3       23 UNK        -0.2404 
     17 C17         0.1612  -19.4664  -47.0008 C.3       23 UNK        -0.0398 
     18 CA         -0.2181  -20.9663  -47.0128 C.3       11 UNK         0.1400 
     19 N           0.0423  -21.6576  -45.7484 N.am      11 UNK        -0.5000 
     20 C          -0.1335  -22.9755  -45.5684 C.2       10 UNK         0.5000 
     21 O          -0.4014  -23.7590  -46.4785 O.2       10 UNK        -0.5000 
     22 CA         -0.0703  -23.5012  -44.1257 C.3       10 UNK         0.1400 
     23 CB          1.3696  -23.8563  -43.7280 C.3       10 UNK        -0.1800 
     24 N          -0.6376  -22.5433  -43.1759 N.am      10 UNK        -0.5000 
     25 C          -1.9461  -22.2637  -43.0799 C.2       9 UNK         0.5000 
     26 O          -2.8146  -22.8208  -43.7515 O.2       9 UNK        -0.5000 
     27 CA         -2.3466  -21.1430  -42.1023 C.3       9 UNK         0.1400 
     28 CB         -2.4552  -21.6859  -40.6699 C.3       9 UNK        -0.1800 
     29 N          -1.4111  -20.0176  -42.1273 N.am      9 UNK        -0.5000 
     30 C          -1.2436  -19.1994  -43.1758 C.2       8 UNK         0.5000 
     31 O          -1.9131  -19.2701  -44.2054 O.2       8 UNK        -0.5000 
     32 CA         -0.1086  -18.1612  -43.0801 C.3       8 UNK         0.1400 
     33 CB         -0.6402  -16.8345  -42.5229 C.3       8 UNK        -0.1800 
     34 N           1.0368  -18.6017  -42.2779 N.am      8 UNK        -0.5000 
     35 C           1.7979  -19.6733  -42.5464 C.2       7 UNK         0.5000 
     36 O           1.5578  -20.4529  -43.4687 O.2       7 UNK        -0.5000 
     37 CA          2.9946  -19.9371  -41.6050 C.3       7 UNK         0.1400 
     38 CB          4.1120  -20.7588  -42.2814 C.3       7 UNK        -0.1800 
     39 N           3.5419  -18.7229  -40.9825 N.am      7 UNK        -0.5000 
     40 C           4.0975  -17.6760  -41.6108 C.2       6 UNK         0.5000 
     41 O           4.2022  -17.5908  -42.8365 O.2       6 UNK        -0.5000 
     42 CA          4.5695  -16.5260  -40.6958 C.3       6 UNK         0.1400 
     43 CB          5.6801  -16.9717  -39.7204 C.3       6 UNK        -0.1800 
     44 N           4.9571  -15.3314  -41.4525 N.am      6 UNK        -0.5000 
     45 C           6.0288  -15.1450  -42.2349 C.2       5 UNK         0.5000 
     46 O           6.9690  -15.9360  -42.3361 O.2       5 UNK        -0.5000 
     47 CA          6.0078  -13.8533  -43.0783 C.3       5 UNK         0.1400 
     48 CB          7.3751  -13.5328  -43.7092 C.3       5 UNK        -0.1800 
     49 N           5.0060  -13.9329  -44.1437 N.am      5 UNK        -0.5000 
     50 C           3.6819  -13.8194  -43.9791 C.2       4 UNK         0.5000 
     51 O           3.1427  -13.6202  -42.8864 O.2       4 UNK        -0.5000 
     52 CA          2.8219  -13.9796  -45.2489 C.3       4 UNK         0.1400 
     53 CB          2.4253  -15.4526  -45.4402 C.3       4 UNK        -0.1800 
     54 N           1.6134  -13.1504  -45.2204 N.am      4 UNK        -0.5000 
     55 C           1.6086  -11.8085  -45.1552 C.2       3 UNK         0.5000 
     56 O           2.6373  -11.1302  -45.1811 O.2       3 UNK        -0.5000 
     57 CA          0.2484  -11.0806  -45.0753 C.3       3 UNK         0.1400 
     58 CB          0.0568  -10.1534  -46.2874 C.3       3 UNK        -0.1800 
     59 N          -0.9036  -11.9777  -45.0012 N.am      3 UNK        -0.5000 
     60 C          -1.3378  -12.6128  -43.9045 C.2       2 UNK         0.5000 
     61 O          -0.8313  -12.4804  -42.7907 O.2       2 UNK        -0.5000 
     62 CA         -2.5339  -13.5708  -44.0929 C.3       2 UNK         0.1400 
     63 CB         -3.8413  -12.8912  -43.6591 C.3       2 UNK        -0.1800 
     64 N          -2.6866  -14.0561  -45.4694 N.am      2 UNK        -0.5000 
     65 C          -1.7953  -14.8031  -46.1340 C.2       1 UNK         0.5000 
     66 O          -0.7651  -15.2413  -45.6229 O.2       1 UNK        -0.5000 
     67 C          -1.6913  -21.1373  -47.4345 C.2       11 UNK         0.5000 
     68 O          -1.9572  -21.6218  -48.5334 O.2       11 UNK        -0.5000 
     69 N          -2.6180  -20.7504  -46.5467 N.am      12 UNK        -0.5000 
     70 CA         -4.0607  -20.7827  -46.7734 C.3       12 UNK         0.1400 
     71 CB         -4.7889  -20.1501  -45.5783 C.3       12 UNK        -0.1800 
     72 C          -4.6128  -22.1821  -47.0827 C.2       12 UNK         0.5000 
     73 O          -5.2894  -22.3397  -48.0995 O.2       12 UNK        -0.5000 
     74 N          -4.3219  -23.1529  -46.2077 N.am      13 UNK        -0.5000 
     75 CA         -4.8737  -24.5021  -46.2799 C.3       13 UNK         0.1400 
     76 CB         -5.0156  -25.0780  -44.8602 C.3       13 UNK        -0.1800 
     77 C          -4.0425  -25.4279  -47.1811 C.2       13 UNK         0.5000 
     78 O          -4.5459  -25.8814  -48.2087 O.2       13 UNK        -0.5000 
     79 N          -2.8041  -25.7268  -46.7641 N.am      14 UNK        -0.5000 
     80 CA         -1.9697  -26.7752  -47.3579 C.3       14 UNK         0.1400 
     81 CB         -0.8219  -27.1403  -46.4024 C.3       14 UNK        -0.1800 
     82 C          -1.4435  -26.4195  -48.7580 C.2       14 UNK         0.5000 
     83 O          -1.5173  -27.2551  -49.6600 O.2       14 UNK        -0.5000 
     84 N          -0.9489  -25.1860  -48.9250 N.am      15 UNK        -0.5000 
     85 CA         -0.4972  -24.6589  -50.2174 C.3       15 UNK         0.1400 
     86 CB          0.5777  -23.5895  -49.9880 C.3       15 UNK        -0.1800 
     87 C          -1.6555  -24.1072  -51.0747 C.2       15 UNK         0.5000 
     88 O          -1.4431  -23.8186  -52.2518 O.2       15 UNK        -0.5000 
     89 N          -2.8511  -23.9935  -50.4788 N.am      16 UNK        -0.5000 
     90 CA         -4.1213  -23.5952  -51.0854 C.3       16 UNK         0.1400 
     91 CB         -4.5746  -24.6250  -52.1402 C.3       16 UNK        -0.1800 
     92 C          -4.1481  -22.1371  -51.5896 C.2       16 UNK         0.5000 
     93 O          -4.7701  -21.8461  -52.6147 O.2       16 UNK        -0.5000 
     94 N          -3.5334  -21.2149  -50.8326 N.am      17 UNK        -0.5000 
     95 CA         -3.6121  -19.7690  -51.0736 C.3       17 UNK         0.1400 
     96 CB         -2.6575  -19.0142  -50.1390 C.3       17 UNK        -0.1800 
     97 C          -5.0392  -19.2104  -50.9244 C.2       17 UNK         0.5000 
     98 O          -5.3610  -18.2137  -51.5684 O.2       17 UNK        -0.5000 
     99 N          -5.8888  -19.8869  -50.1353 N.am      18 UNK        -0.5000 
    100 CA        -7.3184  -19.5883  -50.0088 C.3       18 UNK         0.1400 
    101 CB        -7.8992  -20.4004  -48.8423 C.3       18 UNK        -0.1800 
    102 C         -8.1133  -19.8487  -51.3069 C.2       18 UNK         0.5000 
    103 O         -9.1560  -19.2267  -51.5100 O.2       18 UNK        -0.5000 
    104 N         -7.5943  -20.7337  -52.1701 N.am      19 UNK        -0.5000 
    105 CA        -8.1052  -21.0070  -53.5148 C.3       19 UNK         0.1400 
    106 CB        -8.0435  -22.5245  -53.7585 C.3       19 UNK        -0.1800 
    107 C         -7.3082  -20.2497  -54.5990 C.2       19 UNK         0.5000 
    108 O         -7.5983  -20.4212  -55.7836 O.2       19 UNK        -0.5000 
    109 N         -6.3134  -19.4477  -54.1838 N.am      20 UNK        -0.5000 
    110 CA        -5.3583  -18.6957  -55.0039 C.3       20 UNK         0.1400 
    111 CB        -6.0723  -17.5698  -55.7801 C.3       20 UNK        -0.1800 
    112 C         -4.4882  -19.5954  -55.9082 C.2       20 UNK         0.5000 
    113 O         -4.1218  -19.1860  -57.0118 O.2       20 UNK        -0.5000 
    114 N         -4.1577  -20.8041  -55.4259 N.am      21 UNK        -0.5000 
    115 CA        -3.4526  -21.8457  -56.1828 C.3       21 UNK         0.1400 
    116 CB        -3.4090  -23.1291  -55.3448 C.3       21 UNK        -0.1800 
    117 C         -2.0347  -21.4618  -56.6523 C.2       21 UNK         0.5000 
    118 O         -1.5720  -21.9912  -57.6638 O.2       21 UNK        -0.5000 
    119 N         -1.3853  -20.5394  -55.9318 N.am      22 UNK        -0.5000 
    120 CA        -0.0888  -19.9478  -56.3042 C.3       22 UNK         0.1400 
    121 C         -0.1933  -18.8103  -57.3655 C.2       22 UNK         0.5000 
    122 N         -1.3777  -18.3878  -57.7948 N.am      22 UNK        -0.7600 
    123 O          0.8281  -18.3036  -57.8217 O.2       22 UNK        -0.5000 
    124 C124        0.7166  -19.4819  -55.0629 C.3       23 UNK        -0.0398 
    125 S125        1.0836  -20.8505  -53.9100 S.3       23 UNK        -0.2404 
    126 C126       -0.0133  -20.4647  -52.5126 C.3       23 UNK        -0.0205 
    127 H127       -5.9624  -17.2023  -46.8178 H         1 UNK         0.0600 
    128 H128       -4.8982  -17.9202  -48.0281 H         1 UNK         0.0600 
    129 H129       -6.1542  -16.7872  -48.5249 H         1 UNK         0.0600 
    130 H130       -2.8584  -16.9991  -47.9884 H         1 UNK         0.3000 
    131 H131       -2.4652  -14.1240  -48.0341 H         1 UNK         0.0600 
    132 H132       -0.5026  -16.4614  -48.1597 H         1 UNK         0.0800 
    133 H133       -0.0075  -14.7846  -48.1802 H         1 UNK         0.0800 
    134 H134        0.5904  -15.4173  -51.9144 H         1 UNK         0.0800 
    135 H135        1.2891  -15.1052  -50.3458 H         1 UNK         0.0800 
    136 H136       -0.2727  -17.7371  -52.4737 H         1 UNK         0.1150 
    137 H137        1.5872  -20.9787  -50.3796 H         1 UNK         0.1150 
    138 H138        2.0558  -16.9643  -48.9596 H         1 UNK         0.1150 
    139 H139        2.8121  -20.6342  -48.4090 H         1 UNK         0.0800 
    140 H140        3.7063  -19.1368  -48.3756 H         1 UNK         0.0800 
    141 H141       -0.1513  -18.9848  -47.9275 H         1 UNK         0.0800 
    142 H142       -0.3816  -18.9396  -46.2181 H         1 UNK         0.0800 
    143 H143        0.3985  -21.4499  -47.7696 H         1 UNK         0.0600 
    144 H144        0.3443  -21.0921  -44.9618 H         1 UNK         0.3000 
    145 H145       -0.6647  -24.4162  -44.0791 H         1 UNK         0.0600 
    146 H146        1.4186  -24.2249  -42.7034 H         1 UNK         0.0600 
    147 H147        1.7656  -24.6398  -44.3752 H         1 UNK         0.0600 
    148 H148        2.0380  -23.0000  -43.8111 H         1 UNK         0.0600 
    149 H149        0.0217  -21.9833  -42.6547 H         1 UNK         0.3000 
    150 H150       -3.3299  -20.7749  -42.4025 H         1 UNK         0.0600 
    151 H151       -3.1607  -22.5165  -40.6207 H         1 UNK         0.0600 
    152 H152       -2.8114  -20.9177  -39.9833 H         1 UNK         0.0600 
    153 H153       -1.4951  -22.0482  -40.3004 H         1 UNK         0.0600 
    154 H154       -0.8239  -19.8887  -41.3167 H         1 UNK         0.3000 
    155 H155        0.2525  -17.9790  -44.0943 H         1 UNK         0.0600 
    156 H156        0.1079  -16.0446  -42.5976 H         1 UNK         0.0600 
    157 H157       -0.9394  -16.9235  -41.4781 H         1 UNK         0.0600 
    158 H158       -1.5127  -16.5084  -43.0884 H         1 UNK         0.0600 
    159 H159        1.2951  -18.0170  -41.4974 H         1 UNK         0.3000 
    160 H160        2.5987  -20.5413  -40.7877 H         1 UNK         0.0600 
    161 H161        4.4970  -20.2619  -43.1724 H         1 UNK         0.0600 
    162 H162        3.7472  -21.7392  -42.5881 H         1 UNK         0.0600 
    163 H163        4.9475  -20.9246  -41.6014 H         1 UNK         0.0600 
    164 H164        3.4842  -18.6958  -39.9738 H         1 UNK         0.3000 
    165 H165        3.7060  -16.2239  -40.1014 H         1 UNK         0.0600 
    166 H166        6.5238  -17.4257  -40.2406 H         1 UNK         0.0600 
    167 H167        6.0569  -16.1301  -39.1390 H         1 UNK         0.0600 
    168 H168        5.3067  -17.7099  -39.0103 H         1 UNK         0.0600 
    169 H169        4.2188  -14.6418  -41.5579 H         1 UNK         0.3000 
    170 H170        5.7497  -13.0269  -42.4125 H         1 UNK         0.0600 
    171 H171        8.1492  -13.4566  -42.9445 H         1 UNK         0.0600 
    172 H172        7.6857  -14.3028  -44.4165 H         1 UNK         0.0600 
    173 H173        7.3503  -12.5808  -44.2399 H         1 UNK         0.0600 
    174 H174        5.3632  -14.1354  -45.0661 H         1 UNK         0.3000 
    175 H175        3.4151  -13.6672  -46.1107 H         1 UNK         0.0600 
    176 H176        1.7957  -15.8082  -44.6235 H         1 UNK         0.0600 
    177 H177        1.8805  -15.6006  -46.3727 H         1 UNK         0.0600 
    178 H178        3.3044  -16.0975  -45.4746 H         1 UNK         0.0600 
    179 H179        0.7329  -13.6472  -45.1776 H         1 UNK         0.3000 
    180 H180        0.2674  -10.4630  -44.1749 H         1 UNK         0.0600 
    181 H181        0.0417  -10.7132  -47.2234 H         1 UNK         0.0600 
    182 H182        0.8632   -9.4220  -46.3555 H         1 UNK         0.0600 
    183 H183       -0.8769   -9.5953  -46.2140 H         1 UNK         0.0600 
    184 H184       -1.3955  -12.1441  -45.8662 H         1 UNK         0.3000 
    185 H185       -2.3683  -14.4319  -43.4455 H         1 UNK         0.0600 
    186 H186       -3.7776  -12.5422  -42.6275 H         1 UNK         0.0600 
    187 H187       -4.0725  -12.0281  -44.2846 H         1 UNK         0.0600 
    188 H188       -4.6826  -13.5823  -43.7158 H         1 UNK         0.0600 
    189 H189       -3.5448  -13.8089  -45.9501 H         1 UNK         0.3000 
    190 H190       -2.3154  -20.3511  -45.6607 H         1 UNK         0.3000 
    191 H191       -4.2687  -20.1645  -47.6453 H         1 UNK         0.0600 
    192 H192       -4.5839  -20.6866  -44.6515 H         1 UNK         0.0600 
    193 H193       -5.8690  -20.1534  -45.7299 H         1 UNK         0.0600 
    194 H194       -4.4843  -19.1130  -45.4365 H         1 UNK         0.0600 
    195 H195       -3.7412  -22.9400  -45.3998 H         1 UNK         0.3000 
    196 H196       -5.8792  -24.4503  -46.7041 H         1 UNK         0.0600 
    197 H197       -5.4428  -26.0813  -44.8874 H         1 UNK         0.0600 
    198 H198       -5.6767  -24.4603  -44.2521 H         1 UNK         0.0600 
    199 H199       -4.0577  -25.1438  -44.3437 H         1 UNK         0.0600 
    200 H200       -2.4335  -25.2578  -45.9509 H         1 UNK         0.3000 
    201 H201       -2.5938  -27.6652  -47.4660 H         1 UNK         0.0600 
    202 H202       -1.2021  -27.4494  -45.4287 H         1 UNK         0.0600 
    203 H203       -0.1356  -26.3092  -46.2459 H         1 UNK         0.0600 
    204 H204       -0.2378  -27.9710  -46.8003 H         1 UNK         0.0600 
    205 H205       -0.8804  -24.5694  -48.1174 H         1 UNK         0.3000 
    206 H206       -0.0332  -25.4693  -50.7835 H         1 UNK         0.0600 
    207 H207        1.3442  -23.9301  -49.2916 H         1 UNK         0.0600 
    208 H208        1.0745  -23.3370  -50.9254 H         1 UNK         0.0600 
    209 H209        0.1429  -22.6745  -49.5959 H         1 UNK         0.0600 
    210 H210       -2.8973  -24.2386  -49.5001 H         1 UNK         0.3000 
    211 H211       -4.8563  -23.6372  -50.2826 H         1 UNK         0.0600 
    212 H212       -3.8881  -24.6760  -52.9839 H         1 UNK         0.0600 
    213 H213       -5.5621  -24.3817  -52.5323 H         1 UNK         0.0600 
    214 H214       -4.6394  -25.6225  -51.7056 H         1 UNK         0.0600 
    215 H215       -3.0122  -21.5133  -50.0091 H         1 UNK         0.3000 
    216 H216       -3.2917  -19.5909  -52.1019 H         1 UNK         0.0600 
    217 H217       -1.6664  -19.4608  -50.1365 H         1 UNK         0.0600 
    218 H218       -3.0120  -19.0031  -49.1113 H         1 UNK         0.0600 
    219 H219       -2.5497  -17.9771  -50.4566 H         1 UNK         0.0600 
    220 H220       -5.5563  -20.7105  -49.6486 H         1 UNK         0.3000 
    221 H221       -7.4229  -18.5281  -49.7707 H         1 UNK         0.0600 
    222 H222       -7.8132  -21.4735  -49.0178 H         1 UNK         0.0600 
    223 H223       -7.3862  -20.1709  -47.9083 H         1 UNK         0.0600 
    224 H224       -8.9562  -20.1746  -48.6963 H         1 UNK         0.0600 
    225 H225       -6.7169  -21.1841  -51.9417 H         1 UNK         0.3000 
    226 H226       -9.1474  -20.6916  -53.5941 H         1 UNK         0.0600 
    227 H227       -8.5781  -23.0724  -52.9825 H         1 UNK         0.0600 
    228 H228       -8.5009  -22.7866  -54.7133 H         1 UNK         0.0600 
    229 H229       -7.0155  -22.8867  -53.7797 H         1 UNK         0.0600 
    230 H230       -6.1828  -19.3452  -53.1858 H         1 UNK         0.3000 
    231 H231       -4.6682  -18.2215  -54.3050 H         1 UNK         0.0600 
    232 H232       -5.3518  -16.9174  -56.2748 H         1 UNK         0.0600 
    233 H233       -6.6659  -16.9463  -55.1115 H         1 UNK         0.0600 
    234 H234       -6.7364  -17.9651  -56.5492 H         1 UNK         0.0600 
    235 H235       -4.4873  -21.0703  -54.5033 H         1 UNK         0.3000 
    236 H236       -4.0429  -22.0484  -57.0787 H         1 UNK         0.0600 
    237 H237       -4.4130  -23.4579  -55.0760 H         1 UNK         0.0600 
    238 H238       -2.9347  -23.9434  -55.8938 H         1 UNK         0.0600 
    239 H239       -2.8437  -22.9802  -54.4246 H         1 UNK         0.0600 
    240 H240       -1.8447  -20.1540  -55.1220 H         1 UNK         0.3000 
    241 H241        0.5038  -20.7283  -56.7853 H         1 UNK         0.0600 
    242 H242       -2.2452  -18.7931  -57.4580 H         1 UNK         0.3800 
    243 H243       -1.4142  -17.6556  -58.4861 H         1 UNK         0.3800 
    244 H244        1.6756  -19.0593  -55.3672 H         1 UNK         0.0800 
    245 H245        0.1880  -18.6808  -54.5469 H         1 UNK         0.0800 
    246 H246       -0.2378  -21.3891  -51.9800 H         1 UNK         0.0800 
    247 H247       -0.9721  -20.0973  -52.8790 H         1 UNK         0.0800 
@<TRIPOS>BOND
     1    1    2 1    
     2    1  127 1    
     3    1  128 1    
     4    1  129 1    
     5    2    3 2    
     6    2    4 am   BACKBONE|DICT|INTERRES
     7    4    5 1    
     8    4  130 1    
     9    5    6 1    
    10    5   65 1    
    11    5  131 1    
    12    6    7 1    
    13    6  132 1    
    14    6  133 1    
    15    7    8 1    
    16    8    9 1    
    17    8  134 1    
    18    8  135 1    
    19    9   10 ar   
    20    9   14 ar   
    21   10   11 ar   
    22   10  136 1    
    23   11   12 ar   
    24   11  126 1    
    25   12   13 ar   
    26   12  137 1    
    27   13   14 ar   
    28   13   15 1    
    29   14  138 1    
    30   15   16 1    
    31   15  139 1    
    32   15  140 1    
    33   16   17 1    
    34   17   18 1    
    35   17  141 1    
    36   17  142 1    
    37   18   19 1    
    38   18   67 1    
    39   18  143 1    
    40   19   20 am   BACKBONE|DICT|INTERRES
    41   19  144 1    
    42   20   21 2    
    43   20   22 1    
    44   22   23 1    
    45   22   24 1    
    46   22  145 1    
    47   23  146 1    
    48   23  147 1    
    49   23  148 1    
    50   24   25 am   BACKBONE|DICT|INTERRES
    51   24  149 1    
    52   25   26 2    
    53   25   27 1    
    54   27   28 1    
    55   27   29 1    
    56   27  150 1    
    57   28  151 1    
    58   28  152 1    
    59   28  153 1    
    60   29   30 am   BACKBONE|DICT|INTERRES
    61   29  154 1    
    62   30   31 2    
    63   30   32 1    
    64   32   33 1    
    65   32   34 1    
    66   32  155 1    
    67   33  156 1    
    68   33  157 1    
    69   33  158 1    
    70   34   35 am   BACKBONE|DICT|INTERRES
    71   34  159 1    
    72   35   36 2    
    73   35   37 1    
    74   37   38 1    
    75   37   39 1    
    76   37  160 1    
    77   38  161 1    
    78   38  162 1    
    79   38  163 1    
    80   39   40 am   BACKBONE|DICT|INTERRES
    81   39  164 1    
    82   40   41 2    
    83   40   42 1    
    84   42   43 1    
    85   42   44 1    
    86   42  165 1    
    87   43  166 1    
    88   43  167 1    
    89   43  168 1    
    90   44   45 am   BACKBONE|DICT|INTERRES
    91   44  169 1    
    92   45   46 2    
    93   45   47 1    
    94   47   48 1    
    95   47   49 1    
    96   47  170 1    
    97   48  171 1    
    98   48  172 1    
    99   48  173 1    
   100   49   50 am   BACKBONE|DICT|INTERRES
   101   49  174 1    
   102   50   51 2    
   103   50   52 1    
   104   52   53 1    
   105   52   54 1    
   106   52  175 1    
   107   53  176 1    
   108   53  177 1    
   109   53  178 1    
   110   54   55 am   BACKBONE|DICT|INTERRES
   111   54  179 1    
   112   55   56 2    
   113   55   57 1    
   114   57   58 1    
   115   57   59 1    
   116   57  180 1    
   117   58  181 1    
   118   58  182 1    
   119   58  183 1    
   120   59   60 am   BACKBONE|DICT|INTERRES
   121   59  184 1    
   122   60   61 2    
   123   60   62 1    
   124   62   63 1    
   125   62   64 1    
   126   62  185 1    
   127   63  186 1    
   128   63  187 1    
   129   63  188 1    
   130   64   65 am   BACKBONE|DICT|INTERRES
   131   64  189 1    
   132   65   66 2    
   133   67   68 2    
   134   67   69 am   BACKBONE|DICT|INTERRES
   135   69   70 1    
   136   69  190 1    
   137   70   71 1    
   138   70   72 1    
   139   70  191 1    
   140   71  192 1    
   141   71  193 1    
   142   71  194 1    
   143   72   73 2    
   144   72   74 am   BACKBONE|DICT|INTERRES
   145   74   75 1    
   146   74  195 1    
   147   75   76 1    
   148   75   77 1    
   149   75  196 1    
   150   76  197 1    
   151   76  198 1    
   152   76  199 1    
   153   77   78 2    
   154   77   79 am   BACKBONE|DICT|INTERRES
   155   79   80 1    
   156   79  200 1    
   157   80   81 1    
   158   80   82 1    
   159   80  201 1    
   160   81  202 1    
   161   81  203 1    
   162   81  204 1    
   163   82   83 2    
   164   82   84 am   BACKBONE|DICT|INTERRES
   165   84   85 1    
   166   84  205 1    
   167   85   86 1    
   168   85   87 1    
   169   85  206 1    
   170   86  207 1    
   171   86  208 1    
   172   86  209 1    
   173   87   88 2    
   174   87   89 am   BACKBONE|DICT|INTERRES
   175   89   90 1    
   176   89  210 1    
   177   90   91 1    
   178   90   92 1    
   179   90  211 1    
   180   91  212 1    
   181   91  213 1    
   182   91  214 1    
   183   92   93 2    
   184   92   94 am   BACKBONE|DICT|INTERRES
   185   94   95 1    
   186   94  215 1    
   187   95   96 1    
   188   95   97 1    
   189   95  216 1    
   190   96  217 1    
   191   96  218 1    
   192   96  219 1    
   193   97   98 2    
   194   97   99 am   BACKBONE|DICT|INTERRES
   195   99  100 1    
   196   99  220 1    
   197  100  101 1    
   198  100  102 1    
   199  100  221 1    
   200  101  222 1    
   201  101  223 1    
   202  101  224 1    
   203  102  103 2    
   204  102  104 am   BACKBONE|DICT|INTERRES
   205  104  105 1    
   206  104  225 1    
   207  105  106 1    
   208  105  107 1    
   209  105  226 1    
   210  106  227 1    
   211  106  228 1    
   212  106  229 1    
   213  107  108 2    
   214  107  109 am   BACKBONE|DICT|INTERRES
   215  109  110 1    
   216  109  230 1    
   217  110  111 1    
   218  110  112 1    
   219  110  231 1    
   220  111  232 1    
   221  111  233 1    
   222  111  234 1    
   223  112  113 2    
   224  112  114 am   BACKBONE|DICT|INTERRES
   225  114  115 1    
   226  114  235 1    
   227  115  116 1    
   228  115  117 1    
   229  115  236 1    
   230  116  237 1    
   231  116  238 1    
   232  116  239 1    
   233  117  118 2    
   234  117  119 am   BACKBONE|DICT|INTERRES
   235  119  120 1    
   236  119  240 1    
   237  120  121 1    
   238  120  124 1    
   239  120  241 1    
   240  121  122 am   BACKBONE|DICT|INTERRES
   241  121  123 2    
   242  122  242 1    
   243  122  243 1    
   244  124  125 1    
   245  124  244 1    
   246  124  245 1    
   247  125  126 1    
   248  126  246 1    
   249  126  247 1    
@<TRIPOS>SUBSTRUCTURE
     1 UNK         1 GROUP             0       ****    0 ROOT    
