@<TRIPOS>MOLECULE
3R540
247   249    1
SMALL
USER_CHARGES


@<TRIPOS>ATOM
      1 CA         -4.0528  -13.0535  -49.8709 C.3       0 UNK        -0.1800 
      2 C          -2.5659  -12.7324  -49.8890 C.2       0 UNK         0.5000 
      3 O          -2.1724  -11.6765  -50.3847 O.2       0 UNK        -0.5000 
      4 N          -1.7412  -13.6355  -49.3427 N.am      1 UNK        -0.5000 
      5 CA         -0.2801  -13.4976  -49.2648 C.3       1 UNK         0.1400 
      6 C6          0.4131  -14.8484  -48.9654 C.3       23 UNK        -0.0398 
      7 S7          0.2714  -16.0236  -50.3522 S.3       23 UNK        -0.2404 
      8 C8         -0.7474  -17.3503  -49.6350 C.3       23 UNK        -0.0205 
      9 C9         -2.2300  -17.0081  -49.6144 C.ar      23 UNK        -0.0193 
     10 C10        -2.9258  -16.8600  -50.8177 C.ar      23 UNK        -0.1150 
     11 C11        -4.3025  -16.6218  -50.8212 C.ar      23 UNK        -0.0193 
     12 C12        -4.9808  -16.5148  -49.6046 C.ar      23 UNK        -0.1150 
     13 C13        -4.2969  -16.6487  -48.3924 C.ar      23 UNK        -0.0193 
     14 C14        -2.9190  -16.8916  -48.4027 C.ar      23 UNK        -0.1150 
     15 C15        -5.0569  -16.5183  -47.0804 C.3       23 UNK        -0.0205 
     16 S16        -5.7092  -18.1199  -46.4997 S.3       23 UNK        -0.2404 
     17 C17        -4.2628  -18.8262  -45.6424 C.3       23 UNK        -0.0398 
     18 CA         -3.6988  -20.0950  -46.3346 C.3       11 UNK         0.1400 
     19 N          -2.2382  -20.1808  -46.2157 N.am      11 UNK        -0.5000 
     20 C          -1.4607  -21.1372  -46.7429 C.2       10 UNK         0.5000 
     21 O          -1.8879  -22.0703  -47.4179 O.2       10 UNK        -0.5000 
     22 CA          0.0395  -21.0843  -46.4035 C.3       10 UNK         0.1400 
     23 CB          0.7730  -20.0436  -47.2615 C.3       10 UNK        -0.1800 
     24 N           0.2773  -20.8254  -44.9837 N.am      10 UNK        -0.5000 
     25 C          -0.0982  -21.6549  -43.9987 C.2       9 UNK         0.5000 
     26 O          -0.6151  -22.7558  -44.1917 O.2       9 UNK        -0.5000 
     27 CA          0.0818  -21.1482  -42.5571 C.3       9 UNK         0.1400 
     28 CB          1.5349  -21.3257  -42.0928 C.3       9 UNK        -0.1800 
     29 N          -0.3212  -19.7501  -42.3992 N.am      9 UNK        -0.5000 
     30 C          -1.5660  -19.2899  -42.5925 C.2       8 UNK         0.5000 
     31 O          -2.5252  -20.0079  -42.8776 O.2       8 UNK        -0.5000 
     32 CA         -1.7628  -17.7645  -42.5082 C.3       8 UNK         0.1400 
     33 CB         -1.8623  -17.3050  -41.0469 C.3       8 UNK        -0.1800 
     34 N          -0.7069  -17.0155  -43.1940 N.am      8 UNK        -0.5000 
     35 C          -0.4494  -17.1056  -44.5063 C.2       7 UNK         0.5000 
     36 O          -1.0881  -17.8099  -45.2824 O.2       7 UNK        -0.5000 
     37 CA          0.7453  -16.3125  -45.0486 C.3       7 UNK         0.1400 
     38 CB          0.3588  -14.8504  -45.2855 C.3       7 UNK        -0.1800 
     39 N           1.9138  -16.4005  -44.1765 N.am      7 UNK        -0.5000 
     40 C           2.5893  -17.5362  -43.9498 C.2       6 UNK         0.5000 
     41 O           2.3426  -18.6057  -44.5092 O.2       6 UNK        -0.5000 
     42 CA          3.6803  -17.4768  -42.8683 C.3       6 UNK         0.1400 
     43 CB          4.9800  -16.8755  -43.4238 C.3       6 UNK        -0.1800 
     44 N           3.2389  -16.7185  -41.6963 N.am      6 UNK        -0.5000 
     45 C           2.2797  -17.1355  -40.8567 C.2       5 UNK         0.5000 
     46 O           1.6983  -18.2140  -40.9692 O.2       5 UNK        -0.5000 
     47 CA          1.8758  -16.1843  -39.7162 C.3       5 UNK         0.1400 
     48 CB          2.7301  -16.4505  -38.4680 C.3       5 UNK        -0.1800 
     49 N           1.9674  -14.7674  -40.0680 N.am      5 UNK        -0.5000 
     50 C           1.2457  -14.1526  -41.0153 C.2       4 UNK         0.5000 
     51 O           0.4232  -14.7340  -41.7259 O.2       4 UNK        -0.5000 
     52 CA          1.4748  -12.6344  -41.1986 C.3       4 UNK         0.1400 
     53 CB          2.5802  -12.0526  -40.2886 C.3       4 UNK        -0.1800 
     54 N           1.7378  -12.2368  -42.5849 N.am      4 UNK        -0.5000 
     55 C           2.6280  -12.7537  -43.4407 C.2       3 UNK         0.5000 
     56 O           3.2705  -13.7821  -43.2170 O.2       3 UNK        -0.5000 
     57 CA          2.8397  -11.9779  -44.7638 C.3       3 UNK         0.1400 
     58 CB          3.9009  -12.6399  -45.6622 C.3       3 UNK        -0.1800 
     59 N           1.6250  -11.7850  -45.5617 N.am      3 UNK        -0.5000 
     60 C           0.5632  -11.0227  -45.2792 C.2       2 UNK         0.5000 
     61 O           0.4639  -10.3658  -44.2416 O.2       2 UNK        -0.5000 
     62 CA         -0.5945  -10.9749  -46.3036 C.3       2 UNK         0.1400 
     63 CB         -0.6149   -9.6171  -47.0314 C.3       2 UNK        -0.1800 
     64 N          -0.6807  -12.0778  -47.2787 N.am      2 UNK        -0.5000 
     65 C           0.1730  -12.4120  -48.2605 C.2       1 UNK         0.5000 
     66 O           1.2864  -11.9054  -48.3951 O.2       1 UNK        -0.5000 
     67 C          -4.4059  -21.3699  -45.8233 C.2       11 UNK         0.5000 
     68 O          -5.3140  -21.8734  -46.4851 O.2       11 UNK        -0.5000 
     69 N          -3.9478  -21.8830  -44.6717 N.am      12 UNK        -0.5000 
     70 CA         -4.4222  -23.1254  -44.0627 C.3       12 UNK         0.1400 
     71 CB         -3.8862  -23.2220  -42.6262 C.3       12 UNK        -0.1800 
     72 C          -4.0456  -24.3810  -44.8736 C.2       12 UNK         0.5000 
     73 O          -4.8571  -25.3027  -44.9685 O.2       12 UNK        -0.5000 
     74 N          -2.8338  -24.3961  -45.4469 N.am      13 UNK        -0.5000 
     75 CA         -2.3362  -25.4661  -46.3163 C.3       13 UNK         0.1400 
     76 CB         -0.8166  -25.3179  -46.4751 C.3       13 UNK        -0.1800 
     77 C          -3.0324  -25.5059  -47.6920 C.2       13 UNK         0.5000 
     78 O          -3.1620  -26.5847  -48.2730 O.2       13 UNK        -0.5000 
     79 N          -3.4812  -24.3393  -48.1749 N.am      14 UNK        -0.5000 
     80 CA         -4.2225  -24.1170  -49.4159 C.3       14 UNK         0.1400 
     81 CB         -5.6273  -24.7548  -49.3331 C.3       14 UNK        -0.1800 
     82 C          -3.3974  -24.5407  -50.6478 C.2       14 UNK         0.5000 
     83 O          -2.2824  -24.0476  -50.8269 O.2       14 UNK        -0.5000 
     84 N          -3.9294  -25.4554  -51.4692 N.am      15 UNK        -0.5000 
     85 CA         -3.2998  -25.9549  -52.6944 C.3       15 UNK         0.1400 
     86 CB         -4.2612  -26.9261  -53.3939 C.3       15 UNK        -0.1800 
     87 C          -1.9194  -26.6104  -52.4839 C.2       15 UNK         0.5000 
     88 O          -1.1035  -26.5922  -53.4050 O.2       15 UNK        -0.5000 
     89 N          -1.6538  -27.1251  -51.2736 N.am      16 UNK        -0.5000 
     90 CA         -0.3557  -27.6752  -50.8753 C.3       16 UNK         0.1400 
     91 CB         -0.5118  -28.4440  -49.5552 C.3       16 UNK        -0.1800 
     92 C           0.7570  -26.6114  -50.7605 C.2       16 UNK         0.5000 
     93 O           1.9305  -26.9603  -50.8924 O.2       16 UNK        -0.5000 
     94 N           0.3825  -25.3408  -50.5462 N.am      17 UNK        -0.5000 
     95 CA          1.2965  -24.1947  -50.5465 C.3       17 UNK         0.1400 
     96 CB          0.8288  -23.1784  -49.4930 C.3       17 UNK        -0.1800 
     97 C           1.4112  -23.5312  -51.9336 C.2       17 UNK         0.5000 
     98 O           2.1847  -22.5838  -52.0807 O.2       17 UNK        -0.5000 
     99 N           0.6379  -24.0183  -52.9165 N.am      18 UNK        -0.5000 
    100 CA         0.5171  -23.5803  -54.3121 C.3       18 UNK         0.1400 
    101 CB         1.8548  -23.7029  -55.0659 C.3       18 UNK        -0.1800 
    102 C         -0.1011  -22.1804  -54.4808 C.2       18 UNK         0.5000 
    103 O         -1.0957  -22.0431  -55.1919 O.2       18 UNK        -0.5000 
    104 N          0.4698  -21.1701  -53.8127 N.am      19 UNK        -0.5000 
    105 CA         0.0199  -19.7757  -53.8371 C.3       19 UNK         0.1400 
    106 CB         1.0168  -18.9070  -53.0554 C.3       19 UNK        -0.1800 
    107 C         -1.4018  -19.5985  -53.2771 C.2       19 UNK         0.5000 
    108 O         -2.1899  -18.8304  -53.8287 O.2       19 UNK        -0.5000 
    109 N         -1.7200  -20.3629  -52.2251 N.am      20 UNK        -0.5000 
    110 CA        -3.0215  -20.3726  -51.5605 C.3       20 UNK         0.1400 
    111 CB        -2.8328  -20.7194  -50.0815 C.3       20 UNK        -0.1800 
    112 C         -4.0859  -21.2414  -52.2616 C.2       20 UNK         0.5000 
    113 O         -5.1582  -21.4563  -51.6957 O.2       20 UNK        -0.5000 
    114 N         -3.8174  -21.6766  -53.5023 N.am      21 UNK        -0.5000 
    115 CA        -4.8658  -22.0390  -54.4596 C.3       21 UNK         0.1400 
    116 CB        -4.2524  -22.8318  -55.6229 C.3       21 UNK        -0.1800 
    117 C         -5.6003  -20.7832  -54.9836 C.2       21 UNK         0.5000 
    118 O         -6.7684  -20.8794  -55.3599 O.2       21 UNK        -0.5000 
    119 N         -4.9070  -19.6326  -54.9700 N.am      22 UNK        -0.5000 
    120 CA        -5.4143  -18.2784  -55.2559 C.3       22 UNK         0.1400 
    121 C         -5.8437  -18.0248  -56.7334 C.2       22 UNK         0.5000 
    122 N         -5.4614  -18.8651  -57.6871 N.am      22 UNK        -0.7600 
    123 O         -6.5064  -17.0344  -57.0310 O.2       22 UNK        -0.5000 
    124 C124       -6.4783  -17.7866  -54.2303 C.3       23 UNK        -0.0398 
    125 S125       -5.9826  -18.0287  -52.4882 S.3       23 UNK        -0.2404 
    126 C126       -5.0595  -16.5020  -52.1359 C.3       23 UNK        -0.0205 
    127 H127       -4.6359  -12.1461  -49.7137 H         1 UNK         0.0600 
    128 H128       -4.2988  -13.7511  -49.0708 H         1 UNK         0.0600 
    129 H129       -4.3540  -13.4950  -50.8207 H         1 UNK         0.0600 
    130 H130       -2.1216  -14.5092  -49.0066 H         1 UNK         0.3000 
    131 H131        0.0677  -13.1599  -50.2438 H         1 UNK         0.0600 
    132 H132        0.0077  -15.2982  -48.0603 H         1 UNK         0.0800 
    133 H133        1.4800  -14.7051  -48.7831 H         1 UNK         0.0800 
    134 H134       -0.3868  -17.5907  -48.6350 H         1 UNK         0.0800 
    135 H135       -0.6069  -18.2515  -50.2327 H         1 UNK         0.0800 
    136 H136       -2.3957  -16.9586  -51.7549 H         1 UNK         0.1150 
    137 H137       -6.0471  -16.3367  -49.6033 H         1 UNK         0.1150 
    138 H138       -2.3881  -17.0102  -47.4689 H         1 UNK         0.1150 
    139 H139       -4.4266  -16.0621  -46.3156 H         1 UNK         0.0800 
    140 H140       -5.8966  -15.8349  -47.2152 H         1 UNK         0.0800 
    141 H141       -4.5265  -19.0152  -44.6001 H         1 UNK         0.0800 
    142 H142       -3.5050  -18.0496  -45.5974 H         1 UNK         0.0800 
    143 H143       -3.9005  -20.0173  -47.4032 H         1 UNK         0.0600 
    144 H144       -1.7861  -19.4235  -45.7074 H         1 UNK         0.3000 
    145 H145        0.4618  -22.0635  -46.6350 H         1 UNK         0.0600 
    146 H146        1.8524  -20.1198  -47.1304 H         1 UNK         0.0600 
    147 H147        0.4806  -19.0282  -47.0005 H         1 UNK         0.0600 
    148 H148        0.5610  -20.1871  -48.3218 H         1 UNK         0.0600 
    149 H149        0.7272  -19.9483  -44.7454 H         1 UNK         0.3000 
    150 H150       -0.5577  -21.7535  -41.9114 H         1 UNK         0.0600 
    151 H151        1.8556  -22.3628  -42.1987 H         1 UNK         0.0600 
    152 H152        1.6476  -21.0561  -41.0426 H         1 UNK         0.0600 
    153 H153        2.2217  -20.7072  -42.6714 H         1 UNK         0.0600 
    154 H154        0.4054  -19.0986  -42.1161 H         1 UNK         0.3000 
    155 H155       -2.7068  -17.5250  -43.0020 H         1 UNK         0.0600 
    156 H156       -2.6997  -17.7899  -40.5437 H         1 UNK         0.0600 
    157 H157       -2.0201  -16.2283  -40.9798 H         1 UNK         0.0600 
    158 H158       -0.9603  -17.5482  -40.4867 H         1 UNK         0.0600 
    159 H159       -0.1642  -16.3640  -42.6342 H         1 UNK         0.3000 
    160 H160        1.0132  -16.7468  -46.0142 H         1 UNK         0.0600 
    161 H161        0.2285  -14.3043  -44.3518 H         1 UNK         0.0600 
    162 H162       -0.5785  -14.7716  -45.8373 H         1 UNK         0.0600 
    163 H163        1.1275  -14.3538  -45.8731 H         1 UNK         0.0600 
    164 H164        2.1821  -15.5653  -43.6682 H         1 UNK         0.3000 
    165 H165        3.8910  -18.5006  -42.5513 H         1 UNK         0.0600 
    166 H166        5.7681  -16.8768  -42.6708 H         1 UNK         0.0600 
    167 H167        5.3423  -17.4541  -44.2744 H         1 UNK         0.0600 
    168 H168        4.8420  -15.8487  -43.7629 H         1 UNK         0.0600 
    169 H169        3.6292  -15.7944  -41.5740 H         1 UNK         0.3000 
    170 H170        0.8352  -16.3942  -39.4639 H         1 UNK         0.0600 
    171 H171        3.7829  -16.2271  -38.6450 H         1 UNK         0.0600 
    172 H172        2.3951  -15.8474  -37.6239 H         1 UNK         0.0600 
    173 H173        2.6629  -17.4964  -38.1649 H         1 UNK         0.0600 
    174 H174        2.6263  -14.2156  -39.5384 H         1 UNK         0.3000 
    175 H175        0.5340  -12.1579  -40.9202 H         1 UNK         0.0600 
    176 H176        3.5571  -12.4869  -40.5058 H         1 UNK         0.0600 
    177 H177        2.6651  -10.9742  -40.4238 H         1 UNK         0.0600 
    178 H178        2.3606  -12.2195  -39.2333 H         1 UNK         0.0600 
    179 H179        1.2088  -11.4354  -42.9207 H         1 UNK         0.3000 
    180 H180        3.2132  -10.9900  -44.4877 H         1 UNK         0.0600 
    181 H181        4.0906  -12.0434  -46.5548 H         1 UNK         0.0600 
    182 H182        3.5912  -13.6352  -45.9838 H         1 UNK         0.0600 
    183 H183        4.8511  -12.7448  -45.1369 H         1 UNK         0.0600 
    184 H184        1.6344  -12.1996  -46.4862 H         1 UNK         0.3000 
    185 H185       -1.5104  -11.0403  -45.7144 H         1 UNK         0.0600 
    186 H186       -1.4782   -9.5373  -47.6923 H         1 UNK         0.0600 
    187 H187       -0.6735   -8.7919  -46.3206 H         1 UNK         0.0600 
    188 H188        0.2823   -9.4657  -47.6324 H         1 UNK         0.0600 
    189 H189       -1.5533  -12.5862  -47.2561 H         1 UNK         0.3000 
    190 H190       -3.2273  -21.3752  -44.1671 H         1 UNK         0.3000 
    191 H191       -5.5120  -23.0784  -44.0138 H         1 UNK         0.0600 
    192 H192       -4.2097  -22.3706  -42.0270 H         1 UNK         0.0600 
    193 H193       -2.7965  -23.2504  -42.6033 H         1 UNK         0.0600 
    194 H194       -4.2493  -24.1246  -42.1334 H         1 UNK         0.0600 
    195 H195       -2.2065  -23.6165  -45.2820 H         1 UNK         0.3000 
    196 H196       -2.5315  -26.4218  -45.8256 H         1 UNK         0.0600 
    197 H197       -0.3100  -25.4139  -45.5147 H         1 UNK         0.0600 
    198 H198       -0.5570  -24.3460  -46.8900 H         1 UNK         0.0600 
    199 H199       -0.4077  -26.0803  -47.1381 H         1 UNK         0.0600 
    200 H200       -3.1979  -23.4965  -47.6831 H         1 UNK         0.3000 
    201 H201       -4.3648  -23.0407  -49.4950 H         1 UNK         0.0600 
    202 H202       -6.1662  -24.3835  -48.4609 H         1 UNK         0.0600 
    203 H203       -5.5878  -25.8417  -49.2551 H         1 UNK         0.0600 
    204 H204       -6.2267  -24.5006  -50.2083 H         1 UNK         0.0600 
    205 H205       -4.8369  -25.8344  -51.2413 H         1 UNK         0.3000 
    206 H206       -3.1461  -25.0955  -53.3498 H         1 UNK         0.0600 
    207 H207       -4.4843  -27.7910  -52.7679 H         1 UNK         0.0600 
    208 H208       -5.2035  -26.4378  -53.6434 H         1 UNK         0.0600 
    209 H209       -3.8331  -27.2968  -54.3264 H         1 UNK         0.0600 
    210 H210       -2.3652  -27.0740  -50.5557 H         1 UNK         0.3000 
    211 H211       -0.0450  -28.3871  -51.6429 H         1 UNK         0.0600 
    212 H212       -0.8153  -27.7881  -48.7405 H         1 UNK         0.0600 
    213 H213        0.4283  -28.9141  -49.2635 H         1 UNK         0.0600 
    214 H214       -1.2565  -29.2351  -49.6439 H         1 UNK         0.0600 
    215 H215       -0.6058  -25.1160  -50.4821 H         1 UNK         0.3000 
    216 H216        2.3006  -24.5200  -50.2675 H         1 UNK         0.0600 
    217 H217        1.4686  -22.2953  -49.4824 H         1 UNK         0.0600 
    218 H218        0.8715  -23.6128  -48.4963 H         1 UNK         0.0600 
    219 H219       -0.1924  -22.8426  -49.6722 H         1 UNK         0.0600 
    220 H220        0.0427  -24.8010  -52.6787 H         1 UNK         0.3000 
    221 H221       -0.1775  -24.2824  -54.7761 H         1 UNK         0.0600 
    222 H222        2.6130  -23.0243  -54.6747 H         1 UNK         0.0600 
    223 H223        2.2489  -24.7173  -55.0031 H         1 UNK         0.0600 
    224 H224        1.7259  -23.4695  -56.1235 H         1 UNK         0.0600 
    225 H225        1.2641  -21.3961  -53.2192 H         1 UNK         0.3000 
    226 H226        0.0119  -19.4425  -54.8768 H         1 UNK         0.0600 
    227 H227        2.0116  -18.9533  -53.4986 H         1 UNK         0.0600 
    228 H228        0.7089  -17.8604  -53.0565 H         1 UNK         0.0600 
    229 H229        1.0992  -19.2235  -52.0147 H         1 UNK         0.0600 
    230 H230       -1.0276  -21.0058  -51.8701 H         1 UNK         0.3000 
    231 H231       -3.4282  -19.3633  -51.5925 H         1 UNK         0.0600 
    232 H232       -3.7892  -20.7646  -49.5619 H         1 UNK         0.0600 
    233 H233       -2.2310  -19.9677  -49.5731 H         1 UNK         0.0600 
    234 H234       -2.3351  -21.6772  -49.9557 H         1 UNK         0.0600 
    235 H235       -2.8954  -21.5168  -53.8875 H         1 UNK         0.3000 
    236 H236       -5.5966  -22.6786  -53.9601 H         1 UNK         0.0600 
    237 H237       -3.5658  -22.2207  -56.2095 H         1 UNK         0.0600 
    238 H238       -3.7042  -23.7033  -55.2662 H         1 UNK         0.0600 
    239 H239       -5.0292  -23.1899  -56.2995 H         1 UNK         0.0600 
    240 H240       -3.9506  -19.6493  -54.6369 H         1 UNK         0.3000 
    241 H241       -4.5440  -17.6345  -55.1263 H         1 UNK         0.0600 
    242 H242       -5.7330  -18.6911  -58.6421 H         1 UNK         0.3800 
    243 H243       -4.9123  -19.6788  -57.4607 H         1 UNK         0.3800 
    244 H244       -7.4185  -18.3176  -54.3858 H         1 UNK         0.0800 
    245 H245       -6.7012  -16.7293  -54.3824 H         1 UNK         0.0800 
    246 H246       -4.3655  -16.2994  -52.9531 H         1 UNK         0.0800 
    247 H247       -5.7492  -15.6579  -52.0928 H         1 UNK         0.0800 
@<TRIPOS>BOND
     1    1    2 1    
     2    1  127 1    
     3    1  128 1    
     4    1  129 1    
     5    2    3 2    
     6    2    4 am   BACKBONE|DICT|INTERRES
     7    4    5 1    
     8    4  130 1    
     9    5    6 1    
    10    5   65 1    
    11    5  131 1    
    12    6    7 1    
    13    6  132 1    
    14    6  133 1    
    15    7    8 1    
    16    8    9 1    
    17    8  134 1    
    18    8  135 1    
    19    9   10 ar   
    20    9   14 ar   
    21   10   11 ar   
    22   10  136 1    
    23   11   12 ar   
    24   11  126 1    
    25   12   13 ar   
    26   12  137 1    
    27   13   14 ar   
    28   13   15 1    
    29   14  138 1    
    30   15   16 1    
    31   15  139 1    
    32   15  140 1    
    33   16   17 1    
    34   17   18 1    
    35   17  141 1    
    36   17  142 1    
    37   18   19 1    
    38   18   67 1    
    39   18  143 1    
    40   19   20 am   BACKBONE|DICT|INTERRES
    41   19  144 1    
    42   20   21 2    
    43   20   22 1    
    44   22   23 1    
    45   22   24 1    
    46   22  145 1    
    47   23  146 1    
    48   23  147 1    
    49   23  148 1    
    50   24   25 am   BACKBONE|DICT|INTERRES
    51   24  149 1    
    52   25   26 2    
    53   25   27 1    
    54   27   28 1    
    55   27   29 1    
    56   27  150 1    
    57   28  151 1    
    58   28  152 1    
    59   28  153 1    
    60   29   30 am   BACKBONE|DICT|INTERRES
    61   29  154 1    
    62   30   31 2    
    63   30   32 1    
    64   32   33 1    
    65   32   34 1    
    66   32  155 1    
    67   33  156 1    
    68   33  157 1    
    69   33  158 1    
    70   34   35 am   BACKBONE|DICT|INTERRES
    71   34  159 1    
    72   35   36 2    
    73   35   37 1    
    74   37   38 1    
    75   37   39 1    
    76   37  160 1    
    77   38  161 1    
    78   38  162 1    
    79   38  163 1    
    80   39   40 am   BACKBONE|DICT|INTERRES
    81   39  164 1    
    82   40   41 2    
    83   40   42 1    
    84   42   43 1    
    85   42   44 1    
    86   42  165 1    
    87   43  166 1    
    88   43  167 1    
    89   43  168 1    
    90   44   45 am   BACKBONE|DICT|INTERRES
    91   44  169 1    
    92   45   46 2    
    93   45   47 1    
    94   47   48 1    
    95   47   49 1    
    96   47  170 1    
    97   48  171 1    
    98   48  172 1    
    99   48  173 1    
   100   49   50 am   BACKBONE|DICT|INTERRES
   101   49  174 1    
   102   50   51 2    
   103   50   52 1    
   104   52   53 1    
   105   52   54 1    
   106   52  175 1    
   107   53  176 1    
   108   53  177 1    
   109   53  178 1    
   110   54   55 am   BACKBONE|DICT|INTERRES
   111   54  179 1    
   112   55   56 2    
   113   55   57 1    
   114   57   58 1    
   115   57   59 1    
   116   57  180 1    
   117   58  181 1    
   118   58  182 1    
   119   58  183 1    
   120   59   60 am   BACKBONE|DICT|INTERRES
   121   59  184 1    
   122   60   61 2    
   123   60   62 1    
   124   62   63 1    
   125   62   64 1    
   126   62  185 1    
   127   63  186 1    
   128   63  187 1    
   129   63  188 1    
   130   64   65 am   BACKBONE|DICT|INTERRES
   131   64  189 1    
   132   65   66 2    
   133   67   68 2    
   134   67   69 am   BACKBONE|DICT|INTERRES
   135   69   70 1    
   136   69  190 1    
   137   70   71 1    
   138   70   72 1    
   139   70  191 1    
   140   71  192 1    
   141   71  193 1    
   142   71  194 1    
   143   72   73 2    
   144   72   74 am   BACKBONE|DICT|INTERRES
   145   74   75 1    
   146   74  195 1    
   147   75   76 1    
   148   75   77 1    
   149   75  196 1    
   150   76  197 1    
   151   76  198 1    
   152   76  199 1    
   153   77   78 2    
   154   77   79 am   BACKBONE|DICT|INTERRES
   155   79   80 1    
   156   79  200 1    
   157   80   81 1    
   158   80   82 1    
   159   80  201 1    
   160   81  202 1    
   161   81  203 1    
   162   81  204 1    
   163   82   83 2    
   164   82   84 am   BACKBONE|DICT|INTERRES
   165   84   85 1    
   166   84  205 1    
   167   85   86 1    
   168   85   87 1    
   169   85  206 1    
   170   86  207 1    
   171   86  208 1    
   172   86  209 1    
   173   87   88 2    
   174   87   89 am   BACKBONE|DICT|INTERRES
   175   89   90 1    
   176   89  210 1    
   177   90   91 1    
   178   90   92 1    
   179   90  211 1    
   180   91  212 1    
   181   91  213 1    
   182   91  214 1    
   183   92   93 2    
   184   92   94 am   BACKBONE|DICT|INTERRES
   185   94   95 1    
   186   94  215 1    
   187   95   96 1    
   188   95   97 1    
   189   95  216 1    
   190   96  217 1    
   191   96  218 1    
   192   96  219 1    
   193   97   98 2    
   194   97   99 am   BACKBONE|DICT|INTERRES
   195   99  100 1    
   196   99  220 1    
   197  100  101 1    
   198  100  102 1    
   199  100  221 1    
   200  101  222 1    
   201  101  223 1    
   202  101  224 1    
   203  102  103 2    
   204  102  104 am   BACKBONE|DICT|INTERRES
   205  104  105 1    
   206  104  225 1    
   207  105  106 1    
   208  105  107 1    
   209  105  226 1    
   210  106  227 1    
   211  106  228 1    
   212  106  229 1    
   213  107  108 2    
   214  107  109 am   BACKBONE|DICT|INTERRES
   215  109  110 1    
   216  109  230 1    
   217  110  111 1    
   218  110  112 1    
   219  110  231 1    
   220  111  232 1    
   221  111  233 1    
   222  111  234 1    
   223  112  113 2    
   224  112  114 am   BACKBONE|DICT|INTERRES
   225  114  115 1    
   226  114  235 1    
   227  115  116 1    
   228  115  117 1    
   229  115  236 1    
   230  116  237 1    
   231  116  238 1    
   232  116  239 1    
   233  117  118 2    
   234  117  119 am   BACKBONE|DICT|INTERRES
   235  119  120 1    
   236  119  240 1    
   237  120  121 1    
   238  120  124 1    
   239  120  241 1    
   240  121  122 am   BACKBONE|DICT|INTERRES
   241  121  123 2    
   242  122  242 1    
   243  122  243 1    
   244  124  125 1    
   245  124  244 1    
   246  124  245 1    
   247  125  126 1    
   248  126  246 1    
   249  126  247 1    
@<TRIPOS>SUBSTRUCTURE
     1 UNK         1 GROUP             0       ****    0 ROOT    
