@<TRIPOS>MOLECULE
3R540
247   249    1
SMALL
USER_CHARGES


@<TRIPOS>ATOM
      1 CA          0.3668  -15.3218  -49.5995 C.3       0 UNK        -0.1800 
      2 C          -0.4283  -15.8723  -48.4259 C.2       0 UNK         0.5000 
      3 O           0.1555  -16.3057  -47.4354 O.2       0 UNK        -0.5000 
      4 N          -1.7627  -15.8540  -48.5274 N.am      1 UNK        -0.5000 
      5 CA         -2.6826  -16.2804  -47.4652 C.3       1 UNK         0.1400 
      6 C6         -4.0670  -16.6782  -48.0276 C.3       23 UNK        -0.0398 
      7 S7         -4.9317  -15.3525  -48.9460 S.3       23 UNK        -0.2404 
      8 C8         -6.6295  -15.5156  -48.3017 C.3       23 UNK        -0.0205 
      9 C9         -7.3181  -16.7473  -48.8707 C.ar      23 UNK        -0.0193 
     10 C10        -8.0649  -16.6554  -50.0490 C.ar      23 UNK        -0.1150 
     11 C11        -8.6424  -17.7969  -50.6141 C.ar      23 UNK        -0.0193 
     12 C12        -8.4832  -19.0335  -49.9805 C.ar      23 UNK        -0.1150 
     13 C13        -7.7480  -19.1341  -48.7972 C.ar      23 UNK        -0.0193 
     14 C14        -7.1850  -17.9862  -48.2377 C.ar      23 UNK        -0.1150 
     15 C15        -7.5292  -20.4831  -48.1360 C.3       23 UNK        -0.0205 
     16 S16        -5.9949  -21.2469  -48.7423 S.3       23 UNK        -0.2404 
     17 C17        -5.9449  -22.7681  -47.7367 C.3       23 UNK        -0.0398 
     18 CA         -4.5293  -23.0411  -47.1716 C.3       11 UNK         0.1400 
     19 N          -4.0661  -21.9676  -46.2814 N.am      11 UNK        -0.5000 
     20 C          -2.9245  -21.2925  -46.4481 C.2       10 UNK         0.5000 
     21 O          -2.1660  -21.4477  -47.4023 O.2       10 UNK        -0.5000 
     22 CA         -2.5260  -20.3155  -45.3315 C.3       10 UNK         0.1400 
     23 CB         -3.6696  -19.3406  -45.0006 C.3       10 UNK        -0.1800 
     24 N          -2.0342  -20.9321  -44.0906 N.am      10 UNK        -0.5000 
     25 C          -1.3748  -22.0916  -43.9120 C.2       9 UNK         0.5000 
     26 O          -1.2450  -22.9757  -44.7637 O.2       9 UNK        -0.5000 
     27 CA         -0.7407  -22.2878  -42.5251 C.3       9 UNK         0.1400 
     28 CB          0.3168  -23.4072  -42.4997 C.3       9 UNK        -0.1800 
     29 N          -0.1443  -21.0321  -42.0751 N.am      9 UNK        -0.5000 
     30 C          -0.1454  -20.5890  -40.8111 C.2       8 UNK         0.5000 
     31 O          -0.6015  -21.2323  -39.8650 O.2       8 UNK        -0.5000 
     32 CA          0.4440  -19.1864  -40.5484 C.3       8 UNK         0.1400 
     33 CB          1.8751  -19.3012  -40.0024 C.3       8 UNK        -0.1800 
     34 N           0.4581  -18.3135  -41.7241 N.am      8 UNK        -0.5000 
     35 C          -0.6249  -17.8863  -42.3907 C.2       7 UNK         0.5000 
     36 O          -1.7793  -18.1484  -42.0532 O.2       7 UNK        -0.5000 
     37 CA         -0.3822  -17.0668  -43.6738 C.3       7 UNK         0.1400 
     38 CB         -0.5550  -15.5705  -43.3817 C.3       7 UNK        -0.1800 
     39 N           0.9296  -17.2862  -44.2897 N.am      7 UNK        -0.5000 
     40 C           1.3909  -18.4652  -44.7372 C.2       6 UNK         0.5000 
     41 O           0.7584  -19.5168  -44.6472 O.2       6 UNK        -0.5000 
     42 CA          2.8103  -18.5005  -45.3390 C.3       6 UNK         0.1400 
     43 CB          2.7450  -18.4424  -46.8723 C.3       6 UNK        -0.1800 
     44 N           3.6881  -17.4268  -44.8744 N.am      6 UNK        -0.5000 
     45 C           4.0469  -17.1846  -43.6059 C.2       5 UNK         0.5000 
     46 O           3.7412  -17.9071  -42.6568 O.2       5 UNK        -0.5000 
     47 CA          4.8352  -15.8810  -43.3561 C.3       5 UNK         0.1400 
     48 CB          6.3415  -16.1711  -43.2769 C.3       5 UNK        -0.1800 
     49 N           4.5981  -14.8400  -44.3674 N.am      5 UNK        -0.5000 
     50 C           3.4077  -14.2780  -44.6210 C.2       4 UNK         0.5000 
     51 O           2.3720  -14.5899  -44.0305 O.2       4 UNK        -0.5000 
     52 CA          3.3579  -13.2588  -45.7738 C.3       4 UNK         0.1400 
     53 CB          3.2403  -13.9918  -47.1200 C.3       4 UNK        -0.1800 
     54 N           2.2213  -12.3495  -45.6420 N.am      4 UNK        -0.5000 
     55 C           2.0970  -11.3874  -44.7221 C.2       3 UNK         0.5000 
     56 O           2.9895  -11.0896  -43.9267 O.2       3 UNK        -0.5000 
     57 CA          0.7544  -10.6279  -44.6670 C.3       3 UNK         0.1400 
     58 CB          0.7176   -9.4899  -45.7054 C.3       3 UNK        -0.1800 
     59 N          -0.4486  -11.4727  -44.7521 N.am      3 UNK        -0.5000 
     60 C          -0.8982  -12.1992  -45.7841 C.2       2 UNK         0.5000 
     61 O          -0.3223  -12.2908  -46.8727 O.2       2 UNK        -0.5000 
     62 CA         -2.2195  -12.9491  -45.5601 C.3       2 UNK         0.1400 
     63 CB         -3.4285  -12.0194  -45.7539 C.3       2 UNK        -0.1800 
     64 N          -2.2905  -14.0381  -46.5236 N.am      2 UNK        -0.5000 
     65 C          -2.8064  -15.2535  -46.3149 C.2       1 UNK         0.5000 
     66 O          -3.3622  -15.5870  -45.2684 O.2       1 UNK        -0.5000 
     67 C          -4.4565  -24.4119  -46.4631 C.2       11 UNK         0.5000 
     68 O          -4.8675  -25.4158  -47.0459 O.2       11 UNK        -0.5000 
     69 N          -3.9379  -24.4414  -45.2264 N.am      12 UNK        -0.5000 
     70 CA         -3.7671  -25.6497  -44.4214 C.3       12 UNK         0.1400 
     71 CB         -3.6007  -25.2589  -42.9448 C.3       12 UNK        -0.1800 
     72 C          -2.5765  -26.5010  -44.8935 C.2       12 UNK         0.5000 
     73 O          -2.6680  -27.7292  -44.8660 O.2       12 UNK        -0.5000 
     74 N          -1.4922  -25.8412  -45.3231 N.am      13 UNK        -0.5000 
     75 CA         -0.2823  -26.4965  -45.8206 C.3       13 UNK         0.1400 
     76 CB          0.6118  -26.9276  -44.6436 C.3       13 UNK        -0.1800 
     77 C           0.5103  -25.6251  -46.8063 C.2       13 UNK         0.5000 
     78 O           1.1720  -26.1799  -47.6845 O.2       13 UNK        -0.5000 
     79 N           0.4591  -24.2930  -46.6552 N.am      14 UNK        -0.5000 
     80 CA          1.2616  -23.3632  -47.4542 C.3       14 UNK         0.1400 
     81 CB          1.3920  -22.0347  -46.6982 C.3       14 UNK        -0.1800 
     82 C           0.7093  -23.1227  -48.8712 C.2       14 UNK         0.5000 
     83 O           1.4634  -22.6793  -49.7383 O.2       14 UNK        -0.5000 
     84 N          -0.5909  -23.3842  -49.0741 N.am      15 UNK        -0.5000 
     85 CA         -1.3541  -23.1980  -50.3156 C.3       15 UNK         0.1400 
     86 CB         -0.9352  -24.2495  -51.3614 C.3       15 UNK        -0.1800 
     87 C          -1.2847  -21.7536  -50.8589 C.2       15 UNK         0.5000 
     88 O          -1.1734  -21.5508  -52.0706 O.2       15 UNK        -0.5000 
     89 N          -1.3352  -20.7838  -49.9356 N.am      16 UNK        -0.5000 
     90 CA         -1.1730  -19.3417  -50.1280 C.3       16 UNK         0.1400 
     91 CB         -2.3722  -18.7605  -50.8990 C.3       16 UNK        -0.1800 
     92 C           0.1925  -18.9839  -50.7506 C.2       16 UNK         0.5000 
     93 O           0.2528  -18.2161  -51.7100 O.2       16 UNK        -0.5000 
     94 N           1.2571  -19.5739  -50.1867 N.am      17 UNK        -0.5000 
     95 CA          2.6568  -19.4929  -50.6213 C.3       17 UNK         0.1400 
     96 CB          3.1913  -18.0455  -50.5593 C.3       17 UNK        -0.1800 
     97 C           2.8701  -20.1613  -51.9943 C.2       17 UNK         0.5000 
     98 O           3.4640  -19.5646  -52.8944 O.2       17 UNK        -0.5000 
     99 N           2.3673  -21.3989  -52.1165 N.am      18 UNK        -0.5000 
    100 CA         2.4248  -22.2721  -53.2947 C.3       18 UNK         0.1400 
    101 CB         3.8775  -22.7056  -53.5815 C.3       18 UNK        -0.1800 
    102 C          1.7131  -21.6944  -54.5385 C.2       18 UNK         0.5000 
    103 O          2.0923  -22.0081  -55.6682 O.2       18 UNK        -0.5000 
    104 N          0.6762  -20.8785  -54.3116 N.am      19 UNK        -0.5000 
    105 CA        -0.1599  -20.2732  -55.3501 C.3       19 UNK         0.1400 
    106 CB        -0.6784  -18.9226  -54.8336 C.3       19 UNK        -0.1800 
    107 C         -1.3378  -21.1767  -55.7661 C.2       19 UNK         0.5000 
    108 O         -2.0503  -20.8302  -56.7085 O.2       19 UNK        -0.5000 
    109 N         -1.5250  -22.2976  -55.0512 N.am      20 UNK        -0.5000 
    110 CA        -2.6586  -23.2256  -55.1207 C.3       20 UNK         0.1400 
    111 CB        -2.8146  -23.8474  -56.5254 C.3       20 UNK        -0.1800 
    112 C         -3.9473  -22.5763  -54.5757 C.2       20 UNK         0.5000 
    113 O         -5.0153  -22.7234  -55.1726 O.2       20 UNK        -0.5000 
    114 N         -3.7922  -21.8840  -53.4357 N.am      21 UNK        -0.5000 
    115 CA        -4.7756  -21.0895  -52.6925 C.3       21 UNK         0.1400 
    116 CB        -6.0607  -21.8855  -52.3852 C.3       21 UNK        -0.1800 
    117 C         -5.0918  -19.7376  -53.3611 C.2       21 UNK         0.5000 
    118 O         -4.9302  -19.5703  -54.5709 O.2       21 UNK        -0.5000 
    119 N         -5.5375  -18.7889  -52.5302 N.am      22 UNK        -0.5000 
    120 CA        -6.0030  -17.4389  -52.8997 C.3       22 UNK         0.1400 
    121 C         -4.9183  -16.4642  -53.4535 C.2       22 UNK         0.5000 
    122 N         -3.6353  -16.7984  -53.4158 N.am      22 UNK        -0.7600 
    123 O         -5.2418  -15.3660  -53.8981 O.2       22 UNK        -0.5000 
    124 C124       -7.2852  -17.4384  -53.7852 C.3       23 UNK        -0.0398 
    125 S125       -8.5988  -18.6027  -53.2693 S.3       23 UNK        -0.2404 
    126 C126       -9.4243  -17.7041  -51.9163 C.3       23 UNK        -0.0205 
    127 H127        1.1533  -16.0202  -49.8805 H         1 UNK         0.0600 
    128 H128        0.8318  -14.3750  -49.3249 H         1 UNK         0.0600 
    129 H129       -0.2641  -15.1558  -50.4730 H         1 UNK         0.0600 
    130 H130       -2.2018  -15.4751  -49.3553 H         1 UNK         0.3000 
    131 H131       -2.2612  -17.1804  -47.0112 H         1 UNK         0.0600 
    132 H132       -4.6944  -17.0191  -47.2056 H         1 UNK         0.0800 
    133 H133       -3.9653  -17.5362  -48.6912 H         1 UNK         0.0800 
    134 H134       -7.1933  -14.6202  -48.5677 H         1 UNK         0.0800 
    135 H135       -6.6152  -15.5514  -47.2112 H         1 UNK         0.0800 
    136 H136       -8.1696  -15.6991  -50.5421 H         1 UNK         0.1150 
    137 H137       -8.9142  -19.9211  -50.4225 H         1 UNK         0.1150 
    138 H138       -6.6218  -18.0706  -47.3205 H         1 UNK         0.1150 
    139 H139       -7.4775  -20.3633  -47.0527 H         1 UNK         0.0800 
    140 H140       -8.3723  -21.1454  -48.3388 H         1 UNK         0.0800 
    141 H141       -6.2730  -23.5887  -48.3772 H         1 UNK         0.0800 
    142 H142       -6.6713  -22.7038  -46.9250 H         1 UNK         0.0800 
    143 H143       -3.8587  -23.1313  -48.0280 H         1 UNK         0.0600 
    144 H144       -4.6429  -21.7699  -45.4767 H         1 UNK         0.3000 
    145 H145       -1.7004  -19.7230  -45.7292 H         1 UNK         0.0600 
    146 H146       -3.3114  -18.4941  -44.4153 H         1 UNK         0.0600 
    147 H147       -4.1193  -18.9368  -45.9078 H         1 UNK         0.0600 
    148 H148       -4.4626  -19.8231  -44.4285 H         1 UNK         0.0600 
    149 H149       -2.0755  -20.3235  -43.2845 H         1 UNK         0.3000 
    150 H150       -1.5559  -22.5686  -41.8554 H         1 UNK         0.0600 
    151 H151       -0.1271  -24.3680  -42.7610 H         1 UNK         0.0600 
    152 H152        0.7551  -23.5150  -41.5076 H         1 UNK         0.0600 
    153 H153        1.1254  -23.2109  -43.2049 H         1 UNK         0.0600 
    154 H154        0.2382  -20.4418  -42.8081 H         1 UNK         0.3000 
    155 H155       -0.1772  -18.7089  -39.7880 H         1 UNK         0.0600 
    156 H156        2.5465  -19.7568  -40.7316 H         1 UNK         0.0600 
    157 H157        1.9032  -19.9145  -39.1008 H         1 UNK         0.0600 
    158 H158        2.2788  -18.3226  -39.7421 H         1 UNK         0.0600 
    159 H159        1.3695  -18.0642  -42.0861 H         1 UNK         0.3000 
    160 H160       -1.1357  -17.3636  -44.4051 H         1 UNK         0.0600 
    161 H161        0.1412  -15.2269  -42.6158 H         1 UNK         0.0600 
    162 H162       -1.5646  -15.3554  -43.0297 H         1 UNK         0.0600 
    163 H163       -0.3853  -14.9757  -44.2787 H         1 UNK         0.0600 
    164 H164        1.5190  -16.4656  -44.3770 H         1 UNK         0.3000 
    165 H165        3.2564  -19.4532  -45.0471 H         1 UNK         0.0600 
    166 H166        3.6891  -18.7547  -47.3187 H         1 UNK         0.0600 
    167 H167        1.9635  -19.0905  -47.2680 H         1 UNK         0.0600 
    168 H168        2.5274  -17.4332  -47.2217 H         1 UNK         0.0600 
    169 H169        3.9933  -16.7693  -45.5757 H         1 UNK         0.3000 
    170 H170        4.5105  -15.4864  -42.3911 H         1 UNK         0.0600 
    171 H171        6.5551  -16.9229  -42.5158 H         1 UNK         0.0600 
    172 H172        6.7299  -16.5445  -44.2253 H         1 UNK         0.0600 
    173 H173        6.9031  -15.2750  -43.0121 H         1 UNK         0.0600 
    174 H174        5.4032  -14.5432  -44.9004 H         1 UNK         0.3000 
    175 H175        4.2775  -12.6702  -45.7659 H         1 UNK         0.0600 
    176 H176        2.3417  -14.6086  -47.1615 H         1 UNK         0.0600 
    177 H177        3.2005  -13.2878  -47.9514 H         1 UNK         0.0600 
    178 H178        4.0957  -14.6463  -47.2908 H         1 UNK         0.0600 
    179 H179        1.4184  -12.5237  -46.2398 H         1 UNK         0.3000 
    180 H180        0.7082  -10.1623  -43.6812 H         1 UNK         0.0600 
    181 H181        0.7810   -9.8651  -46.7271 H         1 UNK         0.0600 
    182 H182        1.5539   -8.8052  -45.5598 H         1 UNK         0.0600 
    183 H183       -0.1989   -8.9063  -45.6184 H         1 UNK         0.0600 
    184 H184       -0.9919  -11.4973  -43.9002 H         1 UNK         0.3000 
    185 H185       -2.2256  -13.3467  -44.5435 H         1 UNK         0.0600 
    186 H186       -3.4069  -11.1924  -45.0434 H         1 UNK         0.0600 
    187 H187       -3.4492  -11.5921  -46.7573 H         1 UNK         0.0600 
    188 H188       -4.3652  -12.5557  -45.6001 H         1 UNK         0.0600 
    189 H189       -1.7874  -13.8621  -47.3837 H         1 UNK         0.3000 
    190 H190       -3.5546  -23.5873  -44.8496 H         1 UNK         0.3000 
    191 H191       -4.6708  -26.2568  -44.5106 H         1 UNK         0.0600 
    192 H192       -2.7009  -24.6667  -42.7817 H         1 UNK         0.0600 
    193 H193       -3.5252  -26.1461  -42.3148 H         1 UNK         0.0600 
    194 H194       -4.4540  -24.6807  -42.5900 H         1 UNK         0.0600 
    195 H195       -1.4939  -24.8271  -45.2915 H         1 UNK         0.3000 
    196 H196       -0.5751  -27.3915  -46.3741 H         1 UNK         0.0600 
    197 H197        1.5035  -27.4446  -45.0003 H         1 UNK         0.0600 
    198 H198        0.0894  -27.6108  -43.9740 H         1 UNK         0.0600 
    199 H199        0.9437  -26.0707  -44.0575 H         1 UNK         0.0600 
    200 H200       -0.0982  -23.8756  -45.9153 H         1 UNK         0.3000 
    201 H201        2.2653  -23.7796  -47.5642 H         1 UNK         0.0600 
    202 H202        1.7725  -22.1859  -45.6879 H         1 UNK         0.0600 
    203 H203        0.4364  -21.5155  -46.6192 H         1 UNK         0.0600 
    204 H204        2.0903  -21.3735  -47.2097 H         1 UNK         0.0600 
    205 H205       -1.1249  -23.6756  -48.2684 H         1 UNK         0.3000 
    206 H206       -2.4008  -23.3765  -50.0670 H         1 UNK         0.0600 
    207 H207       -1.5781  -24.2065  -52.2396 H         1 UNK         0.0600 
    208 H208       -1.0119  -25.2582  -50.9556 H         1 UNK         0.0600 
    209 H209        0.0917  -24.1022  -51.6948 H         1 UNK         0.0600 
    210 H210       -1.4948  -21.0758  -48.9704 H         1 UNK         0.3000 
    211 H211       -1.1795  -18.8986  -49.1310 H         1 UNK         0.0600 
    212 H212       -2.3166  -17.6724  -50.9434 H         1 UNK         0.0600 
    213 H213       -3.3121  -19.0203  -50.4134 H         1 UNK         0.0600 
    214 H214       -2.4082  -19.1347  -51.9204 H         1 UNK         0.0600 
    215 H215        1.0775  -20.2407  -49.4499 H         1 UNK         0.3000 
    216 H216        3.2304  -20.0811  -49.9034 H         1 UNK         0.0600 
    217 H217        4.2675  -18.0233  -50.7334 H         1 UNK         0.0600 
    218 H218        3.0127  -17.5953  -49.5847 H         1 UNK         0.0600 
    219 H219        2.7297  -17.4064  -51.3123 H         1 UNK         0.0600 
    220 H220        1.9238  -21.8096  -51.2964 H         1 UNK         0.3000 
    221 H221        1.8674  -23.1697  -53.0263 H         1 UNK         0.0600 
    222 H222        4.4899  -21.8704  -53.9222 H         1 UNK         0.0600 
    223 H223        4.3463  -23.1247  -52.6912 H         1 UNK         0.0600 
    224 H224        3.9125  -23.4732  -54.3554 H         1 UNK         0.0600 
    225 H225        0.3963  -20.7050  -53.3534 H         1 UNK         0.3000 
    226 H226        0.4433  -20.0864  -56.2408 H         1 UNK         0.0600 
    227 H227       -1.3134  -19.0500  -53.9578 H         1 UNK         0.0600 
    228 H228        0.1444  -18.2627  -54.5579 H         1 UNK         0.0600 
    229 H229       -1.2678  -18.4085  -55.5938 H         1 UNK         0.0600 
    230 H230       -0.8922  -22.4410  -54.2762 H         1 UNK         0.3000 
    231 H231       -2.4221  -24.0434  -54.4398 H         1 UNK         0.0600 
    232 H232       -1.8730  -24.2684  -56.8776 H         1 UNK         0.0600 
    233 H233       -3.1550  -23.1199  -57.2623 H         1 UNK         0.0600 
    234 H234       -3.5462  -24.6560  -56.5102 H         1 UNK         0.0600 
    235 H235       -2.8436  -21.8008  -53.0838 H         1 UNK         0.3000 
    236 H236       -4.2979  -20.8724  -51.7363 H         1 UNK         0.0600 
    237 H237       -6.7096  -21.3287  -51.7083 H         1 UNK         0.0600 
    238 H238       -5.8327  -22.8373  -51.9058 H         1 UNK         0.0600 
    239 H239       -6.6447  -22.0873  -53.2830 H         1 UNK         0.0600 
    240 H240       -5.6497  -19.0178  -51.5531 H         1 UNK         0.3000 
    241 H241       -6.2709  -16.9838  -51.9500 H         1 UNK         0.0600 
    242 H242       -2.9472  -16.1529  -53.7689 H         1 UNK         0.3800 
    243 H243       -3.3552  -17.7018  -53.0766 H         1 UNK         0.3800 
    244 H244       -7.7145  -16.4363  -53.8303 H         1 UNK         0.0800 
    245 H245       -7.0194  -17.6931  -54.8123 H         1 UNK         0.0800 
    246 H246      -10.4133  -18.1375  -51.7615 H         1 UNK         0.0800 
    247 H247       -9.5882  -16.6657  -52.2080 H         1 UNK         0.0800 
@<TRIPOS>BOND
     1    1    2 1    
     2    1  127 1    
     3    1  128 1    
     4    1  129 1    
     5    2    3 2    
     6    2    4 am   BACKBONE|DICT|INTERRES
     7    4    5 1    
     8    4  130 1    
     9    5    6 1    
    10    5   65 1    
    11    5  131 1    
    12    6    7 1    
    13    6  132 1    
    14    6  133 1    
    15    7    8 1    
    16    8    9 1    
    17    8  134 1    
    18    8  135 1    
    19    9   10 ar   
    20    9   14 ar   
    21   10   11 ar   
    22   10  136 1    
    23   11   12 ar   
    24   11  126 1    
    25   12   13 ar   
    26   12  137 1    
    27   13   14 ar   
    28   13   15 1    
    29   14  138 1    
    30   15   16 1    
    31   15  139 1    
    32   15  140 1    
    33   16   17 1    
    34   17   18 1    
    35   17  141 1    
    36   17  142 1    
    37   18   19 1    
    38   18   67 1    
    39   18  143 1    
    40   19   20 am   BACKBONE|DICT|INTERRES
    41   19  144 1    
    42   20   21 2    
    43   20   22 1    
    44   22   23 1    
    45   22   24 1    
    46   22  145 1    
    47   23  146 1    
    48   23  147 1    
    49   23  148 1    
    50   24   25 am   BACKBONE|DICT|INTERRES
    51   24  149 1    
    52   25   26 2    
    53   25   27 1    
    54   27   28 1    
    55   27   29 1    
    56   27  150 1    
    57   28  151 1    
    58   28  152 1    
    59   28  153 1    
    60   29   30 am   BACKBONE|DICT|INTERRES
    61   29  154 1    
    62   30   31 2    
    63   30   32 1    
    64   32   33 1    
    65   32   34 1    
    66   32  155 1    
    67   33  156 1    
    68   33  157 1    
    69   33  158 1    
    70   34   35 am   BACKBONE|DICT|INTERRES
    71   34  159 1    
    72   35   36 2    
    73   35   37 1    
    74   37   38 1    
    75   37   39 1    
    76   37  160 1    
    77   38  161 1    
    78   38  162 1    
    79   38  163 1    
    80   39   40 am   BACKBONE|DICT|INTERRES
    81   39  164 1    
    82   40   41 2    
    83   40   42 1    
    84   42   43 1    
    85   42   44 1    
    86   42  165 1    
    87   43  166 1    
    88   43  167 1    
    89   43  168 1    
    90   44   45 am   BACKBONE|DICT|INTERRES
    91   44  169 1    
    92   45   46 2    
    93   45   47 1    
    94   47   48 1    
    95   47   49 1    
    96   47  170 1    
    97   48  171 1    
    98   48  172 1    
    99   48  173 1    
   100   49   50 am   BACKBONE|DICT|INTERRES
   101   49  174 1    
   102   50   51 2    
   103   50   52 1    
   104   52   53 1    
   105   52   54 1    
   106   52  175 1    
   107   53  176 1    
   108   53  177 1    
   109   53  178 1    
   110   54   55 am   BACKBONE|DICT|INTERRES
   111   54  179 1    
   112   55   56 2    
   113   55   57 1    
   114   57   58 1    
   115   57   59 1    
   116   57  180 1    
   117   58  181 1    
   118   58  182 1    
   119   58  183 1    
   120   59   60 am   BACKBONE|DICT|INTERRES
   121   59  184 1    
   122   60   61 2    
   123   60   62 1    
   124   62   63 1    
   125   62   64 1    
   126   62  185 1    
   127   63  186 1    
   128   63  187 1    
   129   63  188 1    
   130   64   65 am   BACKBONE|DICT|INTERRES
   131   64  189 1    
   132   65   66 2    
   133   67   68 2    
   134   67   69 am   BACKBONE|DICT|INTERRES
   135   69   70 1    
   136   69  190 1    
   137   70   71 1    
   138   70   72 1    
   139   70  191 1    
   140   71  192 1    
   141   71  193 1    
   142   71  194 1    
   143   72   73 2    
   144   72   74 am   BACKBONE|DICT|INTERRES
   145   74   75 1    
   146   74  195 1    
   147   75   76 1    
   148   75   77 1    
   149   75  196 1    
   150   76  197 1    
   151   76  198 1    
   152   76  199 1    
   153   77   78 2    
   154   77   79 am   BACKBONE|DICT|INTERRES
   155   79   80 1    
   156   79  200 1    
   157   80   81 1    
   158   80   82 1    
   159   80  201 1    
   160   81  202 1    
   161   81  203 1    
   162   81  204 1    
   163   82   83 2    
   164   82   84 am   BACKBONE|DICT|INTERRES
   165   84   85 1    
   166   84  205 1    
   167   85   86 1    
   168   85   87 1    
   169   85  206 1    
   170   86  207 1    
   171   86  208 1    
   172   86  209 1    
   173   87   88 2    
   174   87   89 am   BACKBONE|DICT|INTERRES
   175   89   90 1    
   176   89  210 1    
   177   90   91 1    
   178   90   92 1    
   179   90  211 1    
   180   91  212 1    
   181   91  213 1    
   182   91  214 1    
   183   92   93 2    
   184   92   94 am   BACKBONE|DICT|INTERRES
   185   94   95 1    
   186   94  215 1    
   187   95   96 1    
   188   95   97 1    
   189   95  216 1    
   190   96  217 1    
   191   96  218 1    
   192   96  219 1    
   193   97   98 2    
   194   97   99 am   BACKBONE|DICT|INTERRES
   195   99  100 1    
   196   99  220 1    
   197  100  101 1    
   198  100  102 1    
   199  100  221 1    
   200  101  222 1    
   201  101  223 1    
   202  101  224 1    
   203  102  103 2    
   204  102  104 am   BACKBONE|DICT|INTERRES
   205  104  105 1    
   206  104  225 1    
   207  105  106 1    
   208  105  107 1    
   209  105  226 1    
   210  106  227 1    
   211  106  228 1    
   212  106  229 1    
   213  107  108 2    
   214  107  109 am   BACKBONE|DICT|INTERRES
   215  109  110 1    
   216  109  230 1    
   217  110  111 1    
   218  110  112 1    
   219  110  231 1    
   220  111  232 1    
   221  111  233 1    
   222  111  234 1    
   223  112  113 2    
   224  112  114 am   BACKBONE|DICT|INTERRES
   225  114  115 1    
   226  114  235 1    
   227  115  116 1    
   228  115  117 1    
   229  115  236 1    
   230  116  237 1    
   231  116  238 1    
   232  116  239 1    
   233  117  118 2    
   234  117  119 am   BACKBONE|DICT|INTERRES
   235  119  120 1    
   236  119  240 1    
   237  120  121 1    
   238  120  124 1    
   239  120  241 1    
   240  121  122 am   BACKBONE|DICT|INTERRES
   241  121  123 2    
   242  122  242 1    
   243  122  243 1    
   244  124  125 1    
   245  124  244 1    
   246  124  245 1    
   247  125  126 1    
   248  126  246 1    
   249  126  247 1    
@<TRIPOS>SUBSTRUCTURE
     1 UNK         1 GROUP             0       ****    0 ROOT    
