@<TRIPOS>MOLECULE
3R540
247   249    1
SMALL
USER_CHARGES


@<TRIPOS>ATOM
      1 CA         -3.5750  -16.6974  -42.9703 C.3       0 UNK        -0.1800 
      2 C          -3.7586  -15.5910  -43.9998 C.2       0 UNK         0.5000 
      3 O          -4.5044  -14.6449  -43.7502 O.2       0 UNK        -0.5000 
      4 N          -3.0662  -15.6969  -45.1435 N.am      1 UNK        -0.5000 
      5 CA         -3.1317  -14.7548  -46.2746 C.3       1 UNK         0.1400 
      6 C6         -2.3662  -15.3013  -47.5097 C.3       23 UNK        -0.0398 
      7 S7         -3.1927  -14.9104  -49.0887 S.3       23 UNK        -0.2404 
      8 C8         -3.5871  -16.5672  -49.7403 C.3       23 UNK        -0.0205 
      9 C9         -2.3437  -17.3039  -50.2200 C.ar      23 UNK        -0.0193 
     10 C10        -1.8225  -17.0408  -51.4897 C.ar      23 UNK        -0.1150 
     11 C11        -0.6843  -17.7129  -51.9455 C.ar      23 UNK        -0.0193 
     12 C12        -0.0556  -18.6438  -51.1130 C.ar      23 UNK        -0.1150 
     13 C13        -0.5616  -18.9080  -49.8376 C.ar      23 UNK        -0.0193 
     14 C14        -1.7133  -18.2473  -49.4031 C.ar      23 UNK        -0.1150 
     15 C15         0.1435  -19.8851  -48.9130 C.3       23 UNK        -0.0205 
     16 S16        -0.5605  -21.5471  -49.0616 S.3       23 UNK        -0.2404 
     17 C17        -0.0096  -22.2917  -47.4849 C.3       23 UNK        -0.0398 
     18 CA         -0.8979  -22.0513  -46.2256 C.3       11 UNK         0.1400 
     19 N          -0.3310  -21.0228  -45.3387 N.am      11 UNK        -0.5000 
     20 C          -0.7724  -20.7389  -44.1025 C.2       10 UNK         0.5000 
     21 O          -1.7112  -21.3279  -43.5655 O.2       10 UNK        -0.5000 
     22 CA         -0.0959  -19.5803  -43.3495 C.3       10 UNK         0.1400 
     23 CB          0.8990  -20.1253  -42.3154 C.3       10 UNK        -0.1800 
     24 N           0.5886  -18.6080  -44.2046 N.am      10 UNK        -0.5000 
     25 C           0.0032  -17.8036  -45.1029 C.2       9 UNK         0.5000 
     26 O          -1.1950  -17.8485  -45.3863 O.2       9 UNK        -0.5000 
     27 CA          0.9036  -16.7636  -45.7863 C.3       9 UNK         0.1400 
     28 CB          1.1350  -15.5669  -44.8505 C.3       9 UNK        -0.1800 
     29 N           2.1940  -17.3448  -46.1451 N.am      9 UNK        -0.5000 
     30 C           2.6017  -17.6028  -47.3943 C.2       8 UNK         0.5000 
     31 O           1.9727  -17.2686  -48.3965 O.2       8 UNK        -0.5000 
     32 CA          3.9352  -18.3604  -47.5725 C.3       8 UNK         0.1400 
     33 CB          5.0137  -17.4230  -48.1381 C.3       8 UNK        -0.1800 
     34 N           4.4492  -18.9723  -46.3457 N.am      8 UNK        -0.5000 
     35 C           3.8901  -19.9930  -45.6808 C.2       7 UNK         0.5000 
     36 O           2.8680  -20.5750  -46.0446 O.2       7 UNK        -0.5000 
     37 CA          4.5511  -20.3663  -44.3378 C.3       7 UNK         0.1400 
     38 CB          5.6505  -21.4162  -44.5543 C.3       7 UNK        -0.1800 
     39 N           5.1136  -19.2151  -43.6162 N.am      7 UNK        -0.5000 
     40 C           4.4215  -18.1300  -43.2430 C.2       6 UNK         0.5000 
     41 O           3.2179  -17.9793  -43.4755 O.2       6 UNK        -0.5000 
     42 CA          5.2053  -17.0049  -42.5543 C.3       6 UNK         0.1400 
     43 CB          6.1252  -16.2818  -43.5547 C.3       6 UNK        -0.1800 
     44 N           4.2435  -16.0587  -42.0030 N.am      6 UNK        -0.5000 
     45 C           4.4386  -15.2350  -40.9695 C.2       5 UNK         0.5000 
     46 O           5.5115  -15.1322  -40.3731 O.2       5 UNK        -0.5000 
     47 CA          3.2352  -14.3788  -40.5192 C.3       5 UNK         0.1400 
     48 CB          3.3821  -12.9381  -41.0324 C.3       5 UNK        -0.1800 
     49 N           1.9267  -14.8921  -40.9400 N.am      5 UNK        -0.5000 
     50 C           1.3687  -16.0347  -40.5107 C.2       4 UNK         0.5000 
     51 O           1.9268  -16.8142  -39.7374 O.2       4 UNK        -0.5000 
     52 CA         -0.0477  -16.3498  -41.0427 C.3       4 UNK         0.1400 
     53 CB         -0.7913  -17.4082  -40.2007 C.3       4 UNK        -0.1800 
     54 N          -0.8780  -15.1526  -41.2252 N.am      4 UNK        -0.5000 
     55 C          -1.2421  -14.2635  -40.2872 C.2       3 UNK         0.5000 
     56 O          -0.9495  -14.3685  -39.0952 O.2       3 UNK        -0.5000 
     57 CA         -2.0803  -13.0548  -40.7643 C.3       3 UNK         0.1400 
     58 CB         -1.7946  -11.7846  -39.9358 C.3       3 UNK        -0.1800 
     59 N          -1.9762  -12.7590  -42.2021 N.am      3 UNK        -0.5000 
     60 C          -0.8753  -12.4077  -42.8849 C.2       2 UNK         0.5000 
     61 O           0.2589  -12.4033  -42.4047 O.2       2 UNK        -0.5000 
     62 CA         -1.0937  -12.0992  -44.3746 C.3       2 UNK         0.1400 
     63 CB          0.1940  -11.6881  -45.1121 C.3       2 UNK        -0.1800 
     64 N          -1.6577  -13.2928  -44.9921 N.am      2 UNK        -0.5000 
     65 C          -2.6378  -13.3379  -45.9000 C.2       1 UNK         0.5000 
     66 O          -3.1575  -12.3425  -46.4053 O.2       1 UNK        -0.5000 
     67 C          -2.4051  -21.8413  -46.5269 C.2       11 UNK         0.5000 
     68 O          -3.0992  -22.8095  -46.8394 O.2       11 UNK        -0.5000 
     69 N          -2.8992  -20.6029  -46.3621 N.am      12 UNK        -0.5000 
     70 CA         -4.3101  -20.2191  -46.4469 C.3       12 UNK         0.1400 
     71 CB         -4.4239  -18.7093  -46.2011 C.3       12 UNK        -0.1800 
     72 C          -5.2344  -20.9715  -45.4668 C.2       12 UNK         0.5000 
     73 O          -6.4290  -21.0809  -45.7411 O.2       12 UNK        -0.5000 
     74 N          -4.6772  -21.4912  -44.3611 N.am      13 UNK        -0.5000 
     75 CA         -5.3842  -22.3458  -43.4053 C.3       13 UNK         0.1400 
     76 CB         -4.5259  -22.5130  -42.1427 C.3       13 UNK        -0.1800 
     77 C          -5.7549  -23.7210  -43.9967 C.2       13 UNK         0.5000 
     78 O          -6.8010  -24.2675  -43.6447 O.2       13 UNK        -0.5000 
     79 N          -4.9065  -24.2429  -44.8942 N.am      14 UNK        -0.5000 
     80 CA         -5.1735  -25.4466  -45.6822 C.3       14 UNK         0.1400 
     81 CB         -3.8457  -26.1501  -46.0033 C.3       14 UNK        -0.1800 
     82 C          -5.9299  -25.1055  -46.9780 C.2       14 UNK         0.5000 
     83 O          -6.7649  -25.8959  -47.4189 O.2       14 UNK        -0.5000 
     84 N          -5.6120  -23.9413  -47.5649 N.am      15 UNK        -0.5000 
     85 CA         -6.1613  -23.3183  -48.7761 C.3       15 UNK         0.1400 
     86 CB         -7.6822  -23.1011  -48.6719 C.3       15 UNK        -0.1800 
     87 C          -5.7787  -24.0498  -50.0745 C.2       15 UNK         0.5000 
     88 O          -5.2884  -23.4141  -51.0067 O.2       15 UNK        -0.5000 
     89 N          -5.9441  -25.3777  -50.0954 N.am      16 UNK        -0.5000 
     90 CA         -5.5495  -26.2747  -51.1859 C.3       16 UNK         0.1400 
     91 CB         -6.1394  -27.6668  -50.9127 C.3       16 UNK        -0.1800 
     92 C          -4.0221  -26.3642  -51.3912 C.2       16 UNK         0.5000 
     93 O          -3.5755  -26.8307  -52.4392 O.2       16 UNK        -0.5000 
     94 N          -3.2528  -25.9155  -50.3903 N.am      17 UNK        -0.5000 
     95 CA         -1.7965  -25.8092  -50.4193 C.3       17 UNK         0.1400 
     96 CB         -1.2964  -25.6380  -48.9773 C.3       17 UNK        -0.1800 
     97 C          -1.2780  -24.6622  -51.3119 C.2       17 UNK         0.5000 
     98 O          -0.1135  -24.7030  -51.7123 O.2       17 UNK        -0.5000 
     99 N          -2.1249  -23.6632  -51.6041 N.am      18 UNK        -0.5000 
    100 CA        -1.7943  -22.5392  -52.4807 C.3       18 UNK         0.1400 
    101 CB        -2.8198  -21.4142  -52.2724 C.3       18 UNK        -0.1800 
    102 C         -1.7472  -22.9773  -53.9571 C.2       18 UNK         0.5000 
    103 O         -2.4967  -23.8701  -54.3625 O.2       18 UNK        -0.5000 
    104 N         -0.8700  -22.3353  -54.7362 N.am      19 UNK        -0.5000 
    105 CA        -0.7085  -22.5689  -56.1713 C.3       19 UNK         0.1400 
    106 CB         0.6236  -21.9447  -56.6190 C.3       19 UNK        -0.1800 
    107 C         -1.8719  -21.9747  -56.9858 C.2       19 UNK         0.5000 
    108 O         -2.5633  -21.0727  -56.5100 O.2       19 UNK        -0.5000 
    109 N         -2.0255  -22.4336  -58.2356 N.am      20 UNK        -0.5000 
    110 CA        -3.0017  -21.9037  -59.1976 C.3       20 UNK         0.1400 
    111 CB        -2.9752  -22.7616  -60.4714 C.3       20 UNK        -0.1800 
    112 C         -2.7716  -20.4165  -59.5404 C.2       20 UNK         0.5000 
    113 O         -3.7322  -19.6887  -59.7954 O.2       20 UNK        -0.5000 
    114 N         -1.5039  -19.9837  -59.4800 N.am      21 UNK        -0.5000 
    115 CA        -1.0654  -18.5956  -59.6332 C.3       21 UNK         0.1400 
    116 CB         0.4692  -18.5726  -59.7113 C.3       21 UNK        -0.1800 
    117 C         -1.5597  -17.6540  -58.5143 C.2       21 UNK         0.5000 
    118 O         -1.5823  -16.4402  -58.7227 O.2       21 UNK        -0.5000 
    119 N         -1.9504  -18.2138  -57.3609 N.am      22 UNK        -0.5000 
    120 CA        -2.5308  -17.4777  -56.2269 C.3       22 UNK         0.1400 
    121 C         -4.0246  -17.0830  -56.4294 C.2       22 UNK         0.5000 
    122 N         -4.7127  -17.5579  -57.4626 N.am      22 UNK        -0.7600 
    123 O         -4.5691  -16.3197  -55.6367 O.2       22 UNK        -0.5000 
    124 C124       -2.3410  -18.2295  -54.8833 C.3       23 UNK        -0.0398 
    125 S125       -0.6016  -18.6803  -54.5442 S.3       23 UNK        -0.2404 
    126 C126       -0.1164  -17.4188  -53.3259 C.3       23 UNK        -0.0205 
    127 H127       -3.4454  -16.2701  -41.9763 H         1 UNK         0.0600 
    128 H128       -4.4564  -17.3379  -42.9493 H         1 UNK         0.0600 
    129 H129       -2.7064  -17.3176  -43.1895 H         1 UNK         0.0600 
    130 H130       -2.4725  -16.5121  -45.2800 H         1 UNK         0.3000 
    131 H131       -4.1906  -14.6676  -46.5279 H         1 UNK         0.0600 
    132 H132       -2.2697  -16.3821  -47.4368 H         1 UNK         0.0800 
    133 H133       -1.3402  -14.9314  -47.5540 H         1 UNK         0.0800 
    134 H134       -4.2825  -16.4566  -50.5736 H         1 UNK         0.0800 
    135 H135       -4.1173  -17.1474  -48.9850 H         1 UNK         0.0800 
    136 H136       -2.3039  -16.3067  -52.1203 H         1 UNK         0.1150 
    137 H137        0.8322  -19.1565  -51.4552 H         1 UNK         0.1150 
    138 H138       -2.1064  -18.4652  -48.4217 H         1 UNK         0.1150 
    139 H139        1.2105  -19.9239  -49.1364 H         1 UNK         0.0800 
    140 H140        0.0555  -19.5350  -47.8838 H         1 UNK         0.0800 
    141 H141        0.0414  -23.3650  -47.6655 H         1 UNK         0.0800 
    142 H142        1.0249  -22.0027  -47.2976 H         1 UNK         0.0800 
    143 H143       -0.8550  -22.9738  -45.6423 H         1 UNK         0.0600 
    144 H144        0.4748  -20.5180  -45.6836 H         1 UNK         0.3000 
    145 H145       -0.8831  -19.0468  -42.8139 H         1 UNK         0.0600 
    146 H146        1.3831  -19.3203  -41.7622 H         1 UNK         0.0600 
    147 H147        0.3951  -20.7628  -41.5878 H         1 UNK         0.0600 
    148 H148        1.6778  -20.7222  -42.7882 H         1 UNK         0.0600 
    149 H149        1.5770  -18.4724  -44.0060 H         1 UNK         0.3000 
    150 H150        0.3779  -16.4090  -46.6743 H         1 UNK         0.0600 
    151 H151        0.1935  -15.1671  -44.4807 H         1 UNK         0.0600 
    152 H152        1.6546  -14.7631  -45.3715 H         1 UNK         0.0600 
    153 H153        1.7333  -15.8360  -43.9808 H         1 UNK         0.0600 
    154 H154        2.7762  -17.6494  -45.3740 H         1 UNK         0.3000 
    155 H155        3.7576  -19.1578  -48.2969 H         1 UNK         0.0600 
    156 H156        5.9384  -17.9627  -48.3431 H         1 UNK         0.0600 
    157 H157        5.2431  -16.6114  -47.4464 H         1 UNK         0.0600 
    158 H158        4.6887  -16.9723  -49.0768 H         1 UNK         0.0600 
    159 H159        5.2820  -18.5567  -45.9556 H         1 UNK         0.3000 
    160 H160        3.7817  -20.8096  -43.7051 H         1 UNK         0.0600 
    161 H161        6.4719  -21.0223  -45.1542 H         1 UNK         0.0600 
    162 H162        5.2571  -22.2928  -45.0711 H         1 UNK         0.0600 
    163 H163        6.0616  -21.7587  -43.6046 H         1 UNK         0.0600 
    164 H164        6.0984  -19.2639  -43.3973 H         1 UNK         0.3000 
    165 H165        5.7965  -17.4411  -41.7466 H         1 UNK         0.0600 
    166 H166        5.5589  -15.8543  -44.3833 H         1 UNK         0.0600 
    167 H167        6.6729  -15.4716  -43.0731 H         1 UNK         0.0600 
    168 H168        6.8653  -16.9624  -43.9769 H         1 UNK         0.0600 
    169 H169        3.3177  -16.1360  -42.4017 H         1 UNK         0.3000 
    170 H170        3.2473  -14.3546  -39.4277 H         1 UNK         0.0600 
    171 H171        4.3331  -12.5040  -40.7209 H         1 UNK         0.0600 
    172 H172        3.3403  -12.8943  -42.1215 H         1 UNK         0.0600 
    173 H173        2.5904  -12.2981  -40.6421 H         1 UNK         0.0600 
    174 H174        1.3835  -14.2806  -41.5365 H         1 UNK         0.3000 
    175 H175        0.0998  -16.7712  -42.0369 H         1 UNK         0.0600 
    176 H176       -1.7653  -17.6422  -40.6294 H         1 UNK         0.0600 
    177 H177       -0.2295  -18.3411  -40.1523 H         1 UNK         0.0600 
    178 H178       -0.9487  -17.0725  -39.1755 H         1 UNK         0.0600 
    179 H179       -1.1686  -14.9548  -42.1687 H         1 UNK         0.3000 
    180 H180       -3.1210  -13.3318  -40.5907 H         1 UNK         0.0600 
    181 H181       -2.4072  -10.9482  -40.2720 H         1 UNK         0.0600 
    182 H182       -2.0194  -11.9432  -38.8805 H         1 UNK         0.0600 
    183 H183       -0.7486  -11.4840  -40.0052 H         1 UNK         0.0600 
    184 H184       -2.8518  -12.7880  -42.7089 H         1 UNK         0.3000 
    185 H185       -1.8060  -11.2734  -44.4312 H         1 UNK         0.0600 
    186 H186       -0.0061  -11.4722  -46.1616 H         1 UNK         0.0600 
    187 H187        0.6244  -10.7884  -44.6708 H         1 UNK         0.0600 
    188 H188        0.9525  -12.4695  -45.0700 H         1 UNK         0.0600 
    189 H189       -1.3263  -14.1712  -44.6268 H         1 UNK         0.3000 
    190 H190       -2.2575  -19.8728  -46.0821 H         1 UNK         0.3000 
    191 H191       -4.6512  -20.4352  -47.4610 H         1 UNK         0.0600 
    192 H192       -5.4520  -18.3653  -46.3208 H         1 UNK         0.0600 
    193 H193       -3.8091  -18.1432  -46.8962 H         1 UNK         0.0600 
    194 H194       -4.1059  -18.4533  -45.1913 H         1 UNK         0.0600 
    195 H195       -3.6862  -21.3510  -44.1937 H         1 UNK         0.3000 
    196 H196       -6.3117  -21.8435  -43.1224 H         1 UNK         0.0600 
    197 H197       -5.0488  -23.1053  -41.3908 H         1 UNK         0.0600 
    198 H198       -4.2926  -21.5476  -41.6930 H         1 UNK         0.0600 
    199 H199       -3.5834  -23.0168  -42.3608 H         1 UNK         0.0600 
    200 H200       -4.0892  -23.7071  -45.1562 H         1 UNK         0.3000 
    201 H201       -5.7905  -26.1375  -45.1036 H         1 UNK         0.0600 
    202 H202       -3.3326  -26.4545  -45.0910 H         1 UNK         0.0600 
    203 H203       -3.1706  -25.5053  -46.5655 H         1 UNK         0.0600 
    204 H204       -4.0127  -27.0492  -46.5979 H         1 UNK         0.0600 
    205 H205       -4.8256  -23.4368  -47.1641 H         1 UNK         0.3000 
    206 H206       -5.6977  -22.3320  -48.8279 H         1 UNK         0.0600 
    207 H207       -7.9367  -22.5369  -47.7745 H         1 UNK         0.0600 
    208 H208       -8.0516  -22.5352  -49.5278 H         1 UNK         0.0600 
    209 H209       -8.2318  -24.0421  -48.6439 H         1 UNK         0.0600 
    210 H210       -6.3419  -25.8077  -49.2642 H         1 UNK         0.3000 
    211 H211       -5.9810  -25.8912  -52.1126 H         1 UNK         0.0600 
    212 H212       -5.7554  -28.0896  -49.9834 H         1 UNK         0.0600 
    213 H213       -5.8945  -28.3618  -51.7169 H         1 UNK         0.0600 
    214 H214       -7.2264  -27.6268  -50.8391 H         1 UNK         0.0600 
    215 H215       -3.7147  -25.5590  -49.5677 H         1 UNK         0.3000 
    216 H216       -1.3899  -26.7422  -50.8152 H         1 UNK         0.0600 
    217 H217       -0.2099  -25.5471  -48.9466 H         1 UNK         0.0600 
    218 H218       -1.5670  -26.4957  -48.3613 H         1 UNK         0.0600 
    219 H219       -1.7177  -24.7448  -48.5145 H         1 UNK         0.0600 
    220 H220       -3.0850  -23.7194  -51.2900 H         1 UNK         0.3000 
    221 H221       -0.8111  -22.1592  -52.1938 H         1 UNK         0.0600 
    222 H222       -3.8182  -21.7143  -52.5920 H         1 UNK         0.0600 
    223 H223       -2.8753  -21.1171  -51.2248 H         1 UNK         0.0600 
    224 H224       -2.5440  -20.5274  -52.8430 H         1 UNK         0.0600 
    225 H225       -0.3384  -21.5697  -54.3479 H         1 UNK         0.3000 
    226 H226       -0.6721  -23.6457  -56.3493 H         1 UNK         0.0600 
    227 H227        0.8193  -22.1438  -57.6733 H         1 UNK         0.0600 
    228 H228        0.6274  -20.8621  -56.4839 H         1 UNK         0.0600 
    229 H229        1.4610  -22.3551  -56.0542 H         1 UNK         0.0600 
    230 H230       -1.4215  -23.1721  -58.5674 H         1 UNK         0.3000 
    231 H231       -3.9935  -21.9868  -58.7481 H         1 UNK         0.0600 
    232 H232       -3.7074  -22.4051  -61.1972 H         1 UNK         0.0600 
    233 H233       -3.2175  -23.8016  -60.2520 H         1 UNK         0.0600 
    234 H234       -1.9969  -22.7380  -60.9532 H         1 UNK         0.0600 
    235 H235       -0.7859  -20.6578  -59.2611 H         1 UNK         0.3000 
    236 H236       -1.4648  -18.2192  -60.5771 H         1 UNK         0.0600 
    237 H237        0.9233  -18.9572  -58.7970 H         1 UNK         0.0600 
    238 H238        0.8319  -19.1726  -60.5461 H         1 UNK         0.0600 
    239 H239        0.8385  -17.5568  -59.8589 H         1 UNK         0.0600 
    240 H240       -1.9346  -19.2217  -57.2604 H         1 UNK         0.3000 
    241 H241       -1.9880  -16.5347  -56.1386 H         1 UNK         0.0600 
    242 H242       -5.6764  -17.2878  -57.5812 H         1 UNK         0.3800 
    243 H243       -4.2839  -18.1867  -58.1280 H         1 UNK         0.3800 
    244 H244       -2.9348  -19.1435  -54.8743 H         1 UNK         0.0800 
    245 H245       -2.7244  -17.6290  -54.0592 H         1 UNK         0.0800 
    246 H246        0.9725  -17.3886  -53.2681 H         1 UNK         0.0800 
    247 H247       -0.4286  -16.4327  -53.6735 H         1 UNK         0.0800 
@<TRIPOS>BOND
     1    1    2 1    
     2    1  127 1    
     3    1  128 1    
     4    1  129 1    
     5    2    3 2    
     6    2    4 am   BACKBONE|DICT|INTERRES
     7    4    5 1    
     8    4  130 1    
     9    5    6 1    
    10    5   65 1    
    11    5  131 1    
    12    6    7 1    
    13    6  132 1    
    14    6  133 1    
    15    7    8 1    
    16    8    9 1    
    17    8  134 1    
    18    8  135 1    
    19    9   10 ar   
    20    9   14 ar   
    21   10   11 ar   
    22   10  136 1    
    23   11   12 ar   
    24   11  126 1    
    25   12   13 ar   
    26   12  137 1    
    27   13   14 ar   
    28   13   15 1    
    29   14  138 1    
    30   15   16 1    
    31   15  139 1    
    32   15  140 1    
    33   16   17 1    
    34   17   18 1    
    35   17  141 1    
    36   17  142 1    
    37   18   19 1    
    38   18   67 1    
    39   18  143 1    
    40   19   20 am   BACKBONE|DICT|INTERRES
    41   19  144 1    
    42   20   21 2    
    43   20   22 1    
    44   22   23 1    
    45   22   24 1    
    46   22  145 1    
    47   23  146 1    
    48   23  147 1    
    49   23  148 1    
    50   24   25 am   BACKBONE|DICT|INTERRES
    51   24  149 1    
    52   25   26 2    
    53   25   27 1    
    54   27   28 1    
    55   27   29 1    
    56   27  150 1    
    57   28  151 1    
    58   28  152 1    
    59   28  153 1    
    60   29   30 am   BACKBONE|DICT|INTERRES
    61   29  154 1    
    62   30   31 2    
    63   30   32 1    
    64   32   33 1    
    65   32   34 1    
    66   32  155 1    
    67   33  156 1    
    68   33  157 1    
    69   33  158 1    
    70   34   35 am   BACKBONE|DICT|INTERRES
    71   34  159 1    
    72   35   36 2    
    73   35   37 1    
    74   37   38 1    
    75   37   39 1    
    76   37  160 1    
    77   38  161 1    
    78   38  162 1    
    79   38  163 1    
    80   39   40 am   BACKBONE|DICT|INTERRES
    81   39  164 1    
    82   40   41 2    
    83   40   42 1    
    84   42   43 1    
    85   42   44 1    
    86   42  165 1    
    87   43  166 1    
    88   43  167 1    
    89   43  168 1    
    90   44   45 am   BACKBONE|DICT|INTERRES
    91   44  169 1    
    92   45   46 2    
    93   45   47 1    
    94   47   48 1    
    95   47   49 1    
    96   47  170 1    
    97   48  171 1    
    98   48  172 1    
    99   48  173 1    
   100   49   50 am   BACKBONE|DICT|INTERRES
   101   49  174 1    
   102   50   51 2    
   103   50   52 1    
   104   52   53 1    
   105   52   54 1    
   106   52  175 1    
   107   53  176 1    
   108   53  177 1    
   109   53  178 1    
   110   54   55 am   BACKBONE|DICT|INTERRES
   111   54  179 1    
   112   55   56 2    
   113   55   57 1    
   114   57   58 1    
   115   57   59 1    
   116   57  180 1    
   117   58  181 1    
   118   58  182 1    
   119   58  183 1    
   120   59   60 am   BACKBONE|DICT|INTERRES
   121   59  184 1    
   122   60   61 2    
   123   60   62 1    
   124   62   63 1    
   125   62   64 1    
   126   62  185 1    
   127   63  186 1    
   128   63  187 1    
   129   63  188 1    
   130   64   65 am   BACKBONE|DICT|INTERRES
   131   64  189 1    
   132   65   66 2    
   133   67   68 2    
   134   67   69 am   BACKBONE|DICT|INTERRES
   135   69   70 1    
   136   69  190 1    
   137   70   71 1    
   138   70   72 1    
   139   70  191 1    
   140   71  192 1    
   141   71  193 1    
   142   71  194 1    
   143   72   73 2    
   144   72   74 am   BACKBONE|DICT|INTERRES
   145   74   75 1    
   146   74  195 1    
   147   75   76 1    
   148   75   77 1    
   149   75  196 1    
   150   76  197 1    
   151   76  198 1    
   152   76  199 1    
   153   77   78 2    
   154   77   79 am   BACKBONE|DICT|INTERRES
   155   79   80 1    
   156   79  200 1    
   157   80   81 1    
   158   80   82 1    
   159   80  201 1    
   160   81  202 1    
   161   81  203 1    
   162   81  204 1    
   163   82   83 2    
   164   82   84 am   BACKBONE|DICT|INTERRES
   165   84   85 1    
   166   84  205 1    
   167   85   86 1    
   168   85   87 1    
   169   85  206 1    
   170   86  207 1    
   171   86  208 1    
   172   86  209 1    
   173   87   88 2    
   174   87   89 am   BACKBONE|DICT|INTERRES
   175   89   90 1    
   176   89  210 1    
   177   90   91 1    
   178   90   92 1    
   179   90  211 1    
   180   91  212 1    
   181   91  213 1    
   182   91  214 1    
   183   92   93 2    
   184   92   94 am   BACKBONE|DICT|INTERRES
   185   94   95 1    
   186   94  215 1    
   187   95   96 1    
   188   95   97 1    
   189   95  216 1    
   190   96  217 1    
   191   96  218 1    
   192   96  219 1    
   193   97   98 2    
   194   97   99 am   BACKBONE|DICT|INTERRES
   195   99  100 1    
   196   99  220 1    
   197  100  101 1    
   198  100  102 1    
   199  100  221 1    
   200  101  222 1    
   201  101  223 1    
   202  101  224 1    
   203  102  103 2    
   204  102  104 am   BACKBONE|DICT|INTERRES
   205  104  105 1    
   206  104  225 1    
   207  105  106 1    
   208  105  107 1    
   209  105  226 1    
   210  106  227 1    
   211  106  228 1    
   212  106  229 1    
   213  107  108 2    
   214  107  109 am   BACKBONE|DICT|INTERRES
   215  109  110 1    
   216  109  230 1    
   217  110  111 1    
   218  110  112 1    
   219  110  231 1    
   220  111  232 1    
   221  111  233 1    
   222  111  234 1    
   223  112  113 2    
   224  112  114 am   BACKBONE|DICT|INTERRES
   225  114  115 1    
   226  114  235 1    
   227  115  116 1    
   228  115  117 1    
   229  115  236 1    
   230  116  237 1    
   231  116  238 1    
   232  116  239 1    
   233  117  118 2    
   234  117  119 am   BACKBONE|DICT|INTERRES
   235  119  120 1    
   236  119  240 1    
   237  120  121 1    
   238  120  124 1    
   239  120  241 1    
   240  121  122 am   BACKBONE|DICT|INTERRES
   241  121  123 2    
   242  122  242 1    
   243  122  243 1    
   244  124  125 1    
   245  124  244 1    
   246  124  245 1    
   247  125  126 1    
   248  126  246 1    
   249  126  247 1    
@<TRIPOS>SUBSTRUCTURE
     1 UNK         1 GROUP             0       ****    0 ROOT    
