@<TRIPOS>MOLECULE
3R540
247   249    1
SMALL
USER_CHARGES


@<TRIPOS>ATOM
      1 CA         -0.4835  -11.9367  -51.0951 C.3       0 UNK        -0.1800 
      2 C           0.2110  -11.7932  -49.7422 C.2       0 UNK         0.5000 
      3 O           0.6069  -10.6872  -49.3793 O.2       0 UNK        -0.5000 
      4 N           0.3851  -12.8689  -48.9670 N.am      1 UNK        -0.5000 
      5 CA          0.0090  -14.2481  -49.2639 C.3       1 UNK         0.1400 
      6 C6         -1.4598  -14.5415  -48.8619 C.3       23 UNK        -0.0398 
      7 S7         -2.1133  -16.0532  -49.6408 S.3       23 UNK        -0.2404 
      8 C8         -3.7046  -16.2147  -48.7778 C.3       23 UNK        -0.0205 
      9 C9         -4.4897  -17.4255  -49.2605 C.ar      23 UNK        -0.0193 
     10 C10        -5.5298  -17.2734  -50.1813 C.ar      23 UNK        -0.1150 
     11 C11        -6.2887  -18.3727  -50.5982 C.ar      23 UNK        -0.0193 
     12 C12        -6.0016  -19.6367  -50.0658 C.ar      23 UNK        -0.1150 
     13 C13        -4.9538  -19.8050  -49.1563 C.ar      23 UNK        -0.0193 
     14 C14        -4.1978  -18.6975  -48.7633 C.ar      23 UNK        -0.1150 
     15 C15        -4.6167  -21.1850  -48.6178 C.3       23 UNK        -0.0205 
     16 S16        -5.3035  -21.4744  -46.9578 S.3       23 UNK        -0.2404 
     17 C17        -4.2376  -22.8491  -46.3991 C.3       23 UNK        -0.0398 
     18 CA         -3.0219  -22.3357  -45.5797 C.3       11 UNK         0.1400 
     19 N          -3.3955  -21.6767  -44.3221 N.am      11 UNK        -0.5000 
     20 C          -3.8900  -22.2444  -43.2116 C.2       10 UNK         0.5000 
     21 O          -4.2151  -23.4296  -43.1359 O.2       10 UNK        -0.5000 
     22 CA         -3.9955  -21.3546  -41.9548 C.3       10 UNK         0.1400 
     23 CB         -2.8969  -21.7317  -40.9474 C.3       10 UNK        -0.1800 
     24 N          -3.8708  -19.9284  -42.2553 N.am      10 UNK        -0.5000 
     25 C          -4.8640  -19.1531  -42.7086 C.2       9 UNK         0.5000 
     26 O          -6.0315  -19.5283  -42.8188 O.2       9 UNK        -0.5000 
     27 CA         -4.4758  -17.7260  -43.1429 C.3       9 UNK         0.1400 
     28 CB         -4.6051  -16.7482  -41.9654 C.3       9 UNK        -0.1800 
     29 N          -3.1218  -17.6370  -43.6986 N.am      9 UNK        -0.5000 
     30 C          -2.7076  -18.2658  -44.8079 C.2       8 UNK         0.5000 
     31 O          -3.4277  -18.9845  -45.4924 O.2       8 UNK        -0.5000 
     32 CA         -1.2301  -18.1115  -45.1929 C.3       8 UNK         0.1400 
     33 CB         -1.0139  -16.7688  -45.8993 C.3       8 UNK        -0.1800 
     34 N          -0.3487  -18.2145  -44.0328 N.am      8 UNK        -0.5000 
     35 C          -0.1561  -19.3245  -43.3073 C.2       7 UNK         0.5000 
     36 O          -0.6327  -20.4225  -43.5970 O.2       7 UNK        -0.5000 
     37 CA          0.6929  -19.1838  -42.0327 C.3       7 UNK         0.1400 
     38 CB          2.1680  -19.4886  -42.3190 C.3       7 UNK        -0.1800 
     39 N           0.5795  -17.8494  -41.4468 N.am      7 UNK        -0.5000 
     40 C          -0.4693  -17.4333  -40.7245 C.2       6 UNK         0.5000 
     41 O          -1.4305  -18.1481  -40.4388 O.2       6 UNK        -0.5000 
     42 CA         -0.4520  -15.9583  -40.2813 C.3       6 UNK         0.1400 
     43 CB          0.3834  -15.7848  -39.0041 C.3       6 UNK        -0.1800 
     44 N           0.0601  -15.0631  -41.3221 N.am      6 UNK        -0.5000 
     45 C          -0.5676  -14.8235  -42.4817 C.2       5 UNK         0.5000 
     46 O          -1.6530  -15.3188  -42.7812 O.2       5 UNK        -0.5000 
     47 CA          0.1487  -13.9092  -43.4933 C.3       5 UNK         0.1400 
     48 CB         -0.2340  -12.4413  -43.2544 C.3       5 UNK        -0.1800 
     49 N           1.6098  -14.0338  -43.5009 N.am      5 UNK        -0.5000 
     50 C           2.2809  -15.1593  -43.7757 C.2       4 UNK         0.5000 
     51 O           1.7490  -16.2628  -43.9198 O.2       4 UNK        -0.5000 
     52 CA          3.8043  -15.0487  -43.8807 C.3       4 UNK         0.1400 
     53 CB          4.4687  -15.3953  -42.5366 C.3       4 UNK        -0.1800 
     54 N           4.2373  -15.9785  -44.9152 N.am      4 UNK        -0.5000 
     55 C           5.3964  -15.9391  -45.5809 C.2       3 UNK         0.5000 
     56 O           6.2771  -15.1032  -45.3748 O.2       3 UNK        -0.5000 
     57 CA          5.6098  -17.0170  -46.6612 C.3       3 UNK         0.1400 
     58 CB          6.2929  -18.2511  -46.0515 C.3       3 UNK        -0.1800 
     59 N           4.3563  -17.4279  -47.2997 N.am      3 UNK        -0.5000 
     60 C           3.7194  -16.7216  -48.2445 C.2       2 UNK         0.5000 
     61 O           4.1772  -15.6898  -48.7415 O.2       2 UNK        -0.5000 
     62 CA          2.3649  -17.2802  -48.7457 C.3       2 UNK         0.1400 
     63 CB          1.6726  -18.2184  -47.7337 C.3       2 UNK        -0.1800 
     64 N           1.4277  -16.2439  -49.1993 N.am      2 UNK        -0.5000 
     65 C           1.0127  -15.1574  -48.5304 C.2       1 UNK         0.5000 
     66 O           1.3786  -14.8511  -47.3924 O.2       1 UNK        -0.5000 
     67 C          -1.9184  -23.3990  -45.3620 C.2       11 UNK         0.5000 
     68 O          -1.9035  -24.4288  -46.0364 O.2       11 UNK        -0.5000 
     69 N          -1.0130  -23.1209  -44.4135 N.am      12 UNK        -0.5000 
     70 CA          0.0607  -24.0128  -43.9839 C.3       12 UNK         0.1400 
     71 CB          0.3441  -23.7689  -42.4928 C.3       12 UNK        -0.1800 
     72 C           1.3327  -23.8075  -44.8195 C.2       12 UNK         0.5000 
     73 O           1.9483  -24.7865  -45.2414 O.2       12 UNK        -0.5000 
     74 N           1.6947  -22.5381  -45.0544 N.am      13 UNK        -0.5000 
     75 CA          2.8462  -22.1511  -45.8780 C.3       13 UNK         0.1400 
     76 CB          3.4002  -20.8093  -45.3742 C.3       13 UNK        -0.1800 
     77 C           2.4999  -22.0553  -47.3752 C.2       13 UNK         0.5000 
     78 O           3.4060  -21.9741  -48.2048 O.2       13 UNK        -0.5000 
     79 N           1.1995  -22.0264  -47.6888 N.am      14 UNK        -0.5000 
     80 CA          0.6525  -21.9488  -49.0379 C.3       14 UNK         0.1400 
     81 CB         -0.8505  -21.6729  -48.9145 C.3       14 UNK        -0.1800 
     82 C           0.9330  -23.2410  -49.8302 C.2       14 UNK         0.5000 
     83 O           0.7120  -24.3346  -49.3041 O.2       14 UNK        -0.5000 
     84 N           1.4160  -23.0892  -51.0699 N.am      15 UNK        -0.5000 
     85 CA          1.8409  -24.1636  -51.9703 C.3       15 UNK         0.1400 
     86 CB          2.4451  -23.5389  -53.2386 C.3       15 UNK        -0.1800 
     87 C           0.6919  -25.1290  -52.3147 C.2       15 UNK         0.5000 
     88 O          -0.1984  -24.7711  -53.0858 O.2       15 UNK        -0.5000 
     89 N           0.7151  -26.3188  -51.6972 N.am      16 UNK        -0.5000 
     90 CA         -0.3328  -27.3472  -51.7427 C.3       16 UNK         0.1400 
     91 CB         -0.4410  -27.9645  -53.1533 C.3       16 UNK        -0.1800 
     92 C          -1.6878  -26.8425  -51.1950 C.2       16 UNK         0.5000 
     93 O          -2.7426  -27.2542  -51.6808 O.2       16 UNK        -0.5000 
     94 N          -1.6197  -25.9548  -50.1903 N.am      17 UNK        -0.5000 
     95 CA         -2.7342  -25.2819  -49.5208 C.3       17 UNK         0.1400 
     96 CB         -3.6170  -26.2899  -48.7547 C.3       17 UNK        -0.1800 
     97 C          -3.5356  -24.3504  -50.4561 C.2       17 UNK         0.5000 
     98 O          -4.7605  -24.2790  -50.3493 O.2       17 UNK        -0.5000 
     99 N          -2.8323  -23.6315  -51.3395 N.am      18 UNK        -0.5000 
    100 CA        -3.3807  -22.6022  -52.2180 C.3       18 UNK         0.1400 
    101 CB        -3.8494  -23.2413  -53.5338 C.3       18 UNK        -0.1800 
    102 C         -2.2981  -21.5433  -52.4690 C.2       18 UNK         0.5000 
    103 O         -1.1244  -21.8940  -52.5965 O.2       18 UNK        -0.5000 
    104 N         -2.6913  -20.2685  -52.5165 N.am      19 UNK        -0.5000 
    105 CA        -1.8076  -19.1271  -52.7323 C.3       19 UNK         0.1400 
    106 CB        -0.9628  -18.8634  -51.4695 C.3       19 UNK        -0.1800 
    107 C         -2.6531  -17.9031  -53.1123 C.2       19 UNK         0.5000 
    108 O         -3.8683  -17.9115  -52.9006 O.2       19 UNK        -0.5000 
    109 N         -1.9945  -16.8789  -53.6744 N.am      20 UNK        -0.5000 
    110 CA        -2.5629  -15.5959  -54.1053 C.3       20 UNK         0.1400 
    111 CB        -2.8560  -14.7069  -52.8763 C.3       20 UNK        -0.1800 
    112 C         -3.7704  -15.7848  -55.0494 C.2       20 UNK         0.5000 
    113 O         -3.6077  -16.3733  -56.1203 O.2       20 UNK        -0.5000 
    114 N         -4.9583  -15.3302  -54.6271 N.am      21 UNK        -0.5000 
    115 CA        -6.2292  -15.4570  -55.3458 C.3       21 UNK         0.1400 
    116 CB        -7.3103  -14.6822  -54.5763 C.3       21 UNK        -0.1800 
    117 C         -6.6815  -16.9123  -55.5878 C.2       21 UNK         0.5000 
    118 O         -7.4413  -17.1550  -56.5266 O.2       21 UNK        -0.5000 
    119 N         -6.2022  -17.8474  -54.7585 N.am      22 UNK        -0.5000 
    120 CA        -6.4075  -19.2935  -54.9173 C.3       22 UNK         0.1400 
    121 C         -5.3632  -19.9623  -55.8609 C.2       22 UNK         0.5000 
    122 N         -4.3529  -19.2616  -56.3651 N.am      22 UNK        -0.7600 
    123 O         -5.4847  -21.1455  -56.1632 O.2       22 UNK        -0.5000 
    124 C124       -6.4721  -20.0110  -53.5433 C.3       23 UNK        -0.0398 
    125 S125       -7.9614  -19.5827  -52.5772 S.3       23 UNK        -0.2404 
    126 C126       -7.4250  -18.1357  -51.5940 C.3       23 UNK        -0.0205 
    127 H127       -1.4569  -12.4145  -50.9932 H         1 UNK         0.0600 
    128 H128        0.1267  -12.5238  -51.7812 H         1 UNK         0.0600 
    129 H129       -0.6437  -10.9578  -51.5474 H         1 UNK         0.0600 
    130 H130        0.8814  -12.7768  -48.0892 H         1 UNK         0.3000 
    131 H131        0.1293  -14.4189  -50.3354 H         1 UNK         0.0600 
    132 H132       -2.1082  -13.7218  -49.1714 H         1 UNK         0.0800 
    133 H133       -1.5644  -14.6019  -47.7776 H         1 UNK         0.0800 
    134 H134       -4.2866  -15.3041  -48.9271 H         1 UNK         0.0800 
    135 H135       -3.5351  -16.2981  -47.7036 H         1 UNK         0.0800 
    136 H136       -5.7517  -16.2911  -50.5738 H         1 UNK         0.1150 
    137 H137       -6.5873  -20.4963  -50.3574 H         1 UNK         0.1150 
    138 H138       -3.3872  -18.8239  -48.0605 H         1 UNK         0.1150 
    139 H139       -4.9965  -21.9515  -49.2912 H         1 UNK         0.0800 
    140 H140       -3.5349  -21.2982  -48.5931 H         1 UNK         0.0800 
    141 H141       -3.9161  -23.4078  -47.2785 H         1 UNK         0.0800 
    142 H142       -4.8365  -23.5419  -45.8068 H         1 UNK         0.0800 
    143 H143       -2.5368  -21.5618  -46.1762 H         1 UNK         0.0600 
    144 H144       -3.2281  -20.6786  -44.3091 H         1 UNK         0.3000 
    145 H145       -4.9667  -21.5426  -41.4925 H         1 UNK         0.0600 
    146 H146       -2.9774  -21.1396  -40.0355 H         1 UNK         0.0600 
    147 H147       -2.9708  -22.7816  -40.6609 H         1 UNK         0.0600 
    148 H148       -1.9000  -21.5744  -41.3608 H         1 UNK         0.0600 
    149 H149       -2.9486  -19.5240  -42.1683 H         1 UNK         0.3000 
    150 H150       -5.1752  -17.4181  -43.9228 H         1 UNK         0.0600 
    151 H151       -5.6069  -16.7824  -41.5354 H         1 UNK         0.0600 
    152 H152       -4.4233  -15.7217  -42.2842 H         1 UNK         0.0600 
    153 H153       -3.8963  -16.9815  -41.1700 H         1 UNK         0.0600 
    154 H154       -2.4809  -17.0018  -43.2308 H         1 UNK         0.3000 
    155 H155       -0.9614  -18.9134  -45.8840 H         1 UNK         0.0600 
    156 H156       -1.5924  -15.9615  -45.4499 H         1 UNK         0.0600 
    157 H157       -1.3125  -16.8493  -46.9421 H         1 UNK         0.0600 
    158 H158        0.0290  -16.4653  -45.8829 H         1 UNK         0.0600 
    159 H159        0.1700  -17.3791  -43.7809 H         1 UNK         0.3000 
    160 H160        0.3308  -19.9177  -41.3094 H         1 UNK         0.0600 
    161 H161        2.5795  -18.8276  -43.0830 H         1 UNK         0.0600 
    162 H162        2.2848  -20.5165  -42.6620 H         1 UNK         0.0600 
    163 H163        2.7751  -19.3797  -41.4203 H         1 UNK         0.0600 
    164 H164        1.2999  -17.1843  -41.6891 H         1 UNK         0.3000 
    165 H165       -1.4809  -15.6672  -40.0584 H         1 UNK         0.0600 
    166 H166        0.3364  -14.7588  -38.6389 H         1 UNK         0.0600 
    167 H167        0.0138  -16.4300  -38.2058 H         1 UNK         0.0600 
    168 H168        1.4321  -16.0350  -39.1696 H         1 UNK         0.0600 
    169 H169        0.9504  -14.6188  -41.1531 H         1 UNK         0.3000 
    170 H170       -0.2026  -14.1892  -44.4882 H         1 UNK         0.0600 
    171 H171       -1.3173  -12.3129  -43.2663 H         1 UNK         0.0600 
    172 H172        0.1290  -12.0820  -42.2907 H         1 UNK         0.0600 
    173 H173        0.1758  -11.7951  -44.0310 H         1 UNK         0.0600 
    174 H174        2.1291  -13.1773  -43.3731 H         1 UNK         0.3000 
    175 H175        4.0697  -14.0315  -44.1763 H         1 UNK         0.0600 
    176 H176        4.2344  -16.4142  -42.2248 H         1 UNK         0.0600 
    177 H177        5.5534  -15.3053  -42.5948 H         1 UNK         0.0600 
    178 H178        4.1303  -14.7227  -41.7476 H         1 UNK         0.0600 
    179 H179        3.5373  -16.6648  -45.1643 H         1 UNK         0.3000 
    180 H180        6.2744  -16.6035  -47.4228 H         1 UNK         0.0600 
    181 H181        5.6999  -18.6844  -45.2453 H         1 UNK         0.0600 
    182 H182        7.2659  -17.9886  -45.6340 H         1 UNK         0.0600 
    183 H183        6.4603  -19.0237  -46.8021 H         1 UNK         0.0600 
    184 H184        3.9352  -18.2802  -46.9642 H         1 UNK         0.3000 
    185 H185        2.5962  -17.8723  -49.6323 H         1 UNK         0.0600 
    186 H186        2.2164  -19.1571  -47.6442 H         1 UNK         0.0600 
    187 H187        1.6160  -17.7745  -46.7406 H         1 UNK         0.0600 
    188 H188        0.6597  -18.4690  -48.0501 H         1 UNK         0.0600 
    189 H189        1.0792  -16.3754  -50.1374 H         1 UNK         0.3000 
    190 H190       -1.0644  -22.2157  -43.9524 H         1 UNK         0.3000 
    191 H191       -0.2599  -25.0503  -44.1020 H         1 UNK         0.0600 
    192 H192       -0.5399  -23.9730  -41.8882 H         1 UNK         0.0600 
    193 H193        0.6490  -22.7397  -42.2993 H         1 UNK         0.0600 
    194 H194        1.1410  -24.4217  -42.1343 H         1 UNK         0.0600 
    195 H195        1.1322  -21.7935  -44.6669 H         1 UNK         0.3000 
    196 H196        3.6366  -22.8982  -45.7782 H         1 UNK         0.0600 
    197 H197        4.2012  -20.4514  -46.0213 H         1 UNK         0.0600 
    198 H198        3.8248  -20.9133  -44.3763 H         1 UNK         0.0600 
    199 H199        2.6302  -20.0380  -45.3403 H         1 UNK         0.0600 
    200 H200        0.5376  -22.1532  -46.9402 H         1 UNK         0.3000 
    201 H201        1.1205  -21.1043  -49.5485 H         1 UNK         0.0600 
    202 H202       -1.0380  -20.7459  -48.3716 H         1 UNK         0.0600 
    203 H203       -1.3646  -22.4797  -48.3930 H         1 UNK         0.0600 
    204 H204       -1.3102  -21.5666  -49.8926 H         1 UNK         0.0600 
    205 H205        1.4914  -22.1560  -51.4468 H         1 UNK         0.3000 
    206 H206        2.6305  -24.7255  -51.4673 H         1 UNK         0.0600 
    207 H207        3.3165  -22.9282  -53.0019 H         1 UNK         0.0600 
    208 H208        2.7694  -24.3109  -53.9376 H         1 UNK         0.0600 
    209 H209        1.7234  -22.9070  -53.7585 H         1 UNK         0.0600 
    210 H210        1.4728  -26.5042  -51.0541 H         1 UNK         0.3000 
    211 H211       -0.0121  -28.1386  -51.0638 H         1 UNK         0.0600 
    212 H212       -0.8311  -27.2519  -53.8804 H         1 UNK         0.0600 
    213 H213       -1.1090  -28.8265  -53.1520 H         1 UNK         0.0600 
    214 H214        0.5301  -28.3092  -53.5085 H         1 UNK         0.0600 
    215 H215       -0.6980  -25.6547  -49.8855 H         1 UNK         0.3000 
    216 H216       -2.2758  -24.6317  -48.7762 H         1 UNK         0.0600 
    217 H217       -4.3568  -25.7743  -48.1416 H         1 UNK         0.0600 
    218 H218       -3.0179  -26.9058  -48.0840 H         1 UNK         0.0600 
    219 H219       -4.1588  -26.9533  -49.4291 H         1 UNK         0.0600 
    220 H220       -1.8307  -23.7585  -51.4210 H         1 UNK         0.3000 
    221 H221       -4.2296  -22.1174  -51.7310 H         1 UNK         0.0600 
    222 H222       -3.0344  -23.7659  -54.0345 H         1 UNK         0.0600 
    223 H223       -4.6533  -23.9570  -53.3616 H         1 UNK         0.0600 
    224 H224       -4.2265  -22.4856  -54.2218 H         1 UNK         0.0600 
    225 H225       -3.6630  -20.0090  -52.4075 H         1 UNK         0.3000 
    226 H226       -1.1463  -19.3465  -53.5731 H         1 UNK         0.0600 
    227 H227       -0.2356  -19.6576  -51.3050 H         1 UNK         0.0600 
    228 H228       -0.4031  -17.9313  -51.5491 H         1 UNK         0.0600 
    229 H229       -1.5898  -18.7991  -50.5797 H         1 UNK         0.0600 
    230 H230       -1.0049  -16.9861  -53.8445 H         1 UNK         0.3000 
    231 H231       -1.7938  -15.0966  -54.6962 H         1 UNK         0.0600 
    232 H232       -3.5928  -15.1566  -52.2093 H         1 UNK         0.0600 
    233 H233       -3.2234  -13.7238  -53.1733 H         1 UNK         0.0600 
    234 H234       -1.9477  -14.5429  -52.2973 H         1 UNK         0.0600 
    235 H235       -5.0001  -14.8898  -53.7199 H         1 UNK         0.3000 
    236 H236       -6.1030  -14.9899  -56.3246 H         1 UNK         0.0600 
    237 H237       -8.2691  -14.7291  -55.0946 H         1 UNK         0.0600 
    238 H238       -7.4589  -15.0872  -53.5746 H         1 UNK         0.0600 
    239 H239       -7.0475  -13.6288  -54.4781 H         1 UNK         0.0600 
    240 H240       -5.5387  -17.5790  -54.0390 H         1 UNK         0.3000 
    241 H241       -7.3712  -19.4525  -55.4049 H         1 UNK         0.0600 
    242 H242       -3.7042  -19.7182  -56.9858 H         1 UNK         0.3800 
    243 H243       -4.2427  -18.2722  -56.1717 H         1 UNK         0.3800 
    244 H244       -6.4998  -21.0934  -53.6799 H         1 UNK         0.0800 
    245 H245       -5.5797  -19.8112  -52.9541 H         1 UNK         0.0800 
    246 H246       -7.1498  -17.3340  -52.2791 H         1 UNK         0.0800 
    247 H247       -8.2878  -17.7709  -51.0358 H         1 UNK         0.0800 
@<TRIPOS>BOND
     1    1    2 1    
     2    1  127 1    
     3    1  128 1    
     4    1  129 1    
     5    2    3 2    
     6    2    4 am   BACKBONE|DICT|INTERRES
     7    4    5 1    
     8    4  130 1    
     9    5    6 1    
    10    5   65 1    
    11    5  131 1    
    12    6    7 1    
    13    6  132 1    
    14    6  133 1    
    15    7    8 1    
    16    8    9 1    
    17    8  134 1    
    18    8  135 1    
    19    9   10 ar   
    20    9   14 ar   
    21   10   11 ar   
    22   10  136 1    
    23   11   12 ar   
    24   11  126 1    
    25   12   13 ar   
    26   12  137 1    
    27   13   14 ar   
    28   13   15 1    
    29   14  138 1    
    30   15   16 1    
    31   15  139 1    
    32   15  140 1    
    33   16   17 1    
    34   17   18 1    
    35   17  141 1    
    36   17  142 1    
    37   18   19 1    
    38   18   67 1    
    39   18  143 1    
    40   19   20 am   BACKBONE|DICT|INTERRES
    41   19  144 1    
    42   20   21 2    
    43   20   22 1    
    44   22   23 1    
    45   22   24 1    
    46   22  145 1    
    47   23  146 1    
    48   23  147 1    
    49   23  148 1    
    50   24   25 am   BACKBONE|DICT|INTERRES
    51   24  149 1    
    52   25   26 2    
    53   25   27 1    
    54   27   28 1    
    55   27   29 1    
    56   27  150 1    
    57   28  151 1    
    58   28  152 1    
    59   28  153 1    
    60   29   30 am   BACKBONE|DICT|INTERRES
    61   29  154 1    
    62   30   31 2    
    63   30   32 1    
    64   32   33 1    
    65   32   34 1    
    66   32  155 1    
    67   33  156 1    
    68   33  157 1    
    69   33  158 1    
    70   34   35 am   BACKBONE|DICT|INTERRES
    71   34  159 1    
    72   35   36 2    
    73   35   37 1    
    74   37   38 1    
    75   37   39 1    
    76   37  160 1    
    77   38  161 1    
    78   38  162 1    
    79   38  163 1    
    80   39   40 am   BACKBONE|DICT|INTERRES
    81   39  164 1    
    82   40   41 2    
    83   40   42 1    
    84   42   43 1    
    85   42   44 1    
    86   42  165 1    
    87   43  166 1    
    88   43  167 1    
    89   43  168 1    
    90   44   45 am   BACKBONE|DICT|INTERRES
    91   44  169 1    
    92   45   46 2    
    93   45   47 1    
    94   47   48 1    
    95   47   49 1    
    96   47  170 1    
    97   48  171 1    
    98   48  172 1    
    99   48  173 1    
   100   49   50 am   BACKBONE|DICT|INTERRES
   101   49  174 1    
   102   50   51 2    
   103   50   52 1    
   104   52   53 1    
   105   52   54 1    
   106   52  175 1    
   107   53  176 1    
   108   53  177 1    
   109   53  178 1    
   110   54   55 am   BACKBONE|DICT|INTERRES
   111   54  179 1    
   112   55   56 2    
   113   55   57 1    
   114   57   58 1    
   115   57   59 1    
   116   57  180 1    
   117   58  181 1    
   118   58  182 1    
   119   58  183 1    
   120   59   60 am   BACKBONE|DICT|INTERRES
   121   59  184 1    
   122   60   61 2    
   123   60   62 1    
   124   62   63 1    
   125   62   64 1    
   126   62  185 1    
   127   63  186 1    
   128   63  187 1    
   129   63  188 1    
   130   64   65 am   BACKBONE|DICT|INTERRES
   131   64  189 1    
   132   65   66 2    
   133   67   68 2    
   134   67   69 am   BACKBONE|DICT|INTERRES
   135   69   70 1    
   136   69  190 1    
   137   70   71 1    
   138   70   72 1    
   139   70  191 1    
   140   71  192 1    
   141   71  193 1    
   142   71  194 1    
   143   72   73 2    
   144   72   74 am   BACKBONE|DICT|INTERRES
   145   74   75 1    
   146   74  195 1    
   147   75   76 1    
   148   75   77 1    
   149   75  196 1    
   150   76  197 1    
   151   76  198 1    
   152   76  199 1    
   153   77   78 2    
   154   77   79 am   BACKBONE|DICT|INTERRES
   155   79   80 1    
   156   79  200 1    
   157   80   81 1    
   158   80   82 1    
   159   80  201 1    
   160   81  202 1    
   161   81  203 1    
   162   81  204 1    
   163   82   83 2    
   164   82   84 am   BACKBONE|DICT|INTERRES
   165   84   85 1    
   166   84  205 1    
   167   85   86 1    
   168   85   87 1    
   169   85  206 1    
   170   86  207 1    
   171   86  208 1    
   172   86  209 1    
   173   87   88 2    
   174   87   89 am   BACKBONE|DICT|INTERRES
   175   89   90 1    
   176   89  210 1    
   177   90   91 1    
   178   90   92 1    
   179   90  211 1    
   180   91  212 1    
   181   91  213 1    
   182   91  214 1    
   183   92   93 2    
   184   92   94 am   BACKBONE|DICT|INTERRES
   185   94   95 1    
   186   94  215 1    
   187   95   96 1    
   188   95   97 1    
   189   95  216 1    
   190   96  217 1    
   191   96  218 1    
   192   96  219 1    
   193   97   98 2    
   194   97   99 am   BACKBONE|DICT|INTERRES
   195   99  100 1    
   196   99  220 1    
   197  100  101 1    
   198  100  102 1    
   199  100  221 1    
   200  101  222 1    
   201  101  223 1    
   202  101  224 1    
   203  102  103 2    
   204  102  104 am   BACKBONE|DICT|INTERRES
   205  104  105 1    
   206  104  225 1    
   207  105  106 1    
   208  105  107 1    
   209  105  226 1    
   210  106  227 1    
   211  106  228 1    
   212  106  229 1    
   213  107  108 2    
   214  107  109 am   BACKBONE|DICT|INTERRES
   215  109  110 1    
   216  109  230 1    
   217  110  111 1    
   218  110  112 1    
   219  110  231 1    
   220  111  232 1    
   221  111  233 1    
   222  111  234 1    
   223  112  113 2    
   224  112  114 am   BACKBONE|DICT|INTERRES
   225  114  115 1    
   226  114  235 1    
   227  115  116 1    
   228  115  117 1    
   229  115  236 1    
   230  116  237 1    
   231  116  238 1    
   232  116  239 1    
   233  117  118 2    
   234  117  119 am   BACKBONE|DICT|INTERRES
   235  119  120 1    
   236  119  240 1    
   237  120  121 1    
   238  120  124 1    
   239  120  241 1    
   240  121  122 am   BACKBONE|DICT|INTERRES
   241  121  123 2    
   242  122  242 1    
   243  122  243 1    
   244  124  125 1    
   245  124  244 1    
   246  124  245 1    
   247  125  126 1    
   248  126  246 1    
   249  126  247 1    
@<TRIPOS>SUBSTRUCTURE
     1 UNK         1 GROUP             0       ****    0 ROOT    
