@<TRIPOS>MOLECULE
3R540
247   249    1
SMALL
USER_CHARGES


@<TRIPOS>ATOM
      1 CA         -5.8939  -16.4638  -43.1250 C.3       0 UNK        -0.1800 
      2 C          -4.9758  -15.2598  -42.9651 C.2       0 UNK         0.5000 
      3 O          -5.2331  -14.3986  -42.1240 O.2       0 UNK        -0.5000 
      4 N          -3.9146  -15.1948  -43.7766 N.am      1 UNK        -0.5000 
      5 CA         -2.8786  -14.1593  -43.7534 C.3       1 UNK         0.1400 
      6 C6         -1.9973  -14.1650  -45.0333 C.3       23 UNK        -0.0398 
      7 S7         -1.7111  -15.8073  -45.7977 S.3       23 UNK        -0.2404 
      8 C8         -2.2796  -15.4764  -47.4979 C.3       23 UNK        -0.0205 
      9 C9         -1.9622  -16.5814  -48.5014 C.ar      23 UNK        -0.0193 
     10 C10        -2.8908  -16.8849  -49.5007 C.ar      23 UNK        -0.1150 
     11 C11        -2.5821  -17.8005  -50.5104 C.ar      23 UNK        -0.0193 
     12 C12        -1.3382  -18.4376  -50.5033 C.ar      23 UNK        -0.1150 
     13 C13        -0.4023  -18.1564  -49.5043 C.ar      23 UNK        -0.0193 
     14 C14        -0.7218  -17.2283  -48.5080 C.ar      23 UNK        -0.1150 
     15 C15         0.9792  -18.7983  -49.5450 C.3       23 UNK        -0.0205 
     16 S16         0.9675  -20.5539  -49.0607 S.3       23 UNK        -0.2404 
     17 C17         0.5394  -20.4451  -47.2907 C.3       23 UNK        -0.0398 
     18 CA         -0.5129  -21.4883  -46.8458 C.3       11 UNK         0.1400 
     19 N          -0.6218  -21.5346  -45.3863 N.am      11 UNK        -0.5000 
     20 C          -1.2039  -22.5201  -44.6886 C.2       10 UNK         0.5000 
     21 O          -1.6818  -23.5271  -45.2057 O.2       10 UNK        -0.5000 
     22 CA         -1.3117  -22.3349  -43.1611 C.3       10 UNK         0.1400 
     23 CB         -0.0556  -22.8775  -42.4641 C.3       10 UNK        -0.1800 
     24 N          -1.5180  -20.9422  -42.7629 N.am      10 UNK        -0.5000 
     25 C          -2.5670  -20.1919  -43.1252 C.2       9 UNK         0.5000 
     26 O          -3.5284  -20.6286  -43.7558 O.2       9 UNK        -0.5000 
     27 CA         -2.5199  -18.6931  -42.7770 C.3       9 UNK         0.1400 
     28 CB         -3.3174  -18.4244  -41.4927 C.3       9 UNK        -0.1800 
     29 N          -1.1797  -18.1153  -42.6312 N.am      9 UNK        -0.5000 
     30 C          -0.1796  -18.1699  -43.5199 C.2       8 UNK         0.5000 
     31 O          -0.2064  -18.8475  -44.5498 O.2       8 UNK        -0.5000 
     32 CA          1.0748  -17.3554  -43.1768 C.3       8 UNK         0.1400 
     33 CB          2.0135  -18.1674  -42.2721 C.3       8 UNK        -0.1800 
     34 N           1.7807  -17.0213  -44.4080 N.am      8 UNK        -0.5000 
     35 C           1.8042  -15.8146  -44.9789 C.2       7 UNK         0.5000 
     36 O           1.3990  -14.7854  -44.4342 O.2       7 UNK        -0.5000 
     37 CA          2.4036  -15.7660  -46.3943 C.3       7 UNK         0.1400 
     38 CB          1.9085  -14.5640  -47.2152 C.3       7 UNK        -0.1800 
     39 N           3.8618  -15.7516  -46.3292 N.am      7 UNK        -0.5000 
     40 C           4.6207  -16.8515  -46.2169 C.2       6 UNK         0.5000 
     41 O           4.1566  -17.9925  -46.1885 O.2       6 UNK        -0.5000 
     42 CA          6.1484  -16.6621  -46.1254 C.3       6 UNK         0.1400 
     43 CB          6.7995  -16.8937  -47.4976 C.3       6 UNK        -0.1800 
     44 N           6.5485  -15.3453  -45.6282 N.am      6 UNK        -0.5000 
     45 C           6.3919  -14.9265  -44.3663 C.2       5 UNK         0.5000 
     46 O           5.9189  -15.6260  -43.4690 O.2       5 UNK        -0.5000 
     47 CA          6.8012  -13.4747  -44.0444 C.3       5 UNK         0.1400 
     48 CB          7.6412  -12.7831  -45.1428 C.3       5 UNK        -0.1800 
     49 N           5.6202  -12.6788  -43.7051 N.am      5 UNK        -0.5000 
     50 C           4.5562  -12.4385  -44.4840 C.2       4 UNK         0.5000 
     51 O           4.4707  -12.7924  -45.6617 O.2       4 UNK        -0.5000 
     52 CA          3.3671  -11.7522  -43.7868 C.3       4 UNK         0.1400 
     53 CB          2.3528  -11.1487  -44.7733 C.3       4 UNK        -0.1800 
     54 N           2.6793  -12.7208  -42.9386 N.am      4 UNK        -0.5000 
     55 C           3.0859  -13.1117  -41.7260 C.2       3 UNK         0.5000 
     56 O           4.0548  -12.6198  -41.1421 O.2       3 UNK        -0.5000 
     57 CA          2.2639  -14.2441  -41.0789 C.3       3 UNK         0.1400 
     58 CB          2.7793  -14.6444  -39.6815 C.3       3 UNK        -0.1800 
     59 N           0.8245  -13.9539  -41.0305 N.am      3 UNK        -0.5000 
     60 C           0.2271  -12.9058  -40.4461 C.2       2 UNK         0.5000 
     61 O           0.8377  -11.9843  -39.9012 O.2       2 UNK        -0.5000 
     62 CA         -1.3170  -12.9011  -40.4608 C.3       2 UNK         0.1400 
     63 CB         -1.9128  -11.6325  -39.8222 C.3       2 UNK        -0.1800 
     64 N          -1.8902  -13.0555  -41.7999 N.am      2 UNK        -0.5000 
     65 C          -2.0484  -14.2143  -42.4511 C.2       1 UNK         0.5000 
     66 O          -1.5824  -15.2829  -42.0504 O.2       1 UNK        -0.5000 
     67 C          -1.8921  -21.2478  -47.4941 C.2       11 UNK         0.5000 
     68 O          -2.2300  -21.9170  -48.4717 O.2       11 UNK        -0.5000 
     69 N          -2.6846  -20.3415  -46.9034 N.am      12 UNK        -0.5000 
     70 CA         -4.0576  -20.0574  -47.3201 C.3       12 UNK         0.1400 
     71 CB         -4.5749  -18.8086  -46.5893 C.3       12 UNK        -0.1800 
     72 C          -4.9880  -21.2640  -47.0928 C.2       12 UNK         0.5000 
     73 O          -5.7518  -21.6213  -47.9892 O.2       12 UNK        -0.5000 
     74 N          -4.8667  -21.9053  -45.9208 N.am      13 UNK        -0.5000 
     75 CA         -5.5913  -23.1225  -45.5452 C.3       13 UNK         0.1400 
     76 CB         -5.3168  -23.4433  -44.0687 C.3       13 UNK        -0.1800 
     77 C          -5.2483  -24.3329  -46.4352 C.2       13 UNK         0.5000 
     78 O          -6.1337  -25.1311  -46.7427 O.2       13 UNK        -0.5000 
     79 N          -3.9831  -24.4237  -46.8669 N.am      14 UNK        -0.5000 
     80 CA         -3.4852  -25.4149  -47.8224 C.3       14 UNK         0.1400 
     81 CB         -1.9642  -25.5595  -47.6471 C.3       14 UNK        -0.1800 
     82 C          -3.8307  -25.0869  -49.2897 C.2       14 UNK         0.5000 
     83 O          -3.4196  -25.8384  -50.1749 O.2       14 UNK        -0.5000 
     84 N          -4.5402  -23.9748  -49.5394 N.am      15 UNK        -0.5000 
     85 CA         -4.9657  -23.4789  -50.8513 C.3       15 UNK         0.1400 
     86 CB         -5.9934  -24.4477  -51.4747 C.3       15 UNK        -0.1800 
     87 C          -3.7635  -23.1885  -51.7717 C.2       15 UNK         0.5000 
     88 O          -3.7376  -23.6372  -52.9183 O.2       15 UNK        -0.5000 
     89 N          -2.7563  -22.4980  -51.2157 N.am      16 UNK        -0.5000 
     90 CA         -1.4637  -22.1726  -51.8263 C.3       16 UNK         0.1400 
     91 CB         -1.6535  -21.2773  -53.0667 C.3       16 UNK        -0.1800 
     92 C          -0.6078  -23.4239  -52.1139 C.2       16 UNK         0.5000 
     93 O           0.1685  -23.4309  -53.0693 O.2       16 UNK        -0.5000 
     94 N          -0.7864  -24.4642  -51.2843 N.am      17 UNK        -0.5000 
     95 CA         -0.2893  -25.8331  -51.4601 C.3       17 UNK         0.1400 
     96 CB          1.2517  -25.8884  -51.4004 C.3       17 UNK        -0.1800 
     97 C          -0.8890  -26.4845  -52.7247 C.2       17 UNK         0.5000 
     98 O          -0.1637  -27.0730  -53.5286 O.2       17 UNK        -0.5000 
     99 N          -2.2156  -26.3392  -52.8630 N.am      18 UNK        -0.5000 
    100 CA        -3.0603  -26.7440  -53.9883 C.3       18 UNK         0.1400 
    101 CB        -3.1646  -28.2816  -54.0579 C.3       18 UNK        -0.1800 
    102 C         -2.6159  -26.1010  -55.3194 C.2       18 UNK         0.5000 
    103 O         -2.2801  -26.8139  -56.2684 O.2       18 UNK        -0.5000 
    104 N         -2.6129  -24.7631  -55.3607 N.am      19 UNK        -0.5000 
    105 CA        -2.2535  -23.9674  -56.5340 C.3       19 UNK         0.1400 
    106 CB        -0.8449  -23.3809  -56.3502 C.3       19 UNK        -0.1800 
    107 C         -3.2925  -22.8618  -56.7709 C.2       19 UNK         0.5000 
    108 O         -4.0202  -22.4767  -55.8532 O.2       19 UNK        -0.5000 
    109 N         -3.3312  -22.3566  -58.0101 N.am      20 UNK        -0.5000 
    110 CA        -4.3432  -21.4373  -58.5451 C.3       20 UNK         0.1400 
    111 CB        -4.0806  -21.2502  -60.0484 C.3       20 UNK        -0.1800 
    112 C         -4.4645  -20.0660  -57.8461 C.2       20 UNK         0.5000 
    113 O         -5.4374  -19.3543  -58.1009 O.2       20 UNK        -0.5000 
    114 N         -3.4967  -19.7104  -56.9895 N.am      21 UNK        -0.5000 
    115 CA        -3.5001  -18.4836  -56.1910 C.3       21 UNK         0.1400 
    116 CB        -2.1358  -18.3146  -55.5069 C.3       21 UNK        -0.1800 
    117 C         -4.6496  -18.4202  -55.1639 C.2       21 UNK         0.5000 
    118 O         -5.1687  -17.3296  -54.9226 O.2       21 UNK        -0.5000 
    119 N         -5.0475  -19.5725  -54.6063 N.am      22 UNK        -0.5000 
    120 CA        -6.2288  -19.7068  -53.7348 C.3       22 UNK         0.1400 
    121 C         -6.8133  -21.1438  -53.6247 C.2       22 UNK         0.5000 
    122 N         -6.3021  -22.1510  -54.3196 N.am      22 UNK        -0.7600 
    123 O         -7.7961  -21.3521  -52.9187 O.2       22 UNK        -0.5000 
    124 C124       -6.1115  -18.9775  -52.3630 C.3       23 UNK        -0.0398 
    125 S125       -4.6727  -19.4395  -51.3346 S.3       23 UNK        -0.2404 
    126 C126       -3.5654  -18.0287  -51.6470 C.3       23 UNK        -0.0205 
    127 H127       -6.0364  -16.9581  -42.1641 H         1 UNK         0.0600 
    128 H128       -5.4876  -17.1941  -43.8251 H         1 UNK         0.0600 
    129 H129       -6.8692  -16.1451  -43.4925 H         1 UNK         0.0600 
    130 H130       -3.7423  -15.9368  -44.4395 H         1 UNK         0.3000 
    131 H131       -3.4074  -13.2033  -43.7458 H         1 UNK         0.0600 
    132 H132       -2.4797  -13.5261  -45.7738 H         1 UNK         0.0800 
    133 H133       -1.0293  -13.6936  -44.8539 H         1 UNK         0.0800 
    134 H134       -3.3539  -15.2875  -47.4681 H         1 UNK         0.0800 
    135 H135       -1.8107  -14.5595  -47.8573 H         1 UNK         0.0800 
    136 H136       -3.8433  -16.3741  -49.5202 H         1 UNK         0.1150 
    137 H137       -1.0827  -19.1297  -51.2910 H         1 UNK         0.1150 
    138 H138        0.0065  -16.9850  -47.7511 H         1 UNK         0.1150 
    139 H139        1.3760  -18.7202  -50.5582 H         1 UNK         0.0800 
    140 H140        1.6782  -18.2562  -48.9061 H         1 UNK         0.0800 
    141 H141        0.2026  -19.4376  -47.0482 H         1 UNK         0.0800 
    142 H142        1.4626  -20.5904  -46.7279 H         1 UNK         0.0800 
    143 H143       -0.1665  -22.4704  -47.1754 H         1 UNK         0.0600 
    144 H144       -0.3253  -20.6947  -44.8959 H         1 UNK         0.3000 
    145 H145       -2.1716  -22.9121  -42.8161 H         1 UNK         0.0600 
    146 H146       -0.1533  -22.8274  -41.3795 H         1 UNK         0.0600 
    147 H147        0.1150  -23.9226  -42.7260 H         1 UNK         0.0600 
    148 H148        0.8363  -22.3175  -42.7481 H         1 UNK         0.0600 
    149 H149       -0.7705  -20.4981  -42.2509 H         1 UNK         0.3000 
    150 H150       -3.0041  -18.1613  -43.5979 H         1 UNK         0.0600 
    151 H151       -2.8544  -18.8997  -40.6272 H         1 UNK         0.0600 
    152 H152       -4.3346  -18.8099  -41.5742 H         1 UNK         0.0600 
    153 H153       -3.3906  -17.3563  -41.2880 H         1 UNK         0.0600 
    154 H154       -1.0808  -17.4680  -41.8602 H         1 UNK         0.3000 
    155 H155        0.7636  -16.4524  -42.6523 H         1 UNK         0.0600 
    156 H156        2.9189  -17.6060  -42.0402 H         1 UNK         0.0600 
    157 H157        2.3146  -19.1051  -42.7415 H         1 UNK         0.0600 
    158 H158        1.5316  -18.4121  -41.3248 H         1 UNK         0.0600 
    159 H159        2.1373  -17.8078  -44.9351 H         1 UNK         0.3000 
    160 H160        2.0795  -16.6650  -46.9208 H         1 UNK         0.0600 
    161 H161        2.2600  -13.6191  -46.8065 H         1 UNK         0.0600 
    162 H162        0.8188  -14.5270  -47.2368 H         1 UNK         0.0600 
    163 H163        2.2520  -14.6273  -48.2475 H         1 UNK         0.0600 
    164 H164        4.2993  -14.8381  -46.2794 H         1 UNK         0.3000 
    165 H165        6.5302  -17.4179  -45.4357 H         1 UNK         0.0600 
    166 H166        7.8864  -16.8395  -47.4334 H         1 UNK         0.0600 
    167 H167        6.5473  -17.8805  -47.8884 H         1 UNK         0.0600 
    168 H168        6.4679  -16.1563  -48.2298 H         1 UNK         0.0600 
    169 H169        6.9201  -14.6971  -46.3074 H         1 UNK         0.3000 
    170 H170        7.4140  -13.5225  -43.1431 H         1 UNK         0.0600 
    171 H171        8.5495  -13.3485  -45.3551 H         1 UNK         0.0600 
    172 H172        7.0954  -12.6668  -46.0794 H         1 UNK         0.0600 
    173 H173        7.9526  -11.7892  -44.8216 H         1 UNK         0.0600 
    174 H174        5.5321  -12.4310  -42.7260 H         1 UNK         0.3000 
    175 H175        3.7586  -10.9383  -43.1727 H         1 UNK         0.0600 
    176 H176        1.8387  -11.9177  -45.3488 H         1 UNK         0.0600 
    177 H177        1.5941  -10.5702  -44.2462 H         1 UNK         0.0600 
    178 H178        2.8430  -10.4769  -45.4789 H         1 UNK         0.0600 
    179 H179        1.9484  -13.2641  -43.3908 H         1 UNK         0.3000 
    180 H180        2.3928  -15.1089  -41.7285 H         1 UNK         0.0600 
    181 H181        2.7094  -13.8200  -38.9711 H         1 UNK         0.0600 
    182 H182        3.8249  -14.9516  -39.7249 H         1 UNK         0.0600 
    183 H183        2.2123  -15.4837  -39.2787 H         1 UNK         0.0600 
    184 H184        0.2124  -14.6269  -41.4798 H         1 UNK         0.3000 
    185 H185       -1.6353  -13.7491  -39.8504 H         1 UNK         0.0600 
    186 H186       -1.5652  -11.5083  -38.7958 H         1 UNK         0.0600 
    187 H187       -1.6352  -10.7345  -40.3756 H         1 UNK         0.0600 
    188 H188       -3.0013  -11.6827  -39.7876 H         1 UNK         0.0600 
    189 H189       -2.2700  -12.2140  -42.2087 H         1 UNK         0.3000 
    190 H190       -2.3409  -19.8516  -46.0906 H         1 UNK         0.3000 
    191 H191       -4.0414  -19.8404  -48.3900 H         1 UNK         0.0600 
    192 H192       -3.9247  -17.9521  -46.7634 H         1 UNK         0.0600 
    193 H193       -5.5700  -18.5378  -46.9436 H         1 UNK         0.0600 
    194 H194       -4.6422  -18.9643  -45.5130 H         1 UNK         0.0600 
    195 H195       -4.2494  -21.5115  -45.2139 H         1 UNK         0.3000 
    196 H196       -6.6583  -22.9203  -45.6580 H         1 UNK         0.0600 
    197 H197       -5.8774  -24.3224  -43.7487 H         1 UNK         0.0600 
    198 H198       -5.6117  -22.6158  -43.4231 H         1 UNK         0.0600 
    199 H199       -4.2601  -23.6453  -43.8927 H         1 UNK         0.0600 
    200 H200       -3.2995  -23.7640  -46.5128 H         1 UNK         0.3000 
    201 H201       -3.9429  -26.3795  -47.5944 H         1 UNK         0.0600 
    202 H202       -1.5615  -26.3338  -48.3005 H         1 UNK         0.0600 
    203 H203       -1.7118  -25.8437  -46.6256 H         1 UNK         0.0600 
    204 H204       -1.4429  -24.6293  -47.8759 H         1 UNK         0.0600 
    205 H205       -4.8054  -23.3900  -48.7558 H         1 UNK         0.3000 
    206 H206       -5.4657  -22.5242  -50.6818 H         1 UNK         0.0600 
    207 H207       -6.8213  -24.6344  -50.7909 H         1 UNK         0.0600 
    208 H208       -6.4189  -24.0355  -52.3872 H         1 UNK         0.0600 
    209 H209       -5.5476  -25.4088  -51.7317 H         1 UNK         0.0600 
    210 H210       -2.8387  -22.2247  -50.2386 H         1 UNK         0.3000 
    211 H211       -0.9174  -21.5949  -51.0817 H         1 UNK         0.0600 
    212 H212       -2.1366  -21.8114  -53.8831 H         1 UNK         0.0600 
    213 H213       -0.6969  -20.9046  -53.4338 H         1 UNK         0.0600 
    214 H214       -2.2747  -20.4160  -52.8348 H         1 UNK         0.0600 
    215 H215       -1.4715  -24.3471  -50.5514 H         1 UNK         0.3000 
    216 H216       -0.6670  -26.4083  -50.6141 H         1 UNK         0.0600 
    217 H217        1.6015  -26.9212  -51.3936 H         1 UNK         0.0600 
    218 H218        1.6280  -25.4119  -50.4953 H         1 UNK         0.0600 
    219 H219        1.7135  -25.3960  -52.2563 H         1 UNK         0.0600 
    220 H220       -2.7052  -25.8533  -52.1189 H         1 UNK         0.3000 
    221 H221       -4.0584  -26.3573  -53.7770 H         1 UNK         0.0600 
    222 H222       -2.2024  -28.7463  -54.2752 H         1 UNK         0.0600 
    223 H223       -3.5302  -28.6932  -53.1170 H         1 UNK         0.0600 
    224 H224       -3.8606  -28.5896  -54.8389 H         1 UNK         0.0600 
    225 H225       -2.9715  -24.2400  -54.5622 H         1 UNK         0.3000 
    226 H226       -2.2506  -24.5983  -57.4252 H         1 UNK         0.0600 
    227 H227       -0.1141  -24.1675  -56.1609 H         1 UNK         0.0600 
    228 H228       -0.5214  -22.8453  -57.2431 H         1 UNK         0.0600 
    229 H229       -0.8000  -22.6820  -55.5169 H         1 UNK         0.0600 
    230 H230       -2.6678  -22.7072  -58.6860 H         1 UNK         0.3000 
    231 H231       -5.3121  -21.9274  -58.4305 H         1 UNK         0.0600 
    232 H232       -3.1080  -20.7915  -60.2307 H         1 UNK         0.0600 
    233 H233       -4.8362  -20.6090  -60.5046 H         1 UNK         0.0600 
    234 H234       -4.1082  -22.2033  -60.5768 H         1 UNK         0.0600 
    235 H235       -2.7393  -20.3583  -56.8338 H         1 UNK         0.3000 
    236 H236       -3.6347  -17.6447  -56.8771 H         1 UNK         0.0600 
    237 H237       -1.3344  -18.2356  -56.2416 H         1 UNK         0.0600 
    238 H238       -2.1105  -17.4078  -54.9012 H         1 UNK         0.0600 
    239 H239       -1.9074  -19.1541  -54.8531 H         1 UNK         0.0600 
    240 H240       -4.5764  -20.4308  -54.8576 H         1 UNK         0.3000 
    241 H241       -7.0258  -19.1876  -54.2707 H         1 UNK         0.0600 
    242 H242       -6.7406  -23.0516  -54.2301 H         1 UNK         0.3800 
    243 H243       -5.4599  -22.0898  -54.8870 H         1 UNK         0.3800 
    244 H244       -6.1067  -17.9007  -52.5275 H         1 UNK         0.0800 
    245 H245       -7.0078  -19.1469  -51.7645 H         1 UNK         0.0800 
    246 H246       -3.0264  -18.1928  -52.5796 H         1 UNK         0.0800 
    247 H247       -4.1476  -17.1187  -51.7969 H         1 UNK         0.0800 
@<TRIPOS>BOND
     1    1    2 1    
     2    1  127 1    
     3    1  128 1    
     4    1  129 1    
     5    2    3 2    
     6    2    4 am   BACKBONE|DICT|INTERRES
     7    4    5 1    
     8    4  130 1    
     9    5    6 1    
    10    5   65 1    
    11    5  131 1    
    12    6    7 1    
    13    6  132 1    
    14    6  133 1    
    15    7    8 1    
    16    8    9 1    
    17    8  134 1    
    18    8  135 1    
    19    9   10 ar   
    20    9   14 ar   
    21   10   11 ar   
    22   10  136 1    
    23   11   12 ar   
    24   11  126 1    
    25   12   13 ar   
    26   12  137 1    
    27   13   14 ar   
    28   13   15 1    
    29   14  138 1    
    30   15   16 1    
    31   15  139 1    
    32   15  140 1    
    33   16   17 1    
    34   17   18 1    
    35   17  141 1    
    36   17  142 1    
    37   18   19 1    
    38   18   67 1    
    39   18  143 1    
    40   19   20 am   BACKBONE|DICT|INTERRES
    41   19  144 1    
    42   20   21 2    
    43   20   22 1    
    44   22   23 1    
    45   22   24 1    
    46   22  145 1    
    47   23  146 1    
    48   23  147 1    
    49   23  148 1    
    50   24   25 am   BACKBONE|DICT|INTERRES
    51   24  149 1    
    52   25   26 2    
    53   25   27 1    
    54   27   28 1    
    55   27   29 1    
    56   27  150 1    
    57   28  151 1    
    58   28  152 1    
    59   28  153 1    
    60   29   30 am   BACKBONE|DICT|INTERRES
    61   29  154 1    
    62   30   31 2    
    63   30   32 1    
    64   32   33 1    
    65   32   34 1    
    66   32  155 1    
    67   33  156 1    
    68   33  157 1    
    69   33  158 1    
    70   34   35 am   BACKBONE|DICT|INTERRES
    71   34  159 1    
    72   35   36 2    
    73   35   37 1    
    74   37   38 1    
    75   37   39 1    
    76   37  160 1    
    77   38  161 1    
    78   38  162 1    
    79   38  163 1    
    80   39   40 am   BACKBONE|DICT|INTERRES
    81   39  164 1    
    82   40   41 2    
    83   40   42 1    
    84   42   43 1    
    85   42   44 1    
    86   42  165 1    
    87   43  166 1    
    88   43  167 1    
    89   43  168 1    
    90   44   45 am   BACKBONE|DICT|INTERRES
    91   44  169 1    
    92   45   46 2    
    93   45   47 1    
    94   47   48 1    
    95   47   49 1    
    96   47  170 1    
    97   48  171 1    
    98   48  172 1    
    99   48  173 1    
   100   49   50 am   BACKBONE|DICT|INTERRES
   101   49  174 1    
   102   50   51 2    
   103   50   52 1    
   104   52   53 1    
   105   52   54 1    
   106   52  175 1    
   107   53  176 1    
   108   53  177 1    
   109   53  178 1    
   110   54   55 am   BACKBONE|DICT|INTERRES
   111   54  179 1    
   112   55   56 2    
   113   55   57 1    
   114   57   58 1    
   115   57   59 1    
   116   57  180 1    
   117   58  181 1    
   118   58  182 1    
   119   58  183 1    
   120   59   60 am   BACKBONE|DICT|INTERRES
   121   59  184 1    
   122   60   61 2    
   123   60   62 1    
   124   62   63 1    
   125   62   64 1    
   126   62  185 1    
   127   63  186 1    
   128   63  187 1    
   129   63  188 1    
   130   64   65 am   BACKBONE|DICT|INTERRES
   131   64  189 1    
   132   65   66 2    
   133   67   68 2    
   134   67   69 am   BACKBONE|DICT|INTERRES
   135   69   70 1    
   136   69  190 1    
   137   70   71 1    
   138   70   72 1    
   139   70  191 1    
   140   71  192 1    
   141   71  193 1    
   142   71  194 1    
   143   72   73 2    
   144   72   74 am   BACKBONE|DICT|INTERRES
   145   74   75 1    
   146   74  195 1    
   147   75   76 1    
   148   75   77 1    
   149   75  196 1    
   150   76  197 1    
   151   76  198 1    
   152   76  199 1    
   153   77   78 2    
   154   77   79 am   BACKBONE|DICT|INTERRES
   155   79   80 1    
   156   79  200 1    
   157   80   81 1    
   158   80   82 1    
   159   80  201 1    
   160   81  202 1    
   161   81  203 1    
   162   81  204 1    
   163   82   83 2    
   164   82   84 am   BACKBONE|DICT|INTERRES
   165   84   85 1    
   166   84  205 1    
   167   85   86 1    
   168   85   87 1    
   169   85  206 1    
   170   86  207 1    
   171   86  208 1    
   172   86  209 1    
   173   87   88 2    
   174   87   89 am   BACKBONE|DICT|INTERRES
   175   89   90 1    
   176   89  210 1    
   177   90   91 1    
   178   90   92 1    
   179   90  211 1    
   180   91  212 1    
   181   91  213 1    
   182   91  214 1    
   183   92   93 2    
   184   92   94 am   BACKBONE|DICT|INTERRES
   185   94   95 1    
   186   94  215 1    
   187   95   96 1    
   188   95   97 1    
   189   95  216 1    
   190   96  217 1    
   191   96  218 1    
   192   96  219 1    
   193   97   98 2    
   194   97   99 am   BACKBONE|DICT|INTERRES
   195   99  100 1    
   196   99  220 1    
   197  100  101 1    
   198  100  102 1    
   199  100  221 1    
   200  101  222 1    
   201  101  223 1    
   202  101  224 1    
   203  102  103 2    
   204  102  104 am   BACKBONE|DICT|INTERRES
   205  104  105 1    
   206  104  225 1    
   207  105  106 1    
   208  105  107 1    
   209  105  226 1    
   210  106  227 1    
   211  106  228 1    
   212  106  229 1    
   213  107  108 2    
   214  107  109 am   BACKBONE|DICT|INTERRES
   215  109  110 1    
   216  109  230 1    
   217  110  111 1    
   218  110  112 1    
   219  110  231 1    
   220  111  232 1    
   221  111  233 1    
   222  111  234 1    
   223  112  113 2    
   224  112  114 am   BACKBONE|DICT|INTERRES
   225  114  115 1    
   226  114  235 1    
   227  115  116 1    
   228  115  117 1    
   229  115  236 1    
   230  116  237 1    
   231  116  238 1    
   232  116  239 1    
   233  117  118 2    
   234  117  119 am   BACKBONE|DICT|INTERRES
   235  119  120 1    
   236  119  240 1    
   237  120  121 1    
   238  120  124 1    
   239  120  241 1    
   240  121  122 am   BACKBONE|DICT|INTERRES
   241  121  123 2    
   242  122  242 1    
   243  122  243 1    
   244  124  125 1    
   245  124  244 1    
   246  124  245 1    
   247  125  126 1    
   248  126  246 1    
   249  126  247 1    
@<TRIPOS>SUBSTRUCTURE
     1 UNK         1 GROUP             0       ****    0 ROOT    
