@<TRIPOS>MOLECULE
3R540
247   249    1
SMALL
USER_CHARGES


@<TRIPOS>ATOM
      1 CA          1.9361   -9.1203  -47.2036 C.3       0 UNK        -0.1800 
      2 C           0.8600  -10.0602  -47.7294 C.2       0 UNK         0.5000 
      3 O          -0.3285   -9.7835  -47.5687 O.2       0 UNK        -0.5000 
      4 N           1.2744  -11.1635  -48.3565 N.am      1 UNK        -0.5000 
      5 CA          0.4309  -12.2154  -48.9236 C.3       1 UNK         0.1400 
      6 C6         -0.3899  -12.9957  -47.8568 C.3       23 UNK        -0.0398 
      7 S7          0.6445  -13.8348  -46.6081 S.3       23 UNK        -0.2404 
      8 C8         -0.5017  -15.0592  -45.9120 C.3       23 UNK        -0.0205 
      9 C9         -0.8912  -16.1191  -46.9286 C.ar      23 UNK        -0.0193 
     10 C10        -2.1716  -16.1204  -47.4848 C.ar      23 UNK        -0.1150 
     11 C11        -2.5370  -17.0758  -48.4379 C.ar      23 UNK        -0.0193 
     12 C12        -1.6125  -18.0574  -48.8086 C.ar      23 UNK        -0.1150 
     13 C13        -0.3324  -18.0778  -48.2437 C.ar      23 UNK        -0.0193 
     14 C14         0.0235  -17.1022  -47.3093 C.ar      23 UNK        -0.1150 
     15 C15         0.6767  -19.1383  -48.6560 C.3       23 UNK        -0.0205 
     16 S16         0.9196  -20.3880  -47.3544 S.3       23 UNK        -0.2404 
     17 C17        -0.7072  -21.2004  -47.3942 C.3       23 UNK        -0.0398 
     18 CA         -0.7111  -22.6057  -46.7525 C.3       11 UNK         0.1400 
     19 N          -0.4310  -22.5792  -45.3116 N.am      11 UNK        -0.5000 
     20 C          -0.3543  -23.6569  -44.5148 C.2       10 UNK         0.5000 
     21 O          -0.5303  -24.8118  -44.9021 O.2       10 UNK        -0.5000 
     22 CA         -0.1014  -23.3988  -43.0230 C.3       10 UNK         0.1400 
     23 CB          1.3702  -23.0435  -42.7592 C.3       10 UNK        -0.1800 
     24 N          -0.9744  -22.3342  -42.5351 N.am      10 UNK        -0.5000 
     25 C          -2.2637  -22.5121  -42.2141 C.2       9 UNK         0.5000 
     26 O          -2.8204  -23.6104  -42.2071 O.2       9 UNK        -0.5000 
     27 CA         -3.0783  -21.2532  -41.8592 C.3       9 UNK         0.1400 
     28 CB         -3.0341  -20.9921  -40.3462 C.3       9 UNK        -0.1800 
     29 N          -2.6318  -20.0510  -42.5650 N.am      9 UNK        -0.5000 
     30 C          -2.7308  -19.8630  -43.8881 C.2       8 UNK         0.5000 
     31 O          -3.2087  -20.6883  -44.6653 O.2       8 UNK        -0.5000 
     32 CA         -2.1543  -18.5465  -44.4396 C.3       8 UNK         0.1400 
     33 CB         -3.1836  -17.4175  -44.2760 C.3       8 UNK        -0.1800 
     34 N          -0.8855  -18.1341  -43.8284 N.am      8 UNK        -0.5000 
     35 C           0.2182  -18.8867  -43.6974 C.2       7 UNK         0.5000 
     36 O           0.2630  -20.0791  -43.9979 O.2       7 UNK        -0.5000 
     37 CA          1.4891  -18.2112  -43.1429 C.3       7 UNK         0.1400 
     38 CB          2.6305  -18.2997  -44.1664 C.3       7 UNK        -0.1800 
     39 N           1.3002  -16.8049  -42.7770 N.am      7 UNK        -0.5000 
     40 C           0.7522  -16.3684  -41.6346 C.2       6 UNK         0.5000 
     41 O           0.3226  -17.1257  -40.7638 O.2       6 UNK        -0.5000 
     42 CA          0.6101  -14.8399  -41.4549 C.3       6 UNK         0.1400 
     43 CB          0.9331  -14.3820  -40.0171 C.3       6 UNK        -0.1800 
     44 N           1.3368  -14.0412  -42.4541 N.am      6 UNK        -0.5000 
     45 C           2.6633  -13.8863  -42.5800 C.2       5 UNK         0.5000 
     46 O           3.5023  -14.3905  -41.8296 O.2       5 UNK        -0.5000 
     47 CA          3.1149  -13.0316  -43.7720 C.3       5 UNK         0.1400 
     48 CB          2.7667  -11.5437  -43.5838 C.3       5 UNK        -0.1800 
     49 N           4.5533  -13.1823  -43.9738 N.am      5 UNK        -0.5000 
     50 C           5.2354  -13.1447  -45.1262 C.2       4 UNK         0.5000 
     51 O           6.4433  -13.3829  -45.1584 O.2       4 UNK        -0.5000 
     52 CA          4.5133  -12.8111  -46.4575 C.3       4 UNK         0.1400 
     53 CB          5.1896  -11.6227  -47.1607 C.3       4 UNK        -0.1800 
     54 N           4.4818  -13.9455  -47.3838 N.am      4 UNK        -0.5000 
     55 C           4.0474  -15.1857  -47.1172 C.2       3 UNK         0.5000 
     56 O           3.5862  -15.5468  -46.0340 O.2       3 UNK        -0.5000 
     57 CA          4.0470  -16.1519  -48.3070 C.3       3 UNK         0.1400 
     58 CB          4.0594  -17.6335  -47.8896 C.3       3 UNK        -0.1800 
     59 N           2.8582  -15.8466  -49.0949 N.am      3 UNK        -0.5000 
     60 C           2.7918  -15.8600  -50.4310 C.2       2 UNK         0.5000 
     61 O           3.6872  -16.2996  -51.1534 O.2       2 UNK        -0.5000 
     62 CA          1.5338  -15.2416  -51.0813 C.3       2 UNK         0.1400 
     63 CB          0.5537  -16.3342  -51.5371 C.3       2 UNK        -0.1800 
     64 N           0.8221  -14.2768  -50.2321 N.am      2 UNK        -0.5000 
     65 C           1.3293  -13.1083  -49.8093 C.2       1 UNK         0.5000 
     66 O           2.4713  -12.7286  -50.0889 O.2       1 UNK        -0.5000 
     67 C          -2.0404  -23.3072  -47.0870 C.2       11 UNK         0.5000 
     68 O          -2.1006  -24.0320  -48.0806 O.2       11 UNK        -0.5000 
     69 N          -3.0747  -23.0923  -46.2616 N.am      12 UNK        -0.5000 
     70 CA         -4.3954  -23.7162  -46.3730 C.3       12 UNK         0.1400 
     71 CB         -5.3041  -23.1838  -45.2553 C.3       12 UNK        -0.1800 
     72 C          -4.3578  -25.2556  -46.3473 C.2       12 UNK         0.5000 
     73 O          -5.1371  -25.8892  -47.0589 O.2       12 UNK        -0.5000 
     74 N          -3.4421  -25.8212  -45.5519 N.am      13 UNK        -0.5000 
     75 CA         -3.2199  -27.2599  -45.4488 C.3       13 UNK         0.1400 
     76 CB         -2.7708  -27.5966  -44.0179 C.3       13 UNK        -0.1800 
     77 C          -2.1801  -27.7474  -46.4713 C.2       13 UNK         0.5000 
     78 O          -2.3991  -28.7711  -47.1197 O.2       13 UNK        -0.5000 
     79 N          -1.0581  -27.0238  -46.5776 N.am      14 UNK        -0.5000 
     80 CA          0.1237  -27.4413  -47.3300 C.3       14 UNK         0.1400 
     81 CB          1.3386  -26.6400  -46.8361 C.3       14 UNK        -0.1800 
     82 C          -0.0109  -27.3030  -48.8551 C.2       14 UNK         0.5000 
     83 O           0.5722  -28.1128  -49.5778 O.2       14 UNK        -0.5000 
     84 N          -0.7302  -26.2741  -49.3211 N.am      15 UNK        -0.5000 
     85 CA         -0.7553  -25.8738  -50.7302 C.3       15 UNK         0.1400 
     86 CB          0.3009  -24.7727  -50.9469 C.3       15 UNK        -0.1800 
     87 C          -2.1474  -25.4235  -51.2030 C.2       15 UNK         0.5000 
     88 O          -2.2431  -24.8003  -52.2609 O.2       15 UNK        -0.5000 
     89 N          -3.1974  -25.7025  -50.4154 N.am      16 UNK        -0.5000 
     90 CA         -4.5911  -25.2960  -50.6450 C.3       16 UNK         0.1400 
     91 CB         -5.1910  -26.0708  -51.8370 C.3       16 UNK        -0.1800 
     92 C          -4.7430  -23.7653  -50.7887 C.2       16 UNK         0.5000 
     93 O          -5.4073  -23.2877  -51.7094 O.2       16 UNK        -0.5000 
     94 N          -4.0656  -23.0265  -49.8976 N.am      17 UNK        -0.5000 
     95 CA         -3.9491  -21.5637  -49.8652 C.3       17 UNK         0.1400 
     96 CB         -5.3167  -20.8983  -49.6073 C.3       17 UNK        -0.1800 
     97 C          -3.2184  -21.0187  -51.1091 C.2       17 UNK         0.5000 
     98 O          -3.6383  -20.0141  -51.6841 O.2       17 UNK        -0.5000 
     99 N          -2.1482  -21.7264  -51.5055 N.am      18 UNK        -0.5000 
    100 CA        -1.3420  -21.5233  -52.7154 C.3       18 UNK         0.1400 
    101 CB        -0.5215  -20.2201  -52.6216 C.3       18 UNK        -0.1800 
    102 C         -2.1911  -21.6364  -53.9984 C.2       18 UNK         0.5000 
    103 O         -2.1391  -20.7599  -54.8612 O.2       18 UNK        -0.5000 
    104 N         -2.9838  -22.7162  -54.0686 N.am      19 UNK        -0.5000 
    105 CA        -4.0014  -23.0088  -55.0828 C.3       19 UNK         0.1400 
    106 CB        -3.3458  -23.3107  -56.4464 C.3       19 UNK        -0.1800 
    107 C         -5.0828  -21.9087  -55.1515 C.2       19 UNK         0.5000 
    108 O         -5.4090  -21.4205  -56.2354 O.2       19 UNK        -0.5000 
    109 N         -5.6024  -21.5400  -53.9715 N.am      20 UNK        -0.5000 
    110 CA        -6.6042  -20.5023  -53.7178 C.3       20 UNK         0.1400 
    111 CB        -7.9806  -20.9377  -54.2616 C.3       20 UNK        -0.1800 
    112 C         -6.1755  -19.1010  -54.2041 C.2       20 UNK         0.5000 
    113 O         -6.9857  -18.3755  -54.7854 O.2       20 UNK        -0.5000 
    114 N         -4.9168  -18.7245  -53.9314 N.am      21 UNK        -0.5000 
    115 CA        -4.3289  -17.4279  -54.2934 C.3       21 UNK         0.1400 
    116 CB        -2.8402  -17.4119  -53.9151 C.3       21 UNK        -0.1800 
    117 C         -5.0421  -16.2326  -53.6362 C.2       21 UNK         0.5000 
    118 O         -5.1216  -15.1598  -54.2361 O.2       21 UNK        -0.5000 
    119 N         -5.5634  -16.4592  -52.4265 N.am      22 UNK        -0.5000 
    120 CA        -6.3740  -15.5055  -51.6579 C.3       22 UNK         0.1400 
    121 C         -7.8889  -15.5261  -52.0259 C.2       22 UNK         0.5000 
    122 N         -8.3434  -16.3243  -52.9863 N.am      22 UNK        -0.7600 
    123 O         -8.6739  -14.7897  -51.4347 O.2       22 UNK        -0.5000 
    124 C124       -6.1507  -15.6804  -50.1344 C.3       23 UNK        -0.0398 
    125 S125       -4.4091  -15.4079  -49.6556 S.3       23 UNK        -0.2404 
    126 C126       -3.9337  -17.0603  -49.0479 C.3       23 UNK        -0.0205 
    127 H127        2.9375   -9.4643  -47.4623 H         1 UNK         0.0600 
    128 H128        1.8717   -9.0480  -46.1179 H         1 UNK         0.0600 
    129 H129        1.8014   -8.1228  -47.6220 H         1 UNK         0.0600 
    130 H130        2.2595  -11.3188  -48.5315 H         1 UNK         0.3000 
    131 H131       -0.2740  -11.7329  -49.6034 H         1 UNK         0.0600 
    132 H132       -1.0466  -13.7169  -48.3420 H         1 UNK         0.0800 
    133 H133       -1.0612  -12.3167  -47.3310 H         1 UNK         0.0800 
    134 H134       -0.0215  -15.5409  -45.0612 H         1 UNK         0.0800 
    135 H135       -1.3822  -14.5466  -45.5217 H         1 UNK         0.0800 
    136 H136       -2.8850  -15.3659  -47.1845 H         1 UNK         0.1150 
    137 H137       -1.8861  -18.8013  -49.5427 H         1 UNK         0.1150 
    138 H138        1.0128  -17.1067  -46.8763 H         1 UNK         0.1150 
    139 H139        0.3639  -19.6309  -49.5760 H         1 UNK         0.0800 
    140 H140        1.6281  -18.6613  -48.8855 H         1 UNK         0.0800 
    141 H141       -1.0035  -21.2673  -48.4423 H         1 UNK         0.0800 
    142 H142       -1.4349  -20.5502  -46.9069 H         1 UNK         0.0800 
    143 H143        0.0809  -23.1950  -47.2194 H         1 UNK         0.0600 
    144 H144       -0.2459  -21.6644  -44.9066 H         1 UNK         0.3000 
    145 H145       -0.3234  -24.3191  -42.4783 H         1 UNK         0.0600 
    146 H146        1.5486  -22.8696  -41.6981 H         1 UNK         0.0600 
    147 H147        2.0252  -23.8584  -43.0698 H         1 UNK         0.0600 
    148 H148        1.6832  -22.1516  -43.3017 H         1 UNK         0.0600 
    149 H149       -0.6134  -21.3910  -42.6054 H         1 UNK         0.3000 
    150 H150       -4.1156  -21.4433  -42.1434 H         1 UNK         0.0600 
    151 H151       -3.6750  -20.1541  -40.0714 H         1 UNK         0.0600 
    152 H152       -3.3829  -21.8628  -39.7892 H         1 UNK         0.0600 
    153 H153       -2.0224  -20.7679  -40.0059 H         1 UNK         0.0600 
    154 H154       -2.2039  -19.3261  -42.0076 H         1 UNK         0.3000 
    155 H155       -1.9669  -18.6866  -45.5054 H         1 UNK         0.0600 
    156 H156       -4.1164  -17.6652  -44.7845 H         1 UNK         0.0600 
    157 H157       -2.8249  -16.4818  -44.7011 H         1 UNK         0.0600 
    158 H158       -3.4190  -17.2353  -43.2268 H         1 UNK         0.0600 
    159 H159       -0.8277  -17.1746  -43.5274 H         1 UNK         0.3000 
    160 H160        1.7884  -18.7699  -42.2539 H         1 UNK         0.0600 
    161 H161        2.3771  -17.7746  -45.0860 H         1 UNK         0.0600 
    162 H162        2.8468  -19.3357  -44.4309 H         1 UNK         0.0600 
    163 H163        3.5504  -17.8646  -43.7755 H         1 UNK         0.0600 
    164 H164        1.6468  -16.1219  -43.4344 H         1 UNK         0.3000 
    165 H165       -0.4459  -14.6266  -41.6263 H         1 UNK         0.0600 
    166 H166        0.8257  -13.3023  -39.9127 H         1 UNK         0.0600 
    167 H167        0.2553  -14.8444  -39.2987 H         1 UNK         0.0600 
    168 H168        1.9475  -14.6499  -39.7212 H         1 UNK         0.0600 
    169 H169        0.7457  -13.5705  -43.1255 H         1 UNK         0.3000 
    170 H170        2.5776  -13.4361  -44.6256 H         1 UNK         0.0600 
    171 H171        1.6933  -11.4007  -43.4554 H         1 UNK         0.0600 
    172 H172        3.2610  -11.1276  -42.7052 H         1 UNK         0.0600 
    173 H173        3.0668  -10.9490  -44.4464 H         1 UNK         0.0600 
    174 H174        5.0364  -13.4724  -43.1336 H         1 UNK         0.3000 
    175 H175        3.4822  -12.5088  -46.2911 H         1 UNK         0.0600 
    176 H176        4.6583  -11.3463  -48.0716 H         1 UNK         0.0600 
    177 H177        5.2031  -10.7447  -46.5135 H         1 UNK         0.0600 
    178 H178        6.2220  -11.8469  -47.4321 H         1 UNK         0.0600 
    179 H179        4.8080  -13.7514  -48.3193 H         1 UNK         0.3000 
    180 H180        4.9474  -15.9555  -48.8934 H         1 UNK         0.0600 
    181 H181        3.1829  -17.9003  -47.3017 H         1 UNK         0.0600 
    182 H182        4.9375  -17.8569  -47.2829 H         1 UNK         0.0600 
    183 H183        4.0913  -18.2874  -48.7609 H         1 UNK         0.0600 
    184 H184        2.0863  -15.4455  -48.5795 H         1 UNK         0.3000 
    185 H185        1.8710  -14.7056  -51.9709 H         1 UNK         0.0600 
    186 H186        1.0464  -17.0593  -52.1862 H         1 UNK         0.0600 
    187 H187        0.1415  -16.8809  -50.6919 H         1 UNK         0.0600 
    188 H188       -0.2791  -15.9108  -52.0990 H         1 UNK         0.0600 
    189 H189       -0.1156  -14.5354  -49.9619 H         1 UNK         0.3000 
    190 H190       -2.9660  -22.4118  -45.5140 H         1 UNK         0.3000 
    191 H191       -4.8305  -23.4144  -47.3259 H         1 UNK         0.0600 
    192 H192       -5.4482  -22.1071  -45.3451 H         1 UNK         0.0600 
    193 H193       -6.2912  -23.6459  -45.2971 H         1 UNK         0.0600 
    194 H194       -4.8865  -23.3850  -44.2680 H         1 UNK         0.0600 
    195 H195       -2.8096  -25.2245  -45.0351 H         1 UNK         0.3000 
    196 H196       -4.1547  -27.7921  -45.6381 H         1 UNK         0.0600 
    197 H197       -2.5972  -28.6675  -43.9044 H         1 UNK         0.0600 
    198 H198       -3.5314  -27.3116  -43.2908 H         1 UNK         0.0600 
    199 H199       -1.8462  -27.0831  -43.7507 H         1 UNK         0.0600 
    200 H200       -0.9462  -26.1988  -45.9915 H         1 UNK         0.3000 
    201 H201        0.3088  -28.4954  -47.1118 H         1 UNK         0.0600 
    202 H202        1.4977  -26.7832  -45.7671 H         1 UNK         0.0600 
    203 H203        1.2147  -25.5712  -47.0153 H         1 UNK         0.0600 
    204 H204        2.2501  -26.9552  -47.3455 H         1 UNK         0.0600 
    205 H205       -1.1783  -25.6376  -48.6679 H         1 UNK         0.3000 
    206 H206       -0.4980  -26.7228  -51.3663 H         1 UNK         0.0600 
    207 H207        0.0681  -23.8757  -50.3719 H         1 UNK         0.0600 
    208 H208        1.2918  -25.1130  -50.6459 H         1 UNK         0.0600 
    209 H209        0.3684  -24.4883  -51.9974 H         1 UNK         0.0600 
    210 H210       -3.0217  -26.2102  -49.5601 H         1 UNK         0.3000 
    211 H211       -5.1517  -25.5772  -49.7532 H         1 UNK         0.0600 
    212 H212       -4.7073  -25.8087  -52.7784 H         1 UNK         0.0600 
    213 H213       -6.2548  -25.8565  -51.9462 H         1 UNK         0.0600 
    214 H214       -5.0904  -27.1470  -51.6971 H         1 UNK         0.0600 
    215 H215       -3.4851  -23.5250  -49.2278 H         1 UNK         0.3000 
    216 H216       -3.3156  -21.3207  -49.0130 H         1 UNK         0.0600 
    217 H217       -6.0119  -21.0560  -50.4308 H         1 UNK         0.0600 
    218 H218       -5.2105  -19.8222  -49.4733 H         1 UNK         0.0600 
    219 H219       -5.7782  -21.2910  -48.7013 H         1 UNK         0.0600 
    220 H220       -1.9385  -22.5695  -50.9926 H         1 UNK         0.3000 
    221 H221       -0.6309  -22.3489  -52.7590 H         1 UNK         0.0600 
    222 H222       -1.1537  -19.3454  -52.4783 H         1 UNK         0.0600 
    223 H223        0.1818  -20.2636  -51.7919 H         1 UNK         0.0600 
    224 H224        0.0647  -20.0568  -53.5265 H         1 UNK         0.0600 
    225 H225       -2.9011  -23.4058  -53.3245 H         1 UNK         0.3000 
    226 H226       -4.5085  -23.9167  -54.7528 H         1 UNK         0.0600 
    227 H227       -2.6056  -24.1060  -56.3591 H         1 UNK         0.0600 
    228 H228       -4.0906  -23.6389  -57.1722 H         1 UNK         0.0600 
    229 H229       -2.8488  -22.4339  -56.8624 H         1 UNK         0.0600 
    230 H230       -5.3002  -22.0509  -53.1453 H         1 UNK         0.3000 
    231 H231       -6.6921  -20.4273  -52.6339 H         1 UNK         0.0600 
    232 H232       -8.2663  -21.9146  -53.8714 H         1 UNK         0.0600 
    233 H233       -8.7588  -20.2323  -53.9676 H         1 UNK         0.0600 
    234 H234       -7.9861  -20.9962  -55.3504 H         1 UNK         0.0600 
    235 H235       -4.3298  -19.3496  -53.3856 H         1 UNK         0.3000 
    236 H236       -4.4129  -17.3134  -55.3758 H         1 UNK         0.0600 
    237 H237       -2.6982  -17.5639  -52.8444 H         1 UNK         0.0600 
    238 H238       -2.2884  -18.1868  -54.4446 H         1 UNK         0.0600 
    239 H239       -2.3799  -16.4574  -54.1734 H         1 UNK         0.0600 
    240 H240       -5.4421  -17.3754  -52.0219 H         1 UNK         0.3000 
    241 H241       -6.0383  -14.4982  -51.9119 H         1 UNK         0.0600 
    242 H242       -7.7226  -16.9180  -53.5233 H         1 UNK         0.3800 
    243 H243       -9.3265  -16.3113  -53.2076 H         1 UNK         0.3800 
    244 H244       -6.4804  -16.6688  -49.8107 H         1 UNK         0.0800 
    245 H245       -6.7522  -14.9626  -49.5741 H         1 UNK         0.0800 
    246 H246       -3.9958  -17.7647  -49.8787 H         1 UNK         0.0800 
    247 H247       -4.6467  -17.3917  -48.2920 H         1 UNK         0.0800 
@<TRIPOS>BOND
     1    1    2 1    
     2    1  127 1    
     3    1  128 1    
     4    1  129 1    
     5    2    3 2    
     6    2    4 am   BACKBONE|DICT|INTERRES
     7    4    5 1    
     8    4  130 1    
     9    5    6 1    
    10    5   65 1    
    11    5  131 1    
    12    6    7 1    
    13    6  132 1    
    14    6  133 1    
    15    7    8 1    
    16    8    9 1    
    17    8  134 1    
    18    8  135 1    
    19    9   10 ar   
    20    9   14 ar   
    21   10   11 ar   
    22   10  136 1    
    23   11   12 ar   
    24   11  126 1    
    25   12   13 ar   
    26   12  137 1    
    27   13   14 ar   
    28   13   15 1    
    29   14  138 1    
    30   15   16 1    
    31   15  139 1    
    32   15  140 1    
    33   16   17 1    
    34   17   18 1    
    35   17  141 1    
    36   17  142 1    
    37   18   19 1    
    38   18   67 1    
    39   18  143 1    
    40   19   20 am   BACKBONE|DICT|INTERRES
    41   19  144 1    
    42   20   21 2    
    43   20   22 1    
    44   22   23 1    
    45   22   24 1    
    46   22  145 1    
    47   23  146 1    
    48   23  147 1    
    49   23  148 1    
    50   24   25 am   BACKBONE|DICT|INTERRES
    51   24  149 1    
    52   25   26 2    
    53   25   27 1    
    54   27   28 1    
    55   27   29 1    
    56   27  150 1    
    57   28  151 1    
    58   28  152 1    
    59   28  153 1    
    60   29   30 am   BACKBONE|DICT|INTERRES
    61   29  154 1    
    62   30   31 2    
    63   30   32 1    
    64   32   33 1    
    65   32   34 1    
    66   32  155 1    
    67   33  156 1    
    68   33  157 1    
    69   33  158 1    
    70   34   35 am   BACKBONE|DICT|INTERRES
    71   34  159 1    
    72   35   36 2    
    73   35   37 1    
    74   37   38 1    
    75   37   39 1    
    76   37  160 1    
    77   38  161 1    
    78   38  162 1    
    79   38  163 1    
    80   39   40 am   BACKBONE|DICT|INTERRES
    81   39  164 1    
    82   40   41 2    
    83   40   42 1    
    84   42   43 1    
    85   42   44 1    
    86   42  165 1    
    87   43  166 1    
    88   43  167 1    
    89   43  168 1    
    90   44   45 am   BACKBONE|DICT|INTERRES
    91   44  169 1    
    92   45   46 2    
    93   45   47 1    
    94   47   48 1    
    95   47   49 1    
    96   47  170 1    
    97   48  171 1    
    98   48  172 1    
    99   48  173 1    
   100   49   50 am   BACKBONE|DICT|INTERRES
   101   49  174 1    
   102   50   51 2    
   103   50   52 1    
   104   52   53 1    
   105   52   54 1    
   106   52  175 1    
   107   53  176 1    
   108   53  177 1    
   109   53  178 1    
   110   54   55 am   BACKBONE|DICT|INTERRES
   111   54  179 1    
   112   55   56 2    
   113   55   57 1    
   114   57   58 1    
   115   57   59 1    
   116   57  180 1    
   117   58  181 1    
   118   58  182 1    
   119   58  183 1    
   120   59   60 am   BACKBONE|DICT|INTERRES
   121   59  184 1    
   122   60   61 2    
   123   60   62 1    
   124   62   63 1    
   125   62   64 1    
   126   62  185 1    
   127   63  186 1    
   128   63  187 1    
   129   63  188 1    
   130   64   65 am   BACKBONE|DICT|INTERRES
   131   64  189 1    
   132   65   66 2    
   133   67   68 2    
   134   67   69 am   BACKBONE|DICT|INTERRES
   135   69   70 1    
   136   69  190 1    
   137   70   71 1    
   138   70   72 1    
   139   70  191 1    
   140   71  192 1    
   141   71  193 1    
   142   71  194 1    
   143   72   73 2    
   144   72   74 am   BACKBONE|DICT|INTERRES
   145   74   75 1    
   146   74  195 1    
   147   75   76 1    
   148   75   77 1    
   149   75  196 1    
   150   76  197 1    
   151   76  198 1    
   152   76  199 1    
   153   77   78 2    
   154   77   79 am   BACKBONE|DICT|INTERRES
   155   79   80 1    
   156   79  200 1    
   157   80   81 1    
   158   80   82 1    
   159   80  201 1    
   160   81  202 1    
   161   81  203 1    
   162   81  204 1    
   163   82   83 2    
   164   82   84 am   BACKBONE|DICT|INTERRES
   165   84   85 1    
   166   84  205 1    
   167   85   86 1    
   168   85   87 1    
   169   85  206 1    
   170   86  207 1    
   171   86  208 1    
   172   86  209 1    
   173   87   88 2    
   174   87   89 am   BACKBONE|DICT|INTERRES
   175   89   90 1    
   176   89  210 1    
   177   90   91 1    
   178   90   92 1    
   179   90  211 1    
   180   91  212 1    
   181   91  213 1    
   182   91  214 1    
   183   92   93 2    
   184   92   94 am   BACKBONE|DICT|INTERRES
   185   94   95 1    
   186   94  215 1    
   187   95   96 1    
   188   95   97 1    
   189   95  216 1    
   190   96  217 1    
   191   96  218 1    
   192   96  219 1    
   193   97   98 2    
   194   97   99 am   BACKBONE|DICT|INTERRES
   195   99  100 1    
   196   99  220 1    
   197  100  101 1    
   198  100  102 1    
   199  100  221 1    
   200  101  222 1    
   201  101  223 1    
   202  101  224 1    
   203  102  103 2    
   204  102  104 am   BACKBONE|DICT|INTERRES
   205  104  105 1    
   206  104  225 1    
   207  105  106 1    
   208  105  107 1    
   209  105  226 1    
   210  106  227 1    
   211  106  228 1    
   212  106  229 1    
   213  107  108 2    
   214  107  109 am   BACKBONE|DICT|INTERRES
   215  109  110 1    
   216  109  230 1    
   217  110  111 1    
   218  110  112 1    
   219  110  231 1    
   220  111  232 1    
   221  111  233 1    
   222  111  234 1    
   223  112  113 2    
   224  112  114 am   BACKBONE|DICT|INTERRES
   225  114  115 1    
   226  114  235 1    
   227  115  116 1    
   228  115  117 1    
   229  115  236 1    
   230  116  237 1    
   231  116  238 1    
   232  116  239 1    
   233  117  118 2    
   234  117  119 am   BACKBONE|DICT|INTERRES
   235  119  120 1    
   236  119  240 1    
   237  120  121 1    
   238  120  124 1    
   239  120  241 1    
   240  121  122 am   BACKBONE|DICT|INTERRES
   241  121  123 2    
   242  122  242 1    
   243  122  243 1    
   244  124  125 1    
   245  124  244 1    
   246  124  245 1    
   247  125  126 1    
   248  126  246 1    
   249  126  247 1    
@<TRIPOS>SUBSTRUCTURE
     1 UNK         1 GROUP             0       ****    0 ROOT    
