@<TRIPOS>MOLECULE
3R540
247   249    1
SMALL
USER_CHARGES


@<TRIPOS>ATOM
      1 CA          5.8741  -15.9068  -50.2106 C.3       0 UNK        -0.1800 
      2 C           5.3423  -15.7871  -48.7896 C.2       0 UNK         0.5000 
      3 O           6.1143  -15.8773  -47.8353 O.2       0 UNK        -0.5000 
      4 N           4.0269  -15.5819  -48.6467 N.am      1 UNK        -0.5000 
      5 CA          3.3349  -15.4419  -47.3598 C.3       1 UNK         0.1400 
      6 C6          1.8309  -15.7984  -47.4803 C.3       23 UNK        -0.0398 
      7 S7          0.8475  -14.6681  -48.5338 S.3       23 UNK        -0.2404 
      8 C8          0.7500  -15.5562  -50.1238 C.3       23 UNK        -0.0205 
      9 C9          0.0003  -16.8763  -50.0222 C.ar      23 UNK        -0.0193 
     10 C10        -1.3595  -16.8923  -49.7004 C.ar      23 UNK        -0.1150 
     11 C11        -2.0552  -18.1012  -49.6134 C.ar      23 UNK        -0.0193 
     12 C12        -1.3786  -19.3008  -49.8484 C.ar      23 UNK        -0.1150 
     13 C13        -0.0251  -19.2984  -50.1990 C.ar      23 UNK        -0.0193 
     14 C14         0.6589  -18.0817  -50.2813 C.ar      23 UNK        -0.1150 
     15 C15         0.6853  -20.6104  -50.5109 C.3       23 UNK        -0.0205 
     16 S16         2.1932  -20.8767  -49.5180 S.3       23 UNK        -0.2404 
     17 C17         1.5379  -20.8048  -47.8171 C.3       23 UNK        -0.0398 
     18 CA          1.2858  -22.1830  -47.1622 C.3       11 UNK         0.1400 
     19 N           0.9953  -22.0349  -45.7351 N.am      11 UNK        -0.5000 
     20 C           0.8172  -23.0328  -44.8606 C.2       10 UNK         0.5000 
     21 O           0.9099  -24.2234  -45.1547 O.2       10 UNK        -0.5000 
     22 CA          0.4117  -22.6333  -43.4310 C.3       10 UNK         0.1400 
     23 CB          1.6293  -22.1514  -42.6290 C.3       10 UNK        -0.1800 
     24 N          -0.6316  -21.6063  -43.4176 N.am      10 UNK        -0.5000 
     25 C          -1.8778  -21.7925  -43.8781 C.2       9 UNK         0.5000 
     26 O          -2.2941  -22.8685  -44.3065 O.2       9 UNK        -0.5000 
     27 CA         -2.8071  -20.5657  -43.8963 C.3       9 UNK         0.1400 
     28 CB         -3.4087  -20.3183  -42.5049 C.3       9 UNK        -0.1800 
     29 N          -2.1386  -19.3526  -44.3675 N.am      9 UNK        -0.5000 
     30 C          -1.6368  -19.1918  -45.6005 C.2       8 UNK         0.5000 
     31 O          -1.7100  -20.0440  -46.4856 O.2       8 UNK        -0.5000 
     32 CA         -0.8705  -17.8838  -45.8694 C.3       8 UNK         0.1400 
     33 CB         -1.8331  -16.7067  -46.0777 C.3       8 UNK        -0.1800 
     34 N           0.0639  -17.5519  -44.7948 N.am      8 UNK        -0.5000 
     35 C           1.1006  -18.3107  -44.4153 C.2       7 UNK         0.5000 
     36 O           1.4182  -19.3616  -44.9660 O.2       7 UNK        -0.5000 
     37 CA          1.8889  -17.8414  -43.1840 C.3       7 UNK         0.1400 
     38 CB          2.8959  -16.7501  -43.5676 C.3       7 UNK        -0.1800 
     39 N           1.0031  -17.3529  -42.1288 N.am      7 UNK        -0.5000 
     40 C           0.1811  -18.1356  -41.4155 C.2       6 UNK         0.5000 
     41 O           0.1047  -19.3566  -41.5539 O.2       6 UNK        -0.5000 
     42 CA         -0.7384  -17.4240  -40.4076 C.3       6 UNK         0.1400 
     43 CB          0.0137  -17.1222  -39.1028 C.3       6 UNK        -0.1800 
     44 N          -1.3011  -16.1839  -40.9445 N.am      6 UNK        -0.5000 
     45 C          -2.1757  -16.1332  -41.9587 C.2       5 UNK         0.5000 
     46 O          -2.6111  -17.1281  -42.5368 O.2       5 UNK        -0.5000 
     47 CA         -2.6069  -14.7339  -42.4316 C.3       5 UNK         0.1400 
     48 CB         -3.7637  -14.2057  -41.5701 C.3       5 UNK        -0.1800 
     49 N          -1.5200  -13.7505  -42.4428 N.am      5 UNK        -0.5000 
     50 C          -0.4095  -13.8478  -43.1849 C.2       4 UNK         0.5000 
     51 O          -0.1275  -14.8300  -43.8746 O.2       4 UNK        -0.5000 
     52 CA          0.5505  -12.6493  -43.1493 C.3       4 UNK         0.1400 
     53 CB          1.8679  -13.0125  -42.4483 C.3       4 UNK        -0.1800 
     54 N           0.8250  -12.2046  -44.5134 N.am      4 UNK        -0.5000 
     55 C           0.0050  -11.4136  -45.2217 C.2       3 UNK         0.5000 
     56 O          -1.0241  -10.9260  -44.7501 O.2       3 UNK        -0.5000 
     57 CA          0.3594  -11.1308  -46.7001 C.3       3 UNK         0.1400 
     58 CB          0.0346   -9.6816  -47.1188 C.3       3 UNK        -0.1800 
     59 N           1.7296  -11.4920  -47.0771 N.am      3 UNK        -0.5000 
     60 C           2.8811  -10.9642  -46.6328 C.2       2 UNK         0.5000 
     61 O           2.9455  -10.0037  -45.8643 O.2       2 UNK        -0.5000 
     62 CA          4.1773  -11.6521  -47.1234 C.3       2 UNK         0.1400 
     63 CB          5.3386  -11.5118  -46.1173 C.3       2 UNK        -0.1800 
     64 N           3.9875  -13.0626  -47.4962 N.am      2 UNK        -0.5000 
     65 C           3.5405  -14.0552  -46.7079 C.2       1 UNK         0.5000 
     66 O           3.2427  -13.8977  -45.5245 O.2       1 UNK        -0.5000 
     67 C           0.1846  -22.9839  -47.8871 C.2       11 UNK         0.5000 
     68 O           0.5022  -23.9365  -48.5958 O.2       11 UNK        -0.5000 
     69 N          -1.0852  -22.6251  -47.6523 N.am      12 UNK        -0.5000 
     70 CA         -2.2568  -23.3045  -48.2100 C.3       12 UNK         0.1400 
     71 CB         -3.4989  -22.4362  -47.9629 C.3       12 UNK        -0.1800 
     72 C          -2.4848  -24.7342  -47.6727 C.2       12 UNK         0.5000 
     73 O          -3.2512  -25.4829  -48.2803 O.2       12 UNK        -0.5000 
     74 N          -1.8477  -25.0888  -46.5489 N.am      13 UNK        -0.5000 
     75 CA         -1.8530  -26.4388  -45.9905 C.3       13 UNK         0.1400 
     76 CB         -1.8086  -26.3605  -44.4560 C.3       13 UNK        -0.1800 
     77 C          -0.6771  -27.2689  -46.5344 C.2       13 UNK         0.5000 
     78 O          -0.8733  -28.4258  -46.9088 O.2       13 UNK        -0.5000 
     79 N           0.5235  -26.6738  -46.5553 N.am      14 UNK        -0.5000 
     80 CA          1.7686  -27.3151  -46.9809 C.3       14 UNK         0.1400 
     81 CB          2.9554  -26.4777  -46.4795 C.3       14 UNK        -0.1800 
     82 C           1.8698  -27.5230  -48.5032 C.2       14 UNK         0.5000 
     83 O           2.4685  -28.5069  -48.9407 O.2       14 UNK        -0.5000 
     84 N           1.3013  -26.5947  -49.2765 N.am      15 UNK        -0.5000 
     85 CA          1.2972  -26.5733  -50.7348 C.3       15 UNK         0.1400 
     86 CB          2.4248  -25.6392  -51.2170 C.3       15 UNK        -0.1800 
     87 C          -0.0895  -26.1304  -51.2347 C.2       15 UNK         0.5000 
     88 O          -1.0496  -26.1092  -50.4623 O.2       15 UNK        -0.5000 
     89 N          -0.1858  -25.7992  -52.5276 N.am      16 UNK        -0.5000 
     90 CA         -1.3815  -25.2147  -53.1333 C.3       16 UNK         0.1400 
     91 CB         -1.2540  -25.2904  -54.6627 C.3       16 UNK        -0.1800 
     92 C          -1.5789  -23.7553  -52.6813 C.2       16 UNK         0.5000 
     93 O          -0.5967  -23.0381  -52.4766 O.2       16 UNK        -0.5000 
     94 N          -2.8444  -23.3355  -52.5684 N.am      17 UNK        -0.5000 
     95 CA         -3.2374  -21.9561  -52.2815 C.3       17 UNK         0.1400 
     96 CB         -4.7459  -21.9263  -51.9895 C.3       17 UNK        -0.1800 
     97 C          -2.8901  -21.0145  -53.4509 C.2       17 UNK         0.5000 
     98 O          -2.9828  -21.4226  -54.6122 O.2       17 UNK        -0.5000 
     99 N          -2.5358  -19.7629  -53.1366 N.am      18 UNK        -0.5000 
    100 CA        -2.1864  -18.7134  -54.0979 C.3       18 UNK         0.1400 
    101 CB        -1.2927  -17.6770  -53.3954 C.3       18 UNK        -0.1800 
    102 C         -3.4389  -18.0817  -54.7435 C.2       18 UNK         0.5000 
    103 O         -3.6504  -16.8720  -54.6359 O.2       18 UNK        -0.5000 
    104 N         -4.2413  -18.9327  -55.3985 N.am      19 UNK        -0.5000 
    105 CA        -5.5495  -18.6699  -56.0062 C.3       19 UNK         0.1400 
    106 CB        -5.4431  -17.5935  -57.1083 C.3       19 UNK        -0.1800 
    107 C         -6.6438  -18.3393  -54.9676 C.2       19 UNK         0.5000 
    108 O         -6.3878  -18.3217  -53.7613 O.2       19 UNK        -0.5000 
    109 N         -7.8760  -18.1452  -55.4626 N.am      20 UNK        -0.5000 
    110 CA        -9.0882  -17.7421  -54.7296 C.3       20 UNK         0.1400 
    111 CB        -8.9286  -16.3000  -54.2044 C.3       20 UNK        -0.1800 
    112 C         -9.5441  -18.7068  -53.6092 C.2       20 UNK         0.5000 
    113 O        -10.4250  -18.3451  -52.8272 O.2       20 UNK        -0.5000 
    114 N         -8.9413  -19.9047  -53.5475 N.am      21 UNK        -0.5000 
    115 CA        -9.0783  -20.9205  -52.4992 C.3       21 UNK         0.1400 
    116 CB       -10.4710  -21.5821  -52.5619 C.3       21 UNK        -0.1800 
    117 C         -8.7238  -20.3750  -51.0971 C.2       21 UNK         0.5000 
    118 O         -9.4379  -20.6501  -50.1312 O.2       21 UNK        -0.5000 
    119 N         -7.6366  -19.5920  -51.0153 N.am      22 UNK        -0.5000 
    120 CA        -7.1868  -18.9035  -49.7911 C.3       22 UNK         0.1400 
    121 C         -6.6880  -19.8061  -48.6210 C.2       22 UNK         0.5000 
    122 N         -6.5531  -21.1142  -48.7940 N.am      22 UNK        -0.7600 
    123 O         -6.4354  -19.3081  -47.5276 O.2       22 UNK        -0.5000 
    124 C124       -6.2025  -17.7460  -50.1048 C.3       23 UNK        -0.0398 
    125 S125       -4.5704  -18.2615  -50.7511 S.3       23 UNK        -0.2404 
    126 C126       -3.5346  -18.1066  -49.2638 C.3       23 UNK        -0.0205 
    127 H127        6.3538  -16.8755  -50.3508 H         1 UNK         0.0600 
    128 H128        6.6129  -15.1285  -50.4017 H         1 UNK         0.0600 
    129 H129        5.0796  -15.8112  -50.9511 H         1 UNK         0.0600 
    130 H130        3.4435  -15.5103  -49.4668 H         1 UNK         0.3000 
    131 H131        3.7744  -16.1658  -46.6702 H         1 UNK         0.0600 
    132 H132        1.7227  -16.8236  -47.8351 H         1 UNK         0.0800 
    133 H133        1.3757  -15.7890  -46.4891 H         1 UNK         0.0800 
    134 H134        0.2365  -14.9199  -50.8458 H         1 UNK         0.0800 
    135 H135        1.7547  -15.7088  -50.5184 H         1 UNK         0.0800 
    136 H136       -1.8741  -15.9598  -49.5163 H         1 UNK         0.1150 
    137 H137       -1.9112  -20.2355  -49.7636 H         1 UNK         0.1150 
    138 H138        1.7055  -18.0776  -50.5513 H         1 UNK         0.1150 
    139 H139        0.0132  -21.4568  -50.3659 H         1 UNK         0.0800 
    140 H140        0.9543  -20.6188  -51.5679 H         1 UNK         0.0800 
    141 H141        2.2861  -20.2656  -47.2357 H         1 UNK         0.0800 
    142 H142        0.6408  -20.1878  -47.7767 H         1 UNK         0.0800 
    143 H143        2.2086  -22.7624  -47.2346 H         1 UNK         0.0600 
    144 H144        0.9423  -21.0776  -45.3931 H         1 UNK         0.3000 
    145 H145        0.0130  -23.5227  -42.9386 H         1 UNK         0.0600 
    146 H146        1.3601  -21.9415  -41.5937 H         1 UNK         0.0600 
    147 H147        2.4124  -22.9104  -42.6144 H         1 UNK         0.0600 
    148 H148        2.0593  -21.2433  -43.0520 H         1 UNK         0.0600 
    149 H149       -0.3774  -20.7017  -43.0350 H         1 UNK         0.3000 
    150 H150       -3.6254  -20.7816  -44.5865 H         1 UNK         0.0600 
    151 H151       -3.9165  -21.2094  -42.1338 H         1 UNK         0.0600 
    152 H152       -4.1431  -19.5131  -42.5319 H         1 UNK         0.0600 
    153 H153       -2.6429  -20.0475  -41.7773 H         1 UNK         0.0600 
    154 H154       -2.0756  -18.5839  -43.7059 H         1 UNK         0.3000 
    155 H155       -0.2963  -18.0201  -46.7880 H         1 UNK         0.0600 
    156 H156       -1.2979  -15.8103  -46.3914 H         1 UNK         0.0600 
    157 H157       -2.3813  -16.4679  -45.1674 H         1 UNK         0.0600 
    158 H158       -2.5684  -16.9334  -46.8461 H         1 UNK         0.0600 
    159 H159       -0.0961  -16.6704  -44.3131 H         1 UNK         0.3000 
    160 H160        2.4460  -18.6954  -42.7928 H         1 UNK         0.0600 
    161 H161        2.3977  -15.8904  -44.0133 H         1 UNK         0.0600 
    162 H162        3.6162  -17.1240  -44.2960 H         1 UNK         0.0600 
    163 H163        3.4585  -16.4032  -42.7009 H         1 UNK         0.0600 
    164 H164        0.9633  -16.3541  -41.9928 H         1 UNK         0.3000 
    165 H165       -1.5644  -18.1002  -40.1765 H         1 UNK         0.0600 
    166 H166        0.8381  -16.4260  -39.2622 H         1 UNK         0.0600 
    167 H167       -0.6518  -16.6894  -38.3556 H         1 UNK         0.0600 
    168 H168        0.4320  -18.0341  -38.6745 H         1 UNK         0.0600 
    169 H169       -0.9920  -15.3180  -40.5280 H         1 UNK         0.3000 
    170 H170       -2.9689  -14.8325  -43.4568 H         1 UNK         0.0600 
    171 H171       -4.5959  -14.9111  -41.5591 H         1 UNK         0.0600 
    172 H172       -3.4563  -14.0445  -40.5361 H         1 UNK         0.0600 
    173 H173       -4.1459  -13.2615  -41.9585 H         1 UNK         0.0600 
    174 H174       -1.6744  -12.9091  -41.9061 H         1 UNK         0.3000 
    175 H175        0.0897  -11.8324  -42.5897 H         1 UNK         0.0600 
    176 H176        2.5365  -12.1528  -42.4017 H         1 UNK         0.0600 
    177 H177        1.6884  -13.3424  -41.4244 H         1 UNK         0.0600 
    178 H178        2.3960  -13.8135  -42.9635 H         1 UNK         0.0600 
    179 H179        1.6278  -12.6252  -44.9678 H         1 UNK         0.3000 
    180 H180       -0.2862  -11.7884  -47.2840 H         1 UNK         0.0600 
    181 H181        0.2830   -9.5081  -48.1658 H         1 UNK         0.0600 
    182 H182       -1.0284   -9.4685  -47.0009 H         1 UNK         0.0600 
    183 H183        0.5798   -8.9531  -46.5184 H         1 UNK         0.0600 
    184 H184        1.8018  -12.2891  -47.6945 H         1 UNK         0.3000 
    185 H185        4.4670  -11.1307  -48.0367 H         1 UNK         0.0600 
    186 H186        6.2392  -12.0043  -46.4840 H         1 UNK         0.0600 
    187 H187        5.5891  -10.4636  -45.9505 H         1 UNK         0.0600 
    188 H188        5.0898  -11.9461  -45.1485 H         1 UNK         0.0600 
    189 H189        4.1910  -13.2917  -48.4588 H         1 UNK         0.3000 
    190 H190       -1.2703  -21.8090  -47.0733 H         1 UNK         0.3000 
    191 H191       -2.1102  -23.3889  -49.2892 H         1 UNK         0.0600 
    192 H192       -4.3877  -22.9063  -48.3840 H         1 UNK         0.0600 
    193 H193       -3.4011  -21.4554  -48.4266 H         1 UNK         0.0600 
    194 H194       -3.6759  -22.2860  -46.8971 H         1 UNK         0.0600 
    195 H195       -1.2660  -24.4040  -46.0850 H         1 UNK         0.3000 
    196 H196       -2.7788  -26.9485  -46.2655 H         1 UNK         0.0600 
    197 H197       -1.8375  -27.3574  -44.0145 H         1 UNK         0.0600 
    198 H198       -2.6633  -25.8068  -44.0671 H         1 UNK         0.0600 
    199 H199       -0.9044  -25.8693  -44.0968 H         1 UNK         0.0600 
    200 H200        0.6098  -25.7298  -46.1860 H         1 UNK         0.3000 
    201 H201        1.8239  -28.2980  -46.5083 H         1 UNK         0.0600 
    202 H202        2.9429  -26.3870  -45.3931 H         1 UNK         0.0600 
    203 H203        2.9398  -25.4706  -46.8988 H         1 UNK         0.0600 
    204 H204        3.9051  -26.9365  -46.7575 H         1 UNK         0.0600 
    205 H205        0.8122  -25.8133  -48.8450 H         1 UNK         0.3000 
    206 H206        1.4717  -27.5781  -51.1244 H         1 UNK         0.0600 
    207 H207        3.3854  -25.9297  -50.7912 H         1 UNK         0.0600 
    208 H208        2.5362  -25.6686  -52.3010 H         1 UNK         0.0600 
    209 H209        2.2335  -24.6038  -50.9300 H         1 UNK         0.0600 
    210 H210        0.6464  -25.8094  -53.0981 H         1 UNK         0.3000 
    211 H211       -2.2503  -25.8019  -52.8276 H         1 UNK         0.0600 
    212 H212       -0.3923  -24.7268  -55.0230 H         1 UNK         0.0600 
    213 H213       -2.1397  -24.8794  -55.1490 H         1 UNK         0.0600 
    214 H214       -1.1472  -26.3215  -55.0001 H         1 UNK         0.0600 
    215 H215       -3.5927  -23.9748  -52.7919 H         1 UNK         0.3000 
    216 H216       -2.7007  -21.6278  -51.3906 H         1 UNK         0.0600 
    217 H217       -5.0860  -20.9138  -51.7775 H         1 UNK         0.0600 
    218 H218       -4.9904  -22.5389  -51.1216 H         1 UNK         0.0600 
    219 H219       -5.3277  -22.2922  -52.8364 H         1 UNK         0.0600 
    220 H220       -2.5568  -19.4729  -52.1687 H         1 UNK         0.3000 
    221 H221       -1.5987  -19.1573  -54.9042 H         1 UNK         0.0600 
    222 H222       -1.8133  -17.1954  -52.5672 H         1 UNK         0.0600 
    223 H223       -0.3884  -18.1404  -53.0021 H         1 UNK         0.0600 
    224 H224       -0.9790  -16.8944  -54.0871 H         1 UNK         0.0600 
    225 H225       -3.9633  -19.9094  -55.3739 H         1 UNK         0.3000 
    226 H226       -5.8448  -19.6066  -56.4811 H         1 UNK         0.0600 
    227 H227       -4.6182  -17.8057  -57.7885 H         1 UNK         0.0600 
    228 H228       -6.3503  -17.5516  -57.7114 H         1 UNK         0.0600 
    229 H229       -5.2860  -16.5980  -56.6920 H         1 UNK         0.0600 
    230 H230       -7.9996  -18.2344  -56.4617 H         1 UNK         0.3000 
    231 H231       -9.8957  -17.7379  -55.4630 H         1 UNK         0.0600 
    232 H232       -9.8645  -15.9244  -53.7891 H         1 UNK         0.0600 
    233 H233       -8.6358  -15.6191  -55.0036 H         1 UNK         0.0600 
    234 H234       -8.1747  -16.2384  -53.4187 H         1 UNK         0.0600 
    235 H235       -8.2265  -20.0853  -54.2369 H         1 UNK         0.3000 
    236 H236       -8.3382  -21.6912  -52.7191 H         1 UNK         0.0600 
    237 H237      -10.6770  -21.9724  -53.5585 H         1 UNK         0.0600 
    238 H238      -10.5375  -22.4196  -51.8666 H         1 UNK         0.0600 
    239 H239      -11.2658  -20.8809  -52.3058 H         1 UNK         0.0600 
    240 H240       -7.1160  -19.3782  -51.8579 H         1 UNK         0.3000 
    241 H241       -8.0821  -18.4251  -49.3893 H         1 UNK         0.0600 
    242 H242       -6.7972  -21.5403  -49.6715 H         1 UNK         0.3800 
    243 H243       -6.2541  -21.6821  -48.0190 H         1 UNK         0.3800 
    244 H244       -6.6514  -17.0883  -50.8506 H         1 UNK         0.0800 
    245 H245       -6.0670  -17.1202  -49.2216 H         1 UNK         0.0800 
    246 H246       -3.7510  -18.9232  -48.5732 H         1 UNK         0.0800 
    247 H247       -3.7949  -17.1835  -48.7458 H         1 UNK         0.0800 
@<TRIPOS>BOND
     1    1    2 1    
     2    1  127 1    
     3    1  128 1    
     4    1  129 1    
     5    2    3 2    
     6    2    4 am   BACKBONE|DICT|INTERRES
     7    4    5 1    
     8    4  130 1    
     9    5    6 1    
    10    5   65 1    
    11    5  131 1    
    12    6    7 1    
    13    6  132 1    
    14    6  133 1    
    15    7    8 1    
    16    8    9 1    
    17    8  134 1    
    18    8  135 1    
    19    9   10 ar   
    20    9   14 ar   
    21   10   11 ar   
    22   10  136 1    
    23   11   12 ar   
    24   11  126 1    
    25   12   13 ar   
    26   12  137 1    
    27   13   14 ar   
    28   13   15 1    
    29   14  138 1    
    30   15   16 1    
    31   15  139 1    
    32   15  140 1    
    33   16   17 1    
    34   17   18 1    
    35   17  141 1    
    36   17  142 1    
    37   18   19 1    
    38   18   67 1    
    39   18  143 1    
    40   19   20 am   BACKBONE|DICT|INTERRES
    41   19  144 1    
    42   20   21 2    
    43   20   22 1    
    44   22   23 1    
    45   22   24 1    
    46   22  145 1    
    47   23  146 1    
    48   23  147 1    
    49   23  148 1    
    50   24   25 am   BACKBONE|DICT|INTERRES
    51   24  149 1    
    52   25   26 2    
    53   25   27 1    
    54   27   28 1    
    55   27   29 1    
    56   27  150 1    
    57   28  151 1    
    58   28  152 1    
    59   28  153 1    
    60   29   30 am   BACKBONE|DICT|INTERRES
    61   29  154 1    
    62   30   31 2    
    63   30   32 1    
    64   32   33 1    
    65   32   34 1    
    66   32  155 1    
    67   33  156 1    
    68   33  157 1    
    69   33  158 1    
    70   34   35 am   BACKBONE|DICT|INTERRES
    71   34  159 1    
    72   35   36 2    
    73   35   37 1    
    74   37   38 1    
    75   37   39 1    
    76   37  160 1    
    77   38  161 1    
    78   38  162 1    
    79   38  163 1    
    80   39   40 am   BACKBONE|DICT|INTERRES
    81   39  164 1    
    82   40   41 2    
    83   40   42 1    
    84   42   43 1    
    85   42   44 1    
    86   42  165 1    
    87   43  166 1    
    88   43  167 1    
    89   43  168 1    
    90   44   45 am   BACKBONE|DICT|INTERRES
    91   44  169 1    
    92   45   46 2    
    93   45   47 1    
    94   47   48 1    
    95   47   49 1    
    96   47  170 1    
    97   48  171 1    
    98   48  172 1    
    99   48  173 1    
   100   49   50 am   BACKBONE|DICT|INTERRES
   101   49  174 1    
   102   50   51 2    
   103   50   52 1    
   104   52   53 1    
   105   52   54 1    
   106   52  175 1    
   107   53  176 1    
   108   53  177 1    
   109   53  178 1    
   110   54   55 am   BACKBONE|DICT|INTERRES
   111   54  179 1    
   112   55   56 2    
   113   55   57 1    
   114   57   58 1    
   115   57   59 1    
   116   57  180 1    
   117   58  181 1    
   118   58  182 1    
   119   58  183 1    
   120   59   60 am   BACKBONE|DICT|INTERRES
   121   59  184 1    
   122   60   61 2    
   123   60   62 1    
   124   62   63 1    
   125   62   64 1    
   126   62  185 1    
   127   63  186 1    
   128   63  187 1    
   129   63  188 1    
   130   64   65 am   BACKBONE|DICT|INTERRES
   131   64  189 1    
   132   65   66 2    
   133   67   68 2    
   134   67   69 am   BACKBONE|DICT|INTERRES
   135   69   70 1    
   136   69  190 1    
   137   70   71 1    
   138   70   72 1    
   139   70  191 1    
   140   71  192 1    
   141   71  193 1    
   142   71  194 1    
   143   72   73 2    
   144   72   74 am   BACKBONE|DICT|INTERRES
   145   74   75 1    
   146   74  195 1    
   147   75   76 1    
   148   75   77 1    
   149   75  196 1    
   150   76  197 1    
   151   76  198 1    
   152   76  199 1    
   153   77   78 2    
   154   77   79 am   BACKBONE|DICT|INTERRES
   155   79   80 1    
   156   79  200 1    
   157   80   81 1    
   158   80   82 1    
   159   80  201 1    
   160   81  202 1    
   161   81  203 1    
   162   81  204 1    
   163   82   83 2    
   164   82   84 am   BACKBONE|DICT|INTERRES
   165   84   85 1    
   166   84  205 1    
   167   85   86 1    
   168   85   87 1    
   169   85  206 1    
   170   86  207 1    
   171   86  208 1    
   172   86  209 1    
   173   87   88 2    
   174   87   89 am   BACKBONE|DICT|INTERRES
   175   89   90 1    
   176   89  210 1    
   177   90   91 1    
   178   90   92 1    
   179   90  211 1    
   180   91  212 1    
   181   91  213 1    
   182   91  214 1    
   183   92   93 2    
   184   92   94 am   BACKBONE|DICT|INTERRES
   185   94   95 1    
   186   94  215 1    
   187   95   96 1    
   188   95   97 1    
   189   95  216 1    
   190   96  217 1    
   191   96  218 1    
   192   96  219 1    
   193   97   98 2    
   194   97   99 am   BACKBONE|DICT|INTERRES
   195   99  100 1    
   196   99  220 1    
   197  100  101 1    
   198  100  102 1    
   199  100  221 1    
   200  101  222 1    
   201  101  223 1    
   202  101  224 1    
   203  102  103 2    
   204  102  104 am   BACKBONE|DICT|INTERRES
   205  104  105 1    
   206  104  225 1    
   207  105  106 1    
   208  105  107 1    
   209  105  226 1    
   210  106  227 1    
   211  106  228 1    
   212  106  229 1    
   213  107  108 2    
   214  107  109 am   BACKBONE|DICT|INTERRES
   215  109  110 1    
   216  109  230 1    
   217  110  111 1    
   218  110  112 1    
   219  110  231 1    
   220  111  232 1    
   221  111  233 1    
   222  111  234 1    
   223  112  113 2    
   224  112  114 am   BACKBONE|DICT|INTERRES
   225  114  115 1    
   226  114  235 1    
   227  115  116 1    
   228  115  117 1    
   229  115  236 1    
   230  116  237 1    
   231  116  238 1    
   232  116  239 1    
   233  117  118 2    
   234  117  119 am   BACKBONE|DICT|INTERRES
   235  119  120 1    
   236  119  240 1    
   237  120  121 1    
   238  120  124 1    
   239  120  241 1    
   240  121  122 am   BACKBONE|DICT|INTERRES
   241  121  123 2    
   242  122  242 1    
   243  122  243 1    
   244  124  125 1    
   245  124  244 1    
   246  124  245 1    
   247  125  126 1    
   248  126  246 1    
   249  126  247 1    
@<TRIPOS>SUBSTRUCTURE
     1 UNK         1 GROUP             0       ****    0 ROOT    
