@<TRIPOS>MOLECULE
3R540
247   249    1
SMALL
USER_CHARGES


@<TRIPOS>ATOM
      1 CA         -1.0400  -12.6344  -46.4128 C.3       0 UNK        -0.1800 
      2 C          -0.1610  -12.0839  -47.5256 C.2       0 UNK         0.5000 
      3 O           0.0310  -10.8713  -47.6112 O.2       0 UNK        -0.5000 
      4 N           0.3693  -12.9725  -48.3774 N.am      1 UNK        -0.5000 
      5 CA          1.1899  -12.6337  -49.5505 C.3       1 UNK         0.1400 
      6 C6          1.4261  -13.8552  -50.4741 C.3       23 UNK        -0.0398 
      7 S7         -0.1286  -14.5997  -51.0783 S.3       23 UNK        -0.2404 
      8 C8          0.4986  -15.8043  -52.3033 C.3       23 UNK        -0.0205 
      9 C9          0.6859  -17.2303  -51.7801 C.ar      23 UNK        -0.0193 
     10 C10         0.5251  -18.2995  -52.6673 C.ar      23 UNK        -0.1150 
     11 C11         0.6767  -19.6203  -52.2358 C.ar      23 UNK        -0.0193 
     12 C12         0.9890  -19.8761  -50.9001 C.ar      23 UNK        -0.1150 
     13 C13         1.1768  -18.8205  -50.0021 C.ar      23 UNK        -0.0193 
     14 C14         1.0233  -17.5049  -50.4490 C.ar      23 UNK        -0.1150 
     15 C15         1.4633  -19.0755  -48.5295 C.3       23 UNK        -0.0205 
     16 S16         2.5982  -20.4664  -48.2025 S.3       23 UNK        -0.2404 
     17 C17         2.0905  -20.8777  -46.4916 C.3       23 UNK        -0.0398 
     18 CA          1.0873  -22.0551  -46.2811 C.3       11 UNK         0.1400 
     19 N           0.3061  -21.8656  -45.0534 N.am      11 UNK        -0.5000 
     20 C          -0.4804  -22.7873  -44.4809 C.2       10 UNK         0.5000 
     21 O          -0.6127  -23.9340  -44.9070 O.2       10 UNK        -0.5000 
     22 CA         -1.2895  -22.3383  -43.2505 C.3       10 UNK         0.1400 
     23 CB         -0.4173  -22.3283  -41.9860 C.3       10 UNK        -0.1800 
     24 N          -1.9030  -21.0229  -43.4367 N.am      10 UNK        -0.5000 
     25 C          -2.8867  -20.7665  -44.3111 C.2       9 UNK         0.5000 
     26 O          -3.3950  -21.6187  -45.0385 O.2       9 UNK        -0.5000 
     27 CA         -3.3456  -19.3011  -44.4274 C.3       9 UNK         0.1400 
     28 CB         -4.3008  -18.9394  -43.2805 C.3       9 UNK        -0.1800 
     29 N          -2.2258  -18.3577  -44.4559 N.am      9 UNK        -0.5000 
     30 C          -1.2707  -18.3591  -45.3965 C.2       8 UNK         0.5000 
     31 O          -1.2681  -19.1247  -46.3555 O.2       8 UNK        -0.5000 
     32 CA         -0.0823  -17.4025  -45.2113 C.3       8 UNK         0.1400 
     33 CB         -0.4085  -16.0055  -45.7519 C.3       8 UNK        -0.1800 
     34 N           0.3597  -17.3131  -43.8221 N.am      8 UNK        -0.5000 
     35 C           0.8415  -18.3392  -43.1067 C.2       7 UNK         0.5000 
     36 O           0.9842  -19.4771  -43.5541 O.2       7 UNK        -0.5000 
     37 CA          1.1868  -18.0560  -41.6376 C.3       7 UNK         0.1400 
     38 CB          2.5848  -17.4392  -41.5152 C.3       7 UNK        -0.1800 
     39 N           0.2072  -17.1649  -41.0201 N.am      7 UNK        -0.5000 
     40 C          -0.9908  -17.5635  -40.5750 C.2       6 UNK         0.5000 
     41 O          -1.3820  -18.7310  -40.6115 O.2       6 UNK        -0.5000 
     42 CA         -1.9143  -16.4649  -40.0158 C.3       6 UNK         0.1400 
     43 CB         -1.5505  -16.1391  -38.5593 C.3       6 UNK        -0.1800 
     44 N          -1.8913  -15.2330  -40.8086 N.am      6 UNK        -0.5000 
     45 C          -2.3389  -15.1436  -42.0679 C.2       5 UNK         0.5000 
     46 O          -2.7845  -16.0974  -42.7045 O.2       5 UNK        -0.5000 
     47 CA         -2.2544  -13.7641  -42.7458 C.3       5 UNK         0.1400 
     48 CB         -3.4490  -12.8905  -42.3346 C.3       5 UNK        -0.1800 
     49 N          -1.0109  -13.0157  -42.5263 N.am      5 UNK        -0.5000 
     50 C           0.2324  -13.4747  -42.7221 C.2       4 UNK         0.5000 
     51 O           0.5046  -14.6626  -42.9052 O.2       4 UNK        -0.5000 
     52 CA          1.3401  -12.4066  -42.7736 C.3       4 UNK         0.1400 
     53 CB          1.7535  -11.9347  -41.3653 C.3       4 UNK        -0.1800 
     54 N           2.4734  -12.8587  -43.5929 N.am      4 UNK        -0.5000 
     55 C           3.4641  -13.7045  -43.2715 C.2       3 UNK         0.5000 
     56 O           3.7105  -14.0861  -42.1273 O.2       3 UNK        -0.5000 
     57 CA          4.3258  -14.2473  -44.4326 C.3       3 UNK         0.1400 
     58 CB          4.0615  -15.7501  -44.6312 C.3       3 UNK        -0.1800 
     59 N           4.1250  -13.5766  -45.7225 N.am      3 UNK        -0.5000 
     60 C           4.5703  -12.3491  -46.0300 C.2       2 UNK         0.5000 
     61 O           5.1185  -11.5990  -45.2227 O.2       2 UNK        -0.5000 
     62 CA          4.3708  -11.8855  -47.4814 C.3       2 UNK         0.1400 
     63 CB          5.5703  -12.3282  -48.3437 C.3       2 UNK        -0.1800 
     64 N           3.1099  -12.3915  -48.0313 N.am      2 UNK        -0.5000 
     65 C           2.5429  -11.9879  -49.1765 C.2       1 UNK         0.5000 
     66 O           3.0348  -11.1428  -49.9257 O.2       1 UNK        -0.5000 
     67 C           0.1696  -22.3711  -47.4874 C.2       11 UNK         0.5000 
     68 O           0.4352  -23.3225  -48.2222 O.2       11 UNK        -0.5000 
     69 N          -0.9160  -21.6026  -47.6431 N.am      12 UNK        -0.5000 
     70 CA         -1.9126  -21.7793  -48.6963 C.3       12 UNK         0.1400 
     71 CB         -2.8463  -20.5620  -48.7081 C.3       12 UNK        -0.1800 
     72 C          -2.6992  -23.0946  -48.5461 C.2       12 UNK         0.5000 
     73 O          -2.9594  -23.7656  -49.5451 O.2       12 UNK        -0.5000 
     74 N          -3.0356  -23.4681  -47.3025 N.am      13 UNK        -0.5000 
     75 CA         -3.6673  -24.7464  -46.9731 C.3       13 UNK         0.1400 
     76 CB         -4.1279  -24.7462  -45.5089 C.3       13 UNK        -0.1800 
     77 C          -2.7507  -25.9486  -47.2649 C.2       13 UNK         0.5000 
     78 O          -3.2220  -26.9409  -47.8193 O.2       13 UNK        -0.5000 
     79 N          -1.4534  -25.8245  -46.9476 N.am      14 UNK        -0.5000 
     80 CA         -0.4185  -26.8104  -47.2767 C.3       14 UNK         0.1400 
     81 CB          0.8895  -26.4475  -46.5578 C.3       14 UNK        -0.1800 
     82 C          -0.1909  -26.9581  -48.7950 C.2       14 UNK         0.5000 
     83 O           0.0700  -28.0656  -49.2653 O.2       14 UNK        -0.5000 
     84 N          -0.3462  -25.8534  -49.5378 N.am      15 UNK        -0.5000 
     85 CA         -0.3492  -25.8070  -51.0026 C.3       15 UNK         0.1400 
     86 CB         -0.0540  -24.3672  -51.4557 C.3       15 UNK        -0.1800 
     87 C          -1.6599  -26.3281  -51.6371 C.2       15 UNK         0.5000 
     88 O          -1.7322  -26.4188  -52.8632 O.2       15 UNK        -0.5000 
     89 N          -2.6597  -26.6639  -50.8060 N.am      16 UNK        -0.5000 
     90 CA         -3.9862  -27.1846  -51.1500 C.3       16 UNK         0.1400 
     91 CB         -3.8795  -28.5622  -51.8375 C.3       16 UNK        -0.1800 
     92 C          -4.8552  -26.1780  -51.9317 C.2       16 UNK         0.5000 
     93 O          -5.6538  -26.5803  -52.7803 O.2       16 UNK        -0.5000 
     94 N          -4.7008  -24.8862  -51.6213 N.am      17 UNK        -0.5000 
     95 CA         -5.4232  -23.7828  -52.2422 C.3       17 UNK         0.1400 
     96 CB         -4.7104  -23.3626  -53.5411 C.3       17 UNK        -0.1800 
     97 C          -5.5205  -22.6474  -51.2169 C.2       17 UNK         0.5000 
     98 O          -4.9032  -21.6003  -51.4034 O.2       17 UNK        -0.5000 
     99 N          -6.2673  -22.8968  -50.1301 N.am      18 UNK        -0.5000 
    100 CA        -6.3589  -22.0863  -48.9047 C.3       18 UNK         0.1400 
    101 CB        -7.3580  -22.7525  -47.9471 C.3       18 UNK        -0.1800 
    102 C         -6.6948  -20.5892  -49.0805 C.2       18 UNK         0.5000 
    103 O         -6.3760  -19.7946  -48.1965 O.2       18 UNK        -0.5000 
    104 N         -7.2996  -20.2223  -50.2170 N.am      19 UNK        -0.5000 
    105 CA        -7.5556  -18.8387  -50.6282 C.3       19 UNK         0.1400 
    106 CB        -8.6603  -18.8542  -51.6982 C.3       19 UNK        -0.1800 
    107 C         -6.3023  -18.0993  -51.1557 C.2       19 UNK         0.5000 
    108 O         -6.4042  -16.9160  -51.4801 O.2       19 UNK        -0.5000 
    109 N         -5.1695  -18.8102  -51.2748 N.am      20 UNK        -0.5000 
    110 CA        -3.9080  -18.4189  -51.9169 C.3       20 UNK         0.1400 
    111 CB        -3.2962  -17.1501  -51.2894 C.3       20 UNK        -0.1800 
    112 C         -4.0315  -18.3529  -53.4537 C.2       20 UNK         0.5000 
    113 O         -3.2407  -17.6790  -54.1169 O.2       20 UNK        -0.5000 
    114 N         -5.0020  -19.1022  -54.0018 N.am      21 UNK        -0.5000 
    115 CA        -5.2904  -19.2327  -55.4344 C.3       21 UNK         0.1400 
    116 CB        -6.6266  -19.9717  -55.6066 C.3       21 UNK        -0.1800 
    117 C         -4.1672  -19.9271  -56.2326 C.2       21 UNK         0.5000 
    118 O         -4.1294  -19.8134  -57.4582 O.2       21 UNK        -0.5000 
    119 N         -3.2595  -20.6011  -55.5177 N.am      22 UNK        -0.5000 
    120 CA        -1.9610  -21.0876  -55.9995 C.3       22 UNK         0.1400 
    121 C         -0.9715  -19.9701  -56.4531 C.2       22 UNK         0.5000 
    122 N         -1.1635  -18.7082  -56.0814 N.am      22 UNK        -0.7600 
    123 O         -0.0124  -20.2571  -57.1639 O.2       22 UNK        -0.5000 
    124 C124       -1.3044  -22.0358  -54.9591 C.3       23 UNK        -0.0398 
    125 S125       -1.2244  -21.3199  -53.2749 S.3       23 UNK        -0.2404 
    126 C126        0.5051  -20.7675  -53.2155 C.3       23 UNK        -0.0205 
    127 H127       -1.7660  -11.8874  -46.0916 H         1 UNK         0.0600 
    128 H128       -0.4288  -12.9079  -45.5546 H         1 UNK         0.0600 
    129 H129       -1.5908  -13.5142  -46.7451 H         1 UNK         0.0600 
    130 H130        0.1409  -13.9508  -48.2776 H         1 UNK         0.3000 
    131 H131        0.6348  -11.8878  -50.1239 H         1 UNK         0.0600 
    132 H132        2.0114  -13.5539  -51.3452 H         1 UNK         0.0800 
    133 H133        2.0141  -14.6170  -49.9611 H         1 UNK         0.0800 
    134 H134        1.4407  -15.4545  -52.7266 H         1 UNK         0.0800 
    135 H135       -0.2161  -15.8201  -53.1280 H         1 UNK         0.0800 
    136 H136        0.2725  -18.1055  -53.7001 H         1 UNK         0.1150 
    137 H137        1.0787  -20.8989  -50.5615 H         1 UNK         0.1150 
    138 H138        1.1472  -16.6983  -49.7437 H         1 UNK         0.1150 
    139 H139        1.8671  -18.1813  -48.0524 H         1 UNK         0.0800 
    140 H140        0.5040  -19.2741  -48.0614 H         1 UNK         0.0800 
    141 H141        1.6867  -19.9662  -46.0526 H         1 UNK         0.0800 
    142 H142        2.9958  -21.0793  -45.9178 H         1 UNK         0.0800 
    143 H143        1.6887  -22.9542  -46.1300 H         1 UNK         0.0600 
    144 H144        0.3840  -20.9576  -44.6027 H         1 UNK         0.3000 
    145 H145       -2.0916  -23.0636  -43.0991 H         1 UNK         0.0600 
    146 H146       -1.0038  -22.0654  -41.1054 H         1 UNK         0.0600 
    147 H147        0.0174  -23.3122  -41.8060 H         1 UNK         0.0600 
    148 H148        0.4046  -21.6165  -42.0633 H         1 UNK         0.0600 
    149 H149       -1.5232  -20.2595  -42.8945 H         1 UNK         0.3000 
    150 H150       -3.8902  -19.2001  -45.3687 H         1 UNK         0.0600 
    151 H151       -5.1322  -19.6433  -43.2257 H         1 UNK         0.0600 
    152 H152       -4.7264  -17.9460  -43.4229 H         1 UNK         0.0600 
    153 H153       -3.7933  -18.9503  -42.3150 H         1 UNK         0.0600 
    154 H154       -2.1986  -17.6582  -43.7196 H         1 UNK         0.3000 
    155 H155        0.7530  -17.7948  -45.7929 H         1 UNK         0.0600 
    156 H156       -1.2262  -15.5464  -45.1973 H         1 UNK         0.0600 
    157 H157       -0.7055  -16.0528  -46.8004 H         1 UNK         0.0600 
    158 H158        0.4570  -15.3463  -45.6855 H         1 UNK         0.0600 
    159 H159        0.3108  -16.3927  -43.3889 H         1 UNK         0.3000 
    160 H160        1.1905  -19.0091  -41.1041 H         1 UNK         0.0600 
    161 H161        2.6276  -16.4648  -41.9992 H         1 UNK         0.0600 
    162 H162        3.3380  -18.0754  -41.9816 H         1 UNK         0.0600 
    163 H163        2.8686  -17.3067  -40.4712 H         1 UNK         0.0600 
    164 H164        0.4224  -16.1773  -41.0249 H         1 UNK         0.3000 
    165 H165       -2.9346  -16.8544  -40.0313 H         1 UNK         0.0600 
    166 H166       -2.2551  -15.4288  -38.1264 H         1 UNK         0.0600 
    167 H167       -1.5749  -17.0373  -37.9408 H         1 UNK         0.0600 
    168 H168       -0.5501  -15.7119  -38.4787 H         1 UNK         0.0600 
    169 H169       -1.5222  -14.4045  -40.3657 H         1 UNK         0.3000 
    170 H170       -2.3296  -13.9360  -43.8207 H         1 UNK         0.0600 
    171 H171       -4.3924  -13.4126  -42.5013 H         1 UNK         0.0600 
    172 H172       -3.4054  -12.6200  -41.2789 H         1 UNK         0.0600 
    173 H173       -3.4838  -11.9693  -42.9166 H         1 UNK         0.0600 
    174 H174       -1.1285  -12.0281  -42.3516 H         1 UNK         0.3000 
    175 H175        0.9331  -11.5437  -43.3031 H         1 UNK         0.0600 
    176 H176        2.0187  -12.7680  -40.7140 H         1 UNK         0.0600 
    177 H177        2.6041  -11.2546  -41.4088 H         1 UNK         0.0600 
    178 H178        0.9355  -11.4006  -40.8809 H         1 UNK         0.0600 
    179 H179        2.4012  -12.6245  -44.5710 H         1 UNK         0.3000 
    180 H180        5.3717  -14.1213  -44.1447 H         1 UNK         0.0600 
    181 H181        3.0127  -15.9489  -44.8569 H         1 UNK         0.0600 
    182 H182        4.3164  -16.3123  -43.7327 H         1 UNK         0.0600 
    183 H183        4.6652  -16.1572  -45.4424 H         1 UNK         0.0600 
    184 H184        3.7471  -14.1525  -46.4591 H         1 UNK         0.3000 
    185 H185        4.3269  -10.7944  -47.4716 H         1 UNK         0.0600 
    186 H186        6.5127  -12.0091  -47.8962 H         1 UNK         0.0600 
    187 H187        5.6085  -13.4128  -48.4509 H         1 UNK         0.0600 
    188 H188        5.5317  -11.8951  -49.3428 H         1 UNK         0.0600 
    189 H189        2.5919  -13.0346  -47.4523 H         1 UNK         0.3000 
    190 H190       -1.0610  -20.8119  -47.0181 H         1 UNK         0.3000 
    191 H191       -1.3893  -21.8106  -49.6542 H         1 UNK         0.0600 
    192 H192       -3.3870  -20.4567  -47.7667 H         1 UNK         0.0600 
    193 H193       -3.5821  -20.6393  -49.5037 H         1 UNK         0.0600 
    194 H194       -2.2888  -19.6409  -48.8802 H         1 UNK         0.0600 
    195 H195       -2.8445  -22.8416  -46.5267 H         1 UNK         0.3000 
    196 H196       -4.5540  -24.8492  -47.6024 H         1 UNK         0.0600 
    197 H197       -4.6026  -25.6928  -45.2480 H         1 UNK         0.0600 
    198 H198       -4.8574  -23.9568  -45.3273 H         1 UNK         0.0600 
    199 H199       -3.2939  -24.5961  -44.8233 H         1 UNK         0.0600 
    200 H200       -1.1488  -24.9985  -46.4396 H         1 UNK         0.3000 
    201 H201       -0.7521  -27.7792  -46.8995 H         1 UNK         0.0600 
    202 H202        0.7484  -26.4129  -45.4774 H         1 UNK         0.0600 
    203 H203        1.2701  -25.4771  -46.8757 H         1 UNK         0.0600 
    204 H204        1.6649  -27.1869  -46.7614 H         1 UNK         0.0600 
    205 H205       -0.4808  -24.9685  -49.0601 H         1 UNK         0.3000 
    206 H206        0.4587  -26.4449  -51.3662 H         1 UNK         0.0600 
    207 H207        0.8809  -24.0005  -51.0316 H         1 UNK         0.0600 
    208 H208        0.0365  -24.3074  -52.5409 H         1 UNK         0.0600 
    209 H209       -0.8465  -23.6811  -51.1592 H         1 UNK         0.0600 
    210 H210       -2.5035  -26.5345  -49.8142 H         1 UNK         0.3000 
    211 H211       -4.5004  -27.3388  -50.2009 H         1 UNK         0.0600 
    212 H212       -3.4422  -28.4871  -52.8334 H         1 UNK         0.0600 
    213 H213       -4.8626  -29.0213  -51.9474 H         1 UNK         0.0600 
    214 H214       -3.2668  -29.2477  -51.2520 H         1 UNK         0.0600 
    215 H215       -4.0306  -24.6191  -50.9018 H         1 UNK         0.3000 
    216 H216       -6.4425  -24.0902  -52.4848 H         1 UNK         0.0600 
    217 H217       -5.2032  -22.5080  -54.0032 H         1 UNK         0.0600 
    218 H218       -4.7051  -24.1713  -54.2718 H         1 UNK         0.0600 
    219 H219       -3.6759  -23.0833  -53.3453 H         1 UNK         0.0600 
    220 H220       -6.7360  -23.7902  -50.0896 H         1 UNK         0.3000 
    221 H221       -5.3798  -22.1220  -48.4286 H         1 UNK         0.0600 
    222 H222       -8.3581  -22.7986  -48.3799 H         1 UNK         0.0600 
    223 H223       -7.0501  -23.7683  -47.6984 H         1 UNK         0.0600 
    224 H224       -7.4305  -22.2010  -47.0086 H         1 UNK         0.0600 
    225 H225       -7.5264  -20.9430  -50.8861 H         1 UNK         0.3000 
    226 H226       -7.9231  -18.2791  -49.7655 H         1 UNK         0.0600 
    227 H227       -8.9266  -17.8418  -52.0044 H         1 UNK         0.0600 
    228 H228       -8.3474  -19.3954  -52.5920 H         1 UNK         0.0600 
    229 H229       -9.5684  -19.3248  -51.3209 H         1 UNK         0.0600 
    230 H230       -5.2091  -19.7964  -51.0290 H         1 UNK         0.3000 
    231 H231       -3.2137  -19.2365  -51.7169 H         1 UNK         0.0600 
    232 H232       -3.2353  -17.2361  -50.2045 H         1 UNK         0.0600 
    233 H233       -3.8710  -16.2555  -51.5281 H         1 UNK         0.0600 
    234 H234       -2.2826  -16.9893  -51.6568 H         1 UNK         0.0600 
    235 H235       -5.5800  -19.6430  -53.3760 H         1 UNK         0.3000 
    236 H236       -5.4005  -18.2266  -55.8441 H         1 UNK         0.0600 
    237 H237       -6.8911  -20.0596  -56.6612 H         1 UNK         0.0600 
    238 H238       -6.5888  -20.9798  -55.1940 H         1 UNK         0.0600 
    239 H239       -7.4390  -19.4370  -55.1142 H         1 UNK         0.0600 
    240 H240       -3.3779  -20.6313  -54.5158 H         1 UNK         0.3000 
    241 H241       -2.1626  -21.6796  -56.8941 H         1 UNK         0.0600 
    242 H242       -1.9326  -18.4487  -55.4733 H         1 UNK         0.3800 
    243 H243       -0.5221  -18.0002  -56.3998 H         1 UNK         0.3800 
    244 H244       -0.3109  -22.3523  -55.2817 H         1 UNK         0.0800 
    245 H245       -1.8869  -22.9553  -54.8970 H         1 UNK         0.0800 
    246 H246        1.1414  -21.6082  -52.9351 H         1 UNK         0.0800 
    247 H247        0.8366  -20.4487  -54.2043 H         1 UNK         0.0800 
@<TRIPOS>BOND
     1    1    2 1    
     2    1  127 1    
     3    1  128 1    
     4    1  129 1    
     5    2    3 2    
     6    2    4 am   BACKBONE|DICT|INTERRES
     7    4    5 1    
     8    4  130 1    
     9    5    6 1    
    10    5   65 1    
    11    5  131 1    
    12    6    7 1    
    13    6  132 1    
    14    6  133 1    
    15    7    8 1    
    16    8    9 1    
    17    8  134 1    
    18    8  135 1    
    19    9   10 ar   
    20    9   14 ar   
    21   10   11 ar   
    22   10  136 1    
    23   11   12 ar   
    24   11  126 1    
    25   12   13 ar   
    26   12  137 1    
    27   13   14 ar   
    28   13   15 1    
    29   14  138 1    
    30   15   16 1    
    31   15  139 1    
    32   15  140 1    
    33   16   17 1    
    34   17   18 1    
    35   17  141 1    
    36   17  142 1    
    37   18   19 1    
    38   18   67 1    
    39   18  143 1    
    40   19   20 am   BACKBONE|DICT|INTERRES
    41   19  144 1    
    42   20   21 2    
    43   20   22 1    
    44   22   23 1    
    45   22   24 1    
    46   22  145 1    
    47   23  146 1    
    48   23  147 1    
    49   23  148 1    
    50   24   25 am   BACKBONE|DICT|INTERRES
    51   24  149 1    
    52   25   26 2    
    53   25   27 1    
    54   27   28 1    
    55   27   29 1    
    56   27  150 1    
    57   28  151 1    
    58   28  152 1    
    59   28  153 1    
    60   29   30 am   BACKBONE|DICT|INTERRES
    61   29  154 1    
    62   30   31 2    
    63   30   32 1    
    64   32   33 1    
    65   32   34 1    
    66   32  155 1    
    67   33  156 1    
    68   33  157 1    
    69   33  158 1    
    70   34   35 am   BACKBONE|DICT|INTERRES
    71   34  159 1    
    72   35   36 2    
    73   35   37 1    
    74   37   38 1    
    75   37   39 1    
    76   37  160 1    
    77   38  161 1    
    78   38  162 1    
    79   38  163 1    
    80   39   40 am   BACKBONE|DICT|INTERRES
    81   39  164 1    
    82   40   41 2    
    83   40   42 1    
    84   42   43 1    
    85   42   44 1    
    86   42  165 1    
    87   43  166 1    
    88   43  167 1    
    89   43  168 1    
    90   44   45 am   BACKBONE|DICT|INTERRES
    91   44  169 1    
    92   45   46 2    
    93   45   47 1    
    94   47   48 1    
    95   47   49 1    
    96   47  170 1    
    97   48  171 1    
    98   48  172 1    
    99   48  173 1    
   100   49   50 am   BACKBONE|DICT|INTERRES
   101   49  174 1    
   102   50   51 2    
   103   50   52 1    
   104   52   53 1    
   105   52   54 1    
   106   52  175 1    
   107   53  176 1    
   108   53  177 1    
   109   53  178 1    
   110   54   55 am   BACKBONE|DICT|INTERRES
   111   54  179 1    
   112   55   56 2    
   113   55   57 1    
   114   57   58 1    
   115   57   59 1    
   116   57  180 1    
   117   58  181 1    
   118   58  182 1    
   119   58  183 1    
   120   59   60 am   BACKBONE|DICT|INTERRES
   121   59  184 1    
   122   60   61 2    
   123   60   62 1    
   124   62   63 1    
   125   62   64 1    
   126   62  185 1    
   127   63  186 1    
   128   63  187 1    
   129   63  188 1    
   130   64   65 am   BACKBONE|DICT|INTERRES
   131   64  189 1    
   132   65   66 2    
   133   67   68 2    
   134   67   69 am   BACKBONE|DICT|INTERRES
   135   69   70 1    
   136   69  190 1    
   137   70   71 1    
   138   70   72 1    
   139   70  191 1    
   140   71  192 1    
   141   71  193 1    
   142   71  194 1    
   143   72   73 2    
   144   72   74 am   BACKBONE|DICT|INTERRES
   145   74   75 1    
   146   74  195 1    
   147   75   76 1    
   148   75   77 1    
   149   75  196 1    
   150   76  197 1    
   151   76  198 1    
   152   76  199 1    
   153   77   78 2    
   154   77   79 am   BACKBONE|DICT|INTERRES
   155   79   80 1    
   156   79  200 1    
   157   80   81 1    
   158   80   82 1    
   159   80  201 1    
   160   81  202 1    
   161   81  203 1    
   162   81  204 1    
   163   82   83 2    
   164   82   84 am   BACKBONE|DICT|INTERRES
   165   84   85 1    
   166   84  205 1    
   167   85   86 1    
   168   85   87 1    
   169   85  206 1    
   170   86  207 1    
   171   86  208 1    
   172   86  209 1    
   173   87   88 2    
   174   87   89 am   BACKBONE|DICT|INTERRES
   175   89   90 1    
   176   89  210 1    
   177   90   91 1    
   178   90   92 1    
   179   90  211 1    
   180   91  212 1    
   181   91  213 1    
   182   91  214 1    
   183   92   93 2    
   184   92   94 am   BACKBONE|DICT|INTERRES
   185   94   95 1    
   186   94  215 1    
   187   95   96 1    
   188   95   97 1    
   189   95  216 1    
   190   96  217 1    
   191   96  218 1    
   192   96  219 1    
   193   97   98 2    
   194   97   99 am   BACKBONE|DICT|INTERRES
   195   99  100 1    
   196   99  220 1    
   197  100  101 1    
   198  100  102 1    
   199  100  221 1    
   200  101  222 1    
   201  101  223 1    
   202  101  224 1    
   203  102  103 2    
   204  102  104 am   BACKBONE|DICT|INTERRES
   205  104  105 1    
   206  104  225 1    
   207  105  106 1    
   208  105  107 1    
   209  105  226 1    
   210  106  227 1    
   211  106  228 1    
   212  106  229 1    
   213  107  108 2    
   214  107  109 am   BACKBONE|DICT|INTERRES
   215  109  110 1    
   216  109  230 1    
   217  110  111 1    
   218  110  112 1    
   219  110  231 1    
   220  111  232 1    
   221  111  233 1    
   222  111  234 1    
   223  112  113 2    
   224  112  114 am   BACKBONE|DICT|INTERRES
   225  114  115 1    
   226  114  235 1    
   227  115  116 1    
   228  115  117 1    
   229  115  236 1    
   230  116  237 1    
   231  116  238 1    
   232  116  239 1    
   233  117  118 2    
   234  117  119 am   BACKBONE|DICT|INTERRES
   235  119  120 1    
   236  119  240 1    
   237  120  121 1    
   238  120  124 1    
   239  120  241 1    
   240  121  122 am   BACKBONE|DICT|INTERRES
   241  121  123 2    
   242  122  242 1    
   243  122  243 1    
   244  124  125 1    
   245  124  244 1    
   246  124  245 1    
   247  125  126 1    
   248  126  246 1    
   249  126  247 1    
@<TRIPOS>SUBSTRUCTURE
     1 UNK         1 GROUP             0       ****    0 ROOT    
