@<TRIPOS>MOLECULE
3R540
247   249    1
SMALL
USER_CHARGES


@<TRIPOS>ATOM
      1 CA          5.7669  -19.5270  -46.4614 C.3       0 UNK        -0.1800 
      2 C           4.9717  -18.2406  -46.2881 C.2       0 UNK         0.5000 
      3 O           4.3563  -18.0410  -45.2427 O.2       0 UNK        -0.5000 
      4 N           4.9743  -17.3812  -47.3143 N.am      1 UNK        -0.5000 
      5 CA          4.2725  -16.0937  -47.3484 C.3       1 UNK         0.1400 
      6 C6          4.2978  -15.4883  -48.7762 C.3       23 UNK        -0.0398 
      7 S7          2.8270  -14.4682  -49.1406 S.3       23 UNK        -0.2404 
      8 C8          2.4072  -14.9973  -50.8333 C.3       23 UNK        -0.0205 
      9 C9          1.5765  -16.2715  -50.8413 C.ar      23 UNK        -0.0193 
     10 C10         0.1805  -16.1981  -50.8437 C.ar      23 UNK        -0.1150 
     11 C11        -0.5916  -17.3628  -50.8566 C.ar      23 UNK        -0.0193 
     12 C12         0.0433  -18.6086  -50.8278 C.ar      23 UNK        -0.1150 
     13 C13         1.4382  -18.6951  -50.8380 C.ar      23 UNK        -0.0193 
     14 C14         2.1974  -17.5235  -50.8646 C.ar      23 UNK        -0.1150 
     15 C15         2.1269  -20.0530  -50.8250 C.3       23 UNK        -0.0205 
     16 S16         3.1472  -20.3151  -49.3325 S.3       23 UNK        -0.2404 
     17 C17         1.9337  -20.0946  -47.9866 C.3       23 UNK        -0.0398 
     18 CA          1.3453  -21.4167  -47.4423 C.3       11 UNK         0.1400 
     19 N           0.6590  -21.1995  -46.1676 N.am      11 UNK        -0.5000 
     20 C           0.1374  -22.1579  -45.3907 C.2       10 UNK         0.5000 
     21 O           0.2464  -23.3622  -45.6208 O.2       10 UNK        -0.5000 
     22 CA         -0.6906  -21.6868  -44.1813 C.3       10 UNK         0.1400 
     23 CB          0.2222  -21.3375  -42.9968 C.3       10 UNK        -0.1800 
     24 N          -1.5538  -20.5462  -44.5017 N.am      10 UNK        -0.5000 
     25 C          -2.5745  -20.5948  -45.3705 C.2       9 UNK         0.5000 
     26 O          -2.9226  -21.6228  -45.9482 O.2       9 UNK        -0.5000 
     27 CA         -3.3084  -19.2779  -45.6826 C.3       9 UNK         0.1400 
     28 CB         -4.3383  -18.9521  -44.5917 C.3       9 UNK        -0.1800 
     29 N          -2.3994  -18.1463  -45.8614 N.am      9 UNK        -0.5000 
     30 C          -1.4987  -18.0456  -46.8494 C.2       8 UNK         0.5000 
     31 O          -1.3771  -18.8818  -47.7439 O.2       8 UNK        -0.5000 
     32 CA         -0.5295  -16.8475  -46.7885 C.3       8 UNK         0.1400 
     33 CB         -1.1789  -15.5679  -47.3333 C.3       8 UNK        -0.1800 
     34 N          -0.0416  -16.5955  -45.4323 N.am      8 UNK        -0.5000 
     35 C           0.6897  -17.4615  -44.7173 C.2       7 UNK         0.5000 
     36 O           1.0687  -18.5511  -45.1434 O.2       7 UNK        -0.5000 
     37 CA          0.9800  -17.0686  -43.2603 C.3       7 UNK         0.1400 
     38 CB          2.1148  -16.0392  -43.1833 C.3       7 UNK        -0.1800 
     39 N          -0.2127  -16.5317  -42.6044 N.am      7 UNK        -0.5000 
     40 C          -1.2763  -17.2724  -42.2599 C.2       6 UNK         0.5000 
     41 O          -1.3443  -18.4878  -42.4352 O.2       6 UNK        -0.5000 
     42 CA         -2.4813  -16.5320  -41.6497 C.3       6 UNK         0.1400 
     43 CB         -2.3246  -16.4146  -40.1265 C.3       6 UNK        -0.1800 
     44 N          -2.6841  -15.1990  -42.2164 N.am      6 UNK        -0.5000 
     45 C          -2.9844  -14.9474  -43.4986 C.2       5 UNK         0.5000 
     46 O          -3.1674  -15.8247  -44.3411 O.2       5 UNK        -0.5000 
     47 CA         -3.0402  -13.4663  -43.9193 C.3       5 UNK         0.1400 
     48 CB         -4.4768  -12.9329  -43.8209 C.3       5 UNK        -0.1800 
     49 N          -2.1480  -12.6069  -43.1337 N.am      5 UNK        -0.5000 
     50 C          -0.8131  -12.7136  -43.1215 C.2       4 UNK         0.5000 
     51 O          -0.1899  -13.5619  -43.7642 O.2       4 UNK        -0.5000 
     52 CA         -0.0542  -11.7637  -42.1803 C.3       4 UNK         0.1400 
     53 CB          0.4410  -12.5283  -40.9423 C.3       4 UNK        -0.1800 
     54 N           1.0907  -11.1639  -42.8582 N.am      4 UNK        -0.5000 
     55 C           1.0111  -10.1934  -43.7786 C.2       3 UNK         0.5000 
     56 O          -0.0394   -9.6276  -44.0851 O.2       3 UNK        -0.5000 
     57 CA          2.3256   -9.7824  -44.4748 C.3       3 UNK         0.1400 
     58 CB          2.9280   -8.5419  -43.7970 C.3       3 UNK        -0.1800 
     59 N           3.3315  -10.8495  -44.4990 N.am      3 UNK        -0.5000 
     60 C           3.2138  -11.9802  -45.2068 C.2       2 UNK         0.5000 
     61 O           2.2623  -12.2197  -45.9558 O.2       2 UNK        -0.5000 
     62 CA          4.3369  -13.0167  -45.0392 C.3       2 UNK         0.1400 
     63 CB          4.5327  -13.4240  -43.5645 C.3       2 UNK        -0.1800 
     64 N           3.9976  -14.1760  -45.8563 N.am      2 UNK        -0.5000 
     65 C           4.8511  -15.0879  -46.3271 C.2       1 UNK         0.5000 
     66 O           6.0506  -15.1177  -46.0382 O.2       1 UNK        -0.5000 
     67 C           0.4204  -22.1059  -48.4678 C.2       11 UNK         0.5000 
     68 O           0.8227  -23.0955  -49.0806 O.2       11 UNK        -0.5000 
     69 N          -0.8164  -21.6044  -48.6001 N.am      12 UNK        -0.5000 
     70 CA         -1.8522  -22.1921  -49.4473 C.3       12 UNK         0.1400 
     71 CB         -3.0848  -21.2848  -49.4720 C.3       12 UNK        -0.1800 
     72 C          -2.2424  -23.6112  -49.0049 C.2       12 UNK         0.5000 
     73 O          -2.3323  -24.4966  -49.8514 O.2       12 UNK        -0.5000 
     74 N          -2.4203  -23.8190  -47.6927 N.am      13 UNK        -0.5000 
     75 CA         -2.7310  -25.1180  -47.0944 C.3       13 UNK         0.1400 
     76 CB         -3.0127  -24.9483  -45.5945 C.3       13 UNK        -0.1800 
     77 C          -1.6277  -26.1649  -47.3324 C.2       13 UNK         0.5000 
     78 O          -1.9439  -27.3104  -47.6535 O.2       13 UNK        -0.5000 
     79 N          -0.3577  -25.7455  -47.2356 N.am      14 UNK        -0.5000 
     80 CA          0.8152  -26.5598  -47.5660 C.3       14 UNK         0.1400 
     81 CB          2.0890  -25.8289  -47.1159 C.3       14 UNK        -0.1800 
     82 C           0.8922  -26.9287  -49.0622 C.2       14 UNK         0.5000 
     83 O           1.3453  -28.0243  -49.3947 O.2       14 UNK        -0.5000 
     84 N           0.4129  -26.0289  -49.9313 N.am      15 UNK        -0.5000 
     85 CA          0.2652  -26.2376  -51.3739 C.3       15 UNK         0.1400 
     86 CB          0.3009  -24.8687  -52.0754 C.3       15 UNK        -0.1800 
     87 C          -1.0130  -27.0200  -51.7553 C.2       15 UNK         0.5000 
     88 O          -1.2009  -27.3119  -52.9371 O.2       15 UNK        -0.5000 
     89 N          -1.8627  -27.3396  -50.7661 N.am      16 UNK        -0.5000 
     90 CA         -3.1665  -28.0038  -50.8722 C.3       16 UNK         0.1400 
     91 CB         -3.0122  -29.4485  -51.3922 C.3       16 UNK        -0.1800 
     92 C          -4.2101  -27.1781  -51.6575 C.2       16 UNK         0.5000 
     93 O          -5.0312  -27.7452  -52.3813 O.2       16 UNK        -0.5000 
     94 N          -4.1633  -25.8525  -51.4909 N.am      17 UNK        -0.5000 
     95 CA         -5.0629  -24.8742  -52.0935 C.3       17 UNK         0.1400 
     96 CB         -4.2119  -23.8905  -52.9131 C.3       17 UNK        -0.1800 
     97 C          -5.8392  -24.1167  -51.0029 C.2       17 UNK         0.5000 
     98 O          -5.4856  -24.1765  -49.8227 O.2       17 UNK        -0.5000 
     99 N          -6.8764  -23.3848  -51.4258 N.am      18 UNK        -0.5000 
    100 CA        -7.5790  -22.4043  -50.5981 C.3       18 UNK         0.1400 
    101 CB        -8.9309  -22.0796  -51.2519 C.3       18 UNK        -0.1800 
    102 C         -6.7385  -21.1230  -50.4556 C.2       18 UNK         0.5000 
    103 O         -5.9780  -20.7909  -51.3681 O.2       18 UNK        -0.5000 
    104 N         -6.9248  -20.3916  -49.3494 N.am      19 UNK        -0.5000 
    105 CA        -6.1889  -19.1628  -49.0206 C.3       19 UNK         0.1400 
    106 CB        -6.6064  -18.6866  -47.6212 C.3       19 UNK        -0.1800 
    107 C         -6.3430  -18.0233  -50.0491 C.2       19 UNK         0.5000 
    108 O         -5.4367  -17.2020  -50.1774 O.2       19 UNK        -0.5000 
    109 N         -7.4733  -18.0041  -50.7676 N.am      20 UNK        -0.5000 
    110 CA        -7.7458  -17.0680  -51.8591 C.3       20 UNK         0.1400 
    111 CB        -9.2653  -16.8591  -51.9561 C.3       20 UNK        -0.1800 
    112 C         -7.1859  -17.5436  -53.2157 C.2       20 UNK         0.5000 
    113 O         -7.0222  -16.7190  -54.1159 O.2       20 UNK        -0.5000 
    114 N         -6.9307  -18.8520  -53.3557 N.am      21 UNK        -0.5000 
    115 CA        -6.4304  -19.4761  -54.5817 C.3       21 UNK         0.1400 
    116 CB        -7.0267  -20.8869  -54.7102 C.3       21 UNK        -0.1800 
    117 C         -4.8947  -19.5398  -54.6082 C.2       21 UNK         0.5000 
    118 O         -4.3046  -19.4203  -55.6819 O.2       21 UNK        -0.5000 
    119 N         -4.2817  -19.7432  -53.4355 N.am      22 UNK        -0.5000 
    120 CA        -2.8329  -19.7946  -53.1635 C.3       22 UNK         0.1400 
    121 C         -2.0645  -21.0097  -53.7597 C.2       22 UNK         0.5000 
    122 N         -2.5297  -21.6380  -54.8300 N.am      22 UNK        -0.7600 
    123 O         -1.0341  -21.4007  -53.2201 O.2       22 UNK        -0.5000 
    124 C124       -2.0930  -18.4719  -53.5015 C.3       23 UNK        -0.0398 
    125 S125       -2.7385  -17.0176  -52.6048 S.3       23 UNK        -0.2404 
    126 C126       -2.1103  -17.2752  -50.9120 C.3       23 UNK        -0.0205 
    127 H127        6.2429  -19.5813  -47.4408 H         1 UNK         0.0600 
    128 H128        5.1081  -20.3894  -46.3576 H         1 UNK         0.0600 
    129 H129        6.5436  -19.5947  -45.6997 H         1 UNK         0.0600 
    130 H130        5.5295  -17.5985  -48.1287 H         1 UNK         0.3000 
    131 H131        3.2367  -16.3053  -47.0707 H         1 UNK         0.0600 
    132 H132        5.1955  -14.8908  -48.9483 H         1 UNK         0.0800 
    133 H133        4.3507  -16.2862  -49.5133 H         1 UNK         0.0800 
    134 H134        3.3165  -15.1289  -51.4220 H         1 UNK         0.0800 
    135 H135        1.8504  -14.1945  -51.3190 H         1 UNK         0.0800 
    136 H136       -0.3073  -15.2334  -50.8489 H         1 UNK         0.1150 
    137 H137       -0.5496  -19.5123  -50.8176 H         1 UNK         0.1150 
    138 H138        3.2740  -17.5976  -50.8921 H         1 UNK         0.1150 
    139 H139        1.3972  -20.8591  -50.9139 H         1 UNK         0.0800 
    140 H140        2.7676  -20.1305  -51.7042 H         1 UNK         0.0800 
    141 H141        1.1443  -19.4070  -48.2865 H         1 UNK         0.0800 
    142 H142        2.4643  -19.5834  -47.1833 H         1 UNK         0.0800 
    143 H143        2.1743  -22.0980  -47.2392 H         1 UNK         0.0600 
    144 H144        0.5735  -20.2329  -45.8623 H         1 UNK         0.3000 
    145 H145       -1.3332  -22.5153  -43.8771 H         1 UNK         0.0600 
    146 H146       -0.3615  -21.0904  -42.1100 H         1 UNK         0.0600 
    147 H147        0.8656  -22.1793  -42.7381 H         1 UNK         0.0600 
    148 H148        0.8670  -20.4874  -43.2201 H         1 UNK         0.0600 
    149 H149       -1.3593  -19.6777  -44.0132 H         1 UNK         0.3000 
    150 H150       -3.8453  -19.4179  -46.6226 H         1 UNK         0.0600 
    151 H151       -5.0515  -19.7686  -44.4725 H         1 UNK         0.0600 
    152 H152       -4.9075  -18.0565  -44.8413 H         1 UNK         0.0600 
    153 H153       -3.8625  -18.7878  -43.6252 H         1 UNK         0.0600 
    154 H154       -2.4837  -17.3835  -45.1950 H         1 UNK         0.3000 
    155 H155        0.3320  -17.0843  -47.4170 H         1 UNK         0.0600 
    156 H156       -2.0464  -15.2695  -46.7446 H         1 UNK         0.0600 
    157 H157       -1.5128  -15.7074  -48.3595 H         1 UNK         0.0600 
    158 H158       -0.4715  -14.7380  -47.3348 H         1 UNK         0.0600 
    159 H159       -0.3213  -15.7262  -44.9979 H         1 UNK         0.3000 
    160 H160        1.2968  -17.9647  -42.7223 H         1 UNK         0.0600 
    161 H161        1.8867  -15.1457  -43.7638 H         1 UNK         0.0600 
    162 H162        3.0432  -16.4518  -43.5774 H         1 UNK         0.0600 
    163 H163        2.3062  -15.7351  -42.1543 H         1 UNK         0.0600 
    164 H164       -0.2553  -15.5285  -42.4910 H         1 UNK         0.3000 
    165 H165       -3.3749  -17.1239  -41.8571 H         1 UNK         0.0600 
    166 H166       -3.2079  -15.9652  -39.6723 H         1 UNK         0.0600 
    167 H167       -2.1909  -17.3970  -39.6713 H         1 UNK         0.0600 
    168 H168       -1.4604  -15.8067  -39.8554 H         1 UNK         0.0600 
    169 H169       -2.5577  -14.4156  -41.5934 H         1 UNK         0.3000 
    170 H170       -2.7248  -13.4110  -44.9633 H         1 UNK         0.0600 
    171 H171       -5.1602  -13.5412  -44.4152 H         1 UNK         0.0600 
    172 H172       -4.8404  -12.9402  -42.7926 H         1 UNK         0.0600 
    173 H173       -4.5450  -11.9113  -44.1951 H         1 UNK         0.0600 
    174 H174       -2.5899  -11.8899  -42.5761 H         1 UNK         0.3000 
    175 H175       -0.7244  -10.9668  -41.8507 H         1 UNK         0.0600 
    176 H176        1.1284  -13.3317  -41.2114 H         1 UNK         0.0600 
    177 H177        0.9578  -11.8638  -40.2496 H         1 UNK         0.0600 
    178 H178       -0.3921  -12.9771  -40.3998 H         1 UNK         0.0600 
    179 H179        1.9878  -11.5944  -42.6961 H         1 UNK         0.3000 
    180 H180        2.0815   -9.5219  -45.5070 H         1 UNK         0.0600 
    181 H181        3.2101   -8.7449  -42.7632 H         1 UNK         0.0600 
    182 H182        2.2141   -7.7172  -43.7864 H         1 UNK         0.0600 
    183 H183        3.8154   -8.1943  -44.3264 H         1 UNK         0.0600 
    184 H184        4.1452  -10.7142  -43.9164 H         1 UNK         0.3000 
    185 H185        5.2599  -12.5763  -45.4216 H         1 UNK         0.0600 
    186 H186        5.1921  -14.2864  -43.4674 H         1 UNK         0.0600 
    187 H187        4.9844  -12.6131  -42.9927 H         1 UNK         0.0600 
    188 H188        3.5873  -13.6695  -43.0828 H         1 UNK         0.0600 
    189 H189        3.0457  -14.1477  -46.2051 H         1 UNK         0.3000 
    190 H190       -1.0654  -20.7593  -48.0931 H         1 UNK         0.3000 
    191 H191       -1.4530  -22.2504  -50.4621 H         1 UNK         0.0600 
    192 H192       -3.5926  -21.2608  -48.5081 H         1 UNK         0.0600 
    193 H193       -3.7992  -21.6444  -50.2110 H         1 UNK         0.0600 
    194 H194       -2.8218  -20.2634  -49.7349 H         1 UNK         0.0600 
    195 H195       -2.3868  -23.0221  -47.0614 H         1 UNK         0.3000 
    196 H196       -3.6428  -25.4849  -47.5706 H         1 UNK         0.0600 
    197 H197       -3.2822  -25.9015  -45.1380 H         1 UNK         0.0600 
    198 H198       -3.8411  -24.2604  -45.4247 H         1 UNK         0.0600 
    199 H199       -2.1434  -24.5635  -45.0619 H         1 UNK         0.0600 
    200 H200       -0.1797  -24.7970  -46.9170 H         1 UNK         0.3000 
    201 H201        0.7426  -27.4915  -47.0013 H         1 UNK         0.0600 
    202 H202        2.0698  -25.6278  -46.0446 H         1 UNK         0.0600 
    203 H203        2.2117  -24.8764  -47.6315 H         1 UNK         0.0600 
    204 H204        2.9765  -26.4293  -47.3191 H         1 UNK         0.0600 
    205 H205        0.0943  -25.1352  -49.5745 H         1 UNK         0.3000 
    206 H206        1.1174  -26.8189  -51.7316 H         1 UNK         0.0600 
    207 H207        1.2068  -24.3175  -51.8223 H         1 UNK         0.0600 
    208 H208        0.2828  -24.9825  -53.1598 H         1 UNK         0.0600 
    209 H209       -0.5526  -24.2488  -51.8006 H         1 UNK         0.0600 
    210 H210       -1.6207  -27.0297  -49.8335 H         1 UNK         0.3000 
    211 H211       -3.5493  -28.0674  -49.8528 H         1 UNK         0.0600 
    212 H212       -2.6983  -29.4741  -52.4360 H         1 UNK         0.0600 
    213 H213       -3.9555  -29.9912  -51.3226 H         1 UNK         0.0600 
    214 H214       -2.2776  -30.0013  -50.8065 H         1 UNK         0.0600 
    215 H215       -3.4832  -25.4598  -50.8402 H         1 UNK         0.3000 
    216 H216       -5.7834  -25.3613  -52.7534 H         1 UNK         0.0600 
    217 H217       -4.8299  -23.1388  -53.4049 H         1 UNK         0.0600 
    218 H218       -3.6510  -24.4084  -53.6911 H         1 UNK         0.0600 
    219 H219       -3.4943  -23.3621  -52.2837 H         1 UNK         0.0600 
    220 H220       -7.0904  -23.3682  -52.4116 H         1 UNK         0.3000 
    221 H221       -7.7558  -22.8291  -49.6076 H         1 UNK         0.0600 
    222 H222       -8.8076  -21.6356  -52.2405 H         1 UNK         0.0600 
    223 H223       -9.5400  -22.9770  -51.3621 H         1 UNK         0.0600 
    224 H224       -9.5013  -21.3753  -50.6451 H         1 UNK         0.0600 
    225 H225       -7.5841  -20.7148  -48.6560 H         1 UNK         0.3000 
    226 H226       -5.1281  -19.4134  -48.9864 H         1 UNK         0.0600 
    227 H227       -6.4261  -19.4566  -46.8710 H         1 UNK         0.0600 
    228 H228       -6.0378  -17.8046  -47.3227 H         1 UNK         0.0600 
    229 H229       -7.6643  -18.4236  -47.5852 H         1 UNK         0.0600 
    230 H230       -8.1757  -18.7036  -50.5791 H         1 UNK         0.3000 
    231 H231       -7.2858  -16.1037  -51.6323 H         1 UNK         0.0600 
    232 H232       -9.6698  -16.4677  -51.0224 H         1 UNK         0.0600 
    233 H233       -9.7865  -17.7896  -52.1849 H         1 UNK         0.0600 
    234 H234       -9.5124  -16.1429  -52.7409 H         1 UNK         0.0600 
    235 H235       -7.0000  -19.4524  -52.5445 H         1 UNK         0.3000 
    236 H236       -6.7558  -18.8963  -55.4481 H         1 UNK         0.0600 
    237 H237       -6.6960  -21.3673  -55.6319 H         1 UNK         0.0600 
    238 H238       -6.7292  -21.5294  -53.8819 H         1 UNK         0.0600 
    239 H239       -8.1160  -20.8531  -54.7345 H         1 UNK         0.0600 
    240 H240       -4.8716  -19.9285  -52.6293 H         1 UNK         0.3000 
    241 H241       -2.7676  -19.9348  -52.0859 H         1 UNK         0.0600 
    242 H242       -3.3230  -21.2527  -55.3237 H         1 UNK         0.3800 
    243 H243       -2.0286  -22.4269  -55.2048 H         1 UNK         0.3800 
    244 H244       -2.1699  -18.2626  -54.5690 H         1 UNK         0.0800 
    245 H245       -1.0236  -18.5567  -53.3086 H         1 UNK         0.0800 
    246 H246       -2.5652  -18.1663  -50.4835 H         1 UNK         0.0800 
    247 H247       -2.4567  -16.4458  -50.2961 H         1 UNK         0.0800 
@<TRIPOS>BOND
     1    1    2 1    
     2    1  127 1    
     3    1  128 1    
     4    1  129 1    
     5    2    3 2    
     6    2    4 am   BACKBONE|DICT|INTERRES
     7    4    5 1    
     8    4  130 1    
     9    5    6 1    
    10    5   65 1    
    11    5  131 1    
    12    6    7 1    
    13    6  132 1    
    14    6  133 1    
    15    7    8 1    
    16    8    9 1    
    17    8  134 1    
    18    8  135 1    
    19    9   10 ar   
    20    9   14 ar   
    21   10   11 ar   
    22   10  136 1    
    23   11   12 ar   
    24   11  126 1    
    25   12   13 ar   
    26   12  137 1    
    27   13   14 ar   
    28   13   15 1    
    29   14  138 1    
    30   15   16 1    
    31   15  139 1    
    32   15  140 1    
    33   16   17 1    
    34   17   18 1    
    35   17  141 1    
    36   17  142 1    
    37   18   19 1    
    38   18   67 1    
    39   18  143 1    
    40   19   20 am   BACKBONE|DICT|INTERRES
    41   19  144 1    
    42   20   21 2    
    43   20   22 1    
    44   22   23 1    
    45   22   24 1    
    46   22  145 1    
    47   23  146 1    
    48   23  147 1    
    49   23  148 1    
    50   24   25 am   BACKBONE|DICT|INTERRES
    51   24  149 1    
    52   25   26 2    
    53   25   27 1    
    54   27   28 1    
    55   27   29 1    
    56   27  150 1    
    57   28  151 1    
    58   28  152 1    
    59   28  153 1    
    60   29   30 am   BACKBONE|DICT|INTERRES
    61   29  154 1    
    62   30   31 2    
    63   30   32 1    
    64   32   33 1    
    65   32   34 1    
    66   32  155 1    
    67   33  156 1    
    68   33  157 1    
    69   33  158 1    
    70   34   35 am   BACKBONE|DICT|INTERRES
    71   34  159 1    
    72   35   36 2    
    73   35   37 1    
    74   37   38 1    
    75   37   39 1    
    76   37  160 1    
    77   38  161 1    
    78   38  162 1    
    79   38  163 1    
    80   39   40 am   BACKBONE|DICT|INTERRES
    81   39  164 1    
    82   40   41 2    
    83   40   42 1    
    84   42   43 1    
    85   42   44 1    
    86   42  165 1    
    87   43  166 1    
    88   43  167 1    
    89   43  168 1    
    90   44   45 am   BACKBONE|DICT|INTERRES
    91   44  169 1    
    92   45   46 2    
    93   45   47 1    
    94   47   48 1    
    95   47   49 1    
    96   47  170 1    
    97   48  171 1    
    98   48  172 1    
    99   48  173 1    
   100   49   50 am   BACKBONE|DICT|INTERRES
   101   49  174 1    
   102   50   51 2    
   103   50   52 1    
   104   52   53 1    
   105   52   54 1    
   106   52  175 1    
   107   53  176 1    
   108   53  177 1    
   109   53  178 1    
   110   54   55 am   BACKBONE|DICT|INTERRES
   111   54  179 1    
   112   55   56 2    
   113   55   57 1    
   114   57   58 1    
   115   57   59 1    
   116   57  180 1    
   117   58  181 1    
   118   58  182 1    
   119   58  183 1    
   120   59   60 am   BACKBONE|DICT|INTERRES
   121   59  184 1    
   122   60   61 2    
   123   60   62 1    
   124   62   63 1    
   125   62   64 1    
   126   62  185 1    
   127   63  186 1    
   128   63  187 1    
   129   63  188 1    
   130   64   65 am   BACKBONE|DICT|INTERRES
   131   64  189 1    
   132   65   66 2    
   133   67   68 2    
   134   67   69 am   BACKBONE|DICT|INTERRES
   135   69   70 1    
   136   69  190 1    
   137   70   71 1    
   138   70   72 1    
   139   70  191 1    
   140   71  192 1    
   141   71  193 1    
   142   71  194 1    
   143   72   73 2    
   144   72   74 am   BACKBONE|DICT|INTERRES
   145   74   75 1    
   146   74  195 1    
   147   75   76 1    
   148   75   77 1    
   149   75  196 1    
   150   76  197 1    
   151   76  198 1    
   152   76  199 1    
   153   77   78 2    
   154   77   79 am   BACKBONE|DICT|INTERRES
   155   79   80 1    
   156   79  200 1    
   157   80   81 1    
   158   80   82 1    
   159   80  201 1    
   160   81  202 1    
   161   81  203 1    
   162   81  204 1    
   163   82   83 2    
   164   82   84 am   BACKBONE|DICT|INTERRES
   165   84   85 1    
   166   84  205 1    
   167   85   86 1    
   168   85   87 1    
   169   85  206 1    
   170   86  207 1    
   171   86  208 1    
   172   86  209 1    
   173   87   88 2    
   174   87   89 am   BACKBONE|DICT|INTERRES
   175   89   90 1    
   176   89  210 1    
   177   90   91 1    
   178   90   92 1    
   179   90  211 1    
   180   91  212 1    
   181   91  213 1    
   182   91  214 1    
   183   92   93 2    
   184   92   94 am   BACKBONE|DICT|INTERRES
   185   94   95 1    
   186   94  215 1    
   187   95   96 1    
   188   95   97 1    
   189   95  216 1    
   190   96  217 1    
   191   96  218 1    
   192   96  219 1    
   193   97   98 2    
   194   97   99 am   BACKBONE|DICT|INTERRES
   195   99  100 1    
   196   99  220 1    
   197  100  101 1    
   198  100  102 1    
   199  100  221 1    
   200  101  222 1    
   201  101  223 1    
   202  101  224 1    
   203  102  103 2    
   204  102  104 am   BACKBONE|DICT|INTERRES
   205  104  105 1    
   206  104  225 1    
   207  105  106 1    
   208  105  107 1    
   209  105  226 1    
   210  106  227 1    
   211  106  228 1    
   212  106  229 1    
   213  107  108 2    
   214  107  109 am   BACKBONE|DICT|INTERRES
   215  109  110 1    
   216  109  230 1    
   217  110  111 1    
   218  110  112 1    
   219  110  231 1    
   220  111  232 1    
   221  111  233 1    
   222  111  234 1    
   223  112  113 2    
   224  112  114 am   BACKBONE|DICT|INTERRES
   225  114  115 1    
   226  114  235 1    
   227  115  116 1    
   228  115  117 1    
   229  115  236 1    
   230  116  237 1    
   231  116  238 1    
   232  116  239 1    
   233  117  118 2    
   234  117  119 am   BACKBONE|DICT|INTERRES
   235  119  120 1    
   236  119  240 1    
   237  120  121 1    
   238  120  124 1    
   239  120  241 1    
   240  121  122 am   BACKBONE|DICT|INTERRES
   241  121  123 2    
   242  122  242 1    
   243  122  243 1    
   244  124  125 1    
   245  124  244 1    
   246  124  245 1    
   247  125  126 1    
   248  126  246 1    
   249  126  247 1    
@<TRIPOS>SUBSTRUCTURE
     1 UNK         1 GROUP             0       ****    0 ROOT    
