@<TRIPOS>MOLECULE
3R540
247   249    1
SMALL
USER_CHARGES


@<TRIPOS>ATOM
      1 CA          6.4678  -13.2330  -46.2152 C.3       0 UNK        -0.1800 
      2 C           4.9832  -13.1627  -46.5402 C.2       0 UNK         0.5000 
      3 O           4.3441  -12.1428  -46.2838 O.2       0 UNK        -0.5000 
      4 N           4.4212  -14.2483  -47.0819 N.am      1 UNK        -0.5000 
      5 CA          3.0297  -14.3409  -47.5346 C.3       1 UNK         0.1400 
      6 C6          2.6285  -15.7978  -47.8864 C.3       23 UNK        -0.0398 
      7 S7          3.8608  -16.7263  -48.8690 S.3       23 UNK        -0.2404 
      8 C8          3.2426  -16.5096  -50.5671 C.3       23 UNK        -0.0205 
      9 C9          1.9016  -17.1922  -50.7781 C.ar      23 UNK        -0.0193 
     10 C10         0.7294  -16.4376  -50.8778 C.ar      23 UNK        -0.1150 
     11 C11        -0.5018  -17.0633  -51.0952 C.ar      23 UNK        -0.0193 
     12 C12        -0.5503  -18.4564  -51.2045 C.ar      23 UNK        -0.1150 
     13 C13         0.6134  -19.2248  -51.0844 C.ar      23 UNK        -0.0193 
     14 C14         1.8367  -18.5833  -50.8798 C.ar      23 UNK        -0.1150 
     15 C15         0.5705  -20.7437  -51.1981 C.3       23 UNK        -0.0205 
     16 S16        -0.7606  -21.5007  -50.2152 S.3       23 UNK        -0.2404 
     17 C17        -0.2777  -21.1165  -48.4922 C.3       23 UNK        -0.0398 
     18 CA         -0.3936  -22.3412  -47.5491 C.3       11 UNK         0.1400 
     19 N           0.1539  -22.0750  -46.2135 N.am      11 UNK        -0.5000 
     20 C           0.3487  -23.0187  -45.2784 C.2       10 UNK         0.5000 
     21 O           0.1613  -24.2191  -45.4709 O.2       10 UNK        -0.5000 
     22 CA          0.7476  -22.5449  -43.8693 C.3       10 UNK         0.1400 
     23 CB          2.2532  -22.2560  -43.7835 C.3       10 UNK        -0.1800 
     24 N          -0.0220  -21.3771  -43.4385 N.am      10 UNK        -0.5000 
     25 C          -1.3510  -21.3813  -43.2584 C.2       9 UNK         0.5000 
     26 O          -2.0469  -22.3896  -43.3681 O.2       9 UNK        -0.5000 
     27 CA         -2.0282  -20.0351  -42.9489 C.3       9 UNK         0.1400 
     28 CB         -2.0199  -19.7625  -41.4379 C.3       9 UNK        -0.1800 
     29 N          -1.4235  -18.9106  -43.6645 N.am      9 UNK        -0.5000 
     30 C          -1.4074  -18.7672  -44.9980 C.2       8 UNK         0.5000 
     31 O          -1.9397  -19.5603  -45.7750 O.2       8 UNK        -0.5000 
     32 CA         -0.6059  -17.5747  -45.5585 C.3       8 UNK         0.1400 
     33 CB         -1.4014  -16.2654  -45.4538 C.3       8 UNK        -0.1800 
     34 N           0.6870  -17.4201  -44.8895 N.am      8 UNK        -0.5000 
     35 C           1.6744  -18.3256  -44.9527 C.2       7 UNK         0.5000 
     36 O           1.6255  -19.3372  -45.6536 O.2       7 UNK        -0.5000 
     37 CA          2.8922  -18.0863  -44.0417 C.3       7 UNK         0.1400 
     38 CB          3.9180  -17.1524  -44.6999 C.3       7 UNK        -0.1800 
     39 N           2.4999  -17.5384  -42.7434 N.am      7 UNK        -0.5000 
     40 C           1.9014  -18.2517  -41.7797 C.2       6 UNK         0.5000 
     41 O           1.6415  -19.4499  -41.8813 O.2       6 UNK        -0.5000 
     42 CA          1.4940  -17.4907  -40.5043 C.3       6 UNK         0.1400 
     43 CB          2.6807  -17.3856  -39.5351 C.3       6 UNK        -0.1800 
     44 N           0.9750  -16.1504  -40.7827 N.am      6 UNK        -0.5000 
     45 C          -0.1606  -15.9013  -41.4500 C.2       5 UNK         0.5000 
     46 O          -0.9020  -16.7793  -41.8843 O.2       5 UNK        -0.5000 
     47 CA         -0.5068  -14.4271  -41.7198 C.3       5 UNK         0.1400 
     48 CB         -1.3426  -13.8501  -40.5680 C.3       5 UNK        -0.1800 
     49 N           0.6673  -13.5815  -41.9383 N.am      5 UNK        -0.5000 
     50 C           1.5500  -13.7383  -42.9322 C.2       4 UNK         0.5000 
     51 O           1.5014  -14.6500  -43.7638 O.2       4 UNK        -0.5000 
     52 CA          2.6732  -12.6924  -43.0070 C.3       4 UNK         0.1400 
     53 CB          4.0530  -13.3628  -43.0934 C.3       4 UNK        -0.1800 
     54 N           2.4583  -11.8311  -44.1659 N.am      4 UNK        -0.5000 
     55 C           1.5317  -10.8651  -44.2236 C.2       3 UNK         0.5000 
     56 O           0.8587  -10.5043  -43.2568 O.2       3 UNK        -0.5000 
     57 CA          1.2900  -10.2171  -45.5995 C.3       3 UNK         0.1400 
     58 CB          2.3710   -9.1722  -45.9166 C.3       3 UNK        -0.1800 
     59 N           1.2132  -11.1941  -46.6894 N.am      3 UNK        -0.5000 
     60 C           0.2646  -12.1360  -46.8090 C.2       2 UNK         0.5000 
     61 O          -0.6506  -12.2848  -45.9998 O.2       2 UNK        -0.5000 
     62 CA          0.3264  -13.0664  -48.0391 C.3       2 UNK         0.1400 
     63 CB         -0.9173  -12.8745  -48.9216 C.3       2 UNK        -0.1800 
     64 N           1.5147  -12.8593  -48.8747 N.am      2 UNK        -0.5000 
     65 C           2.7435  -13.3708  -48.7111 C.2       1 UNK         0.5000 
     66 O           3.6487  -13.0931  -49.4987 O.2       1 UNK        -0.5000 
     67 C          -1.8414  -22.8762  -47.4658 C.2       11 UNK         0.5000 
     68 O          -2.1589  -23.8690  -48.1234 O.2       11 UNK        -0.5000 
     69 N          -2.6870  -22.2393  -46.6423 N.am      12 UNK        -0.5000 
     70 CA         -4.0752  -22.6465  -46.4065 C.3       12 UNK         0.1400 
     71 CB         -4.7697  -21.6374  -45.4815 C.3       12 UNK        -0.1800 
     72 C          -4.2047  -24.0810  -45.8591 C.2       12 UNK         0.5000 
     73 O          -5.0918  -24.8162  -46.2918 O.2       12 UNK        -0.5000 
     74 N          -3.3025  -24.4550  -44.9448 N.am      13 UNK        -0.5000 
     75 CA         -3.2234  -25.7838  -44.3506 C.3       13 UNK         0.1400 
     76 CB         -2.4233  -25.7058  -43.0397 C.3       13 UNK        -0.1800 
     77 C          -2.6183  -26.8299  -45.3042 C.2       13 UNK         0.5000 
     78 O          -3.2630  -27.8427  -45.5787 O.2       13 UNK        -0.5000 
     79 N          -1.3782  -26.5967  -45.7553 N.am      14 UNK        -0.5000 
     80 CA         -0.5555  -27.6123  -46.4160 C.3       14 UNK         0.1400 
     81 CB          0.9289  -27.3043  -46.1645 C.3       14 UNK        -0.1800 
     82 C          -0.8171  -27.7436  -47.9240 C.2       14 UNK         0.5000 
     83 O          -0.7053  -28.8499  -48.4541 O.2       14 UNK        -0.5000 
     84 N          -1.1356  -26.6279  -48.5909 N.am      15 UNK        -0.5000 
     85 CA         -1.3028  -26.5523  -50.0451 C.3       15 UNK         0.1400 
     86 CB         -0.3760  -25.4517  -50.5913 C.3       15 UNK        -0.1800 
     87 C          -2.7637  -26.2961  -50.4528 C.2       15 UNK         0.5000 
     88 O          -3.0229  -26.0772  -51.6367 O.2       15 UNK        -0.5000 
     89 N          -3.6880  -26.2879  -49.4791 N.am      16 UNK        -0.5000 
     90 CA         -5.1186  -25.9892  -49.6253 C.3       16 UNK         0.1400 
     91 CB         -5.8306  -27.1186  -50.3988 C.3       16 UNK        -0.1800 
     92 C          -5.3724  -24.5913  -50.2323 C.2       16 UNK         0.5000 
     93 O          -6.2647  -24.4306  -51.0664 O.2       16 UNK        -0.5000 
     94 N          -4.5337  -23.6205  -49.8365 N.am      17 UNK        -0.5000 
     95 CA         -4.4726  -22.2366  -50.3249 C.3       17 UNK         0.1400 
     96 CB         -5.7782  -21.4747  -50.0127 C.3       17 UNK        -0.1800 
     97 C          -4.0703  -22.1340  -51.8117 C.2       17 UNK         0.5000 
     98 O          -4.3976  -21.1392  -52.4617 O.2       17 UNK        -0.5000 
     99 N          -3.3895  -23.1745  -52.3249 N.am      18 UNK        -0.5000 
    100 CA        -3.0007  -23.3821  -53.7231 C.3       18 UNK         0.1400 
    101 CB        -1.8187  -22.4699  -54.0973 C.3       18 UNK        -0.1800 
    102 C         -4.2166  -23.2756  -54.6658 C.2       18 UNK         0.5000 
    103 O         -4.2026  -22.5190  -55.6388 O.2       18 UNK        -0.5000 
    104 N         -5.2776  -24.0008  -54.2847 N.am      19 UNK        -0.5000 
    105 CA        -6.6448  -23.9856  -54.8073 C.3       19 UNK         0.1400 
    106 CB        -6.7047  -24.3031  -56.3148 C.3       19 UNK        -0.1800 
    107 C         -7.4002  -22.6914  -54.4542 C.2       19 UNK         0.5000 
    108 O         -8.4329  -22.7661  -53.7872 O.2       19 UNK        -0.5000 
    109 N         -6.8804  -21.5386  -54.8922 N.am      20 UNK        -0.5000 
    110 CA        -7.4613  -20.2136  -54.6781 C.3       20 UNK         0.1400 
    111 CB        -8.7902  -20.0651  -55.4557 C.3       20 UNK        -0.1800 
    112 C         -6.4460  -19.1161  -55.0434 C.2       20 UNK         0.5000 
    113 O         -6.7804  -18.1943  -55.7924 O.2       20 UNK        -0.5000 
    114 N         -5.2116  -19.2251  -54.5339 N.am      21 UNK        -0.5000 
    115 CA        -4.1835  -18.1976  -54.7138 C.3       21 UNK         0.1400 
    116 CB        -2.8068  -18.7655  -54.3465 C.3       21 UNK        -0.1800 
    117 C         -4.4847  -16.9323  -53.8899 C.2       21 UNK         0.5000 
    118 O         -5.0959  -17.0178  -52.8219 O.2       21 UNK        -0.5000 
    119 N         -4.0201  -15.7873  -54.4030 N.am      22 UNK        -0.5000 
    120 CA        -4.1288  -14.4462  -53.7968 C.3       22 UNK         0.1400 
    121 C         -5.5701  -13.8485  -53.7735 C.2       22 UNK         0.5000 
    122 N         -6.5424  -14.4258  -54.4693 N.am      22 UNK        -0.7600 
    123 O         -5.8084  -12.8223  -53.1420 O.2       22 UNK        -0.5000 
    124 C124       -3.4196  -14.3254  -52.4161 C.3       23 UNK        -0.0398 
    125 S125       -1.6954  -14.9309  -52.4385 S.3       23 UNK        -0.2404 
    126 C126       -1.7839  -16.2461  -51.1803 C.3       23 UNK        -0.0205 
    127 H127        7.0087  -12.4663  -46.7697 H         1 UNK         0.0600 
    128 H128        6.8929  -14.2038  -46.4714 H         1 UNK         0.0600 
    129 H129        6.6267  -13.0621  -45.1506 H         1 UNK         0.0600 
    130 H130        4.9961  -15.0474  -47.3088 H         1 UNK         0.3000 
    131 H131        2.4261  -14.0335  -46.6797 H         1 UNK         0.0600 
    132 H132        2.4863  -16.3528  -46.9628 H         1 UNK         0.0800 
    133 H133        1.6541  -15.8390  -48.3709 H         1 UNK         0.0800 
    134 H134        3.1805  -15.4480  -50.8076 H         1 UNK         0.0800 
    135 H135        3.9712  -16.9319  -51.2606 H         1 UNK         0.0800 
    136 H136        0.7735  -15.3608  -50.7913 H         1 UNK         0.1150 
    137 H137       -1.4982  -18.9489  -51.3679 H         1 UNK         0.1150 
    138 H138        2.7445  -19.1645  -50.7964 H         1 UNK         0.1150 
    139 H139        0.4226  -21.0062  -52.2461 H         1 UNK         0.0800 
    140 H140        1.5217  -21.1868  -50.8993 H         1 UNK         0.0800 
    141 H141       -0.8939  -20.2892  -48.1376 H         1 UNK         0.0800 
    142 H142        0.7494  -20.7486  -48.4861 H         1 UNK         0.0800 
    143 H143        0.2138  -23.1401  -47.9805 H         1 UNK         0.0600 
    144 H144        0.3449  -21.1083  -45.9765 H         1 UNK         0.3000 
    145 H145        0.5255  -23.3577  -43.1746 H         1 UNK         0.0600 
    146 H146        2.5424  -21.9668  -42.7731 H         1 UNK         0.0600 
    147 H147        2.8328  -23.1417  -44.0462 H         1 UNK         0.0600 
    148 H148        2.5551  -21.4577  -44.4600 H         1 UNK         0.0600 
    149 H149        0.4962  -20.5257  -43.2548 H         1 UNK         0.3000 
    150 H150       -3.0685  -20.1051  -43.2697 H         1 UNK         0.0600 
    151 H151       -2.4785  -20.5864  -40.8896 H         1 UNK         0.0600 
    152 H152       -2.5825  -18.8605  -41.1972 H         1 UNK         0.0600 
    153 H153       -1.0064  -19.6379  -41.0567 H         1 UNK         0.0600 
    154 H154       -1.0190  -18.1781  -43.0860 H         1 UNK         0.3000 
    155 H155       -0.4141  -17.7696  -46.6161 H         1 UNK         0.0600 
    156 H156       -2.3361  -16.3332  -46.0117 H         1 UNK         0.0600 
    157 H157       -0.8382  -15.4255  -45.8606 H         1 UNK         0.0600 
    158 H158       -1.6535  -16.0270  -44.4208 H         1 UNK         0.0600 
    159 H159        0.8152  -16.5962  -44.3128 H         1 UNK         0.3000 
    160 H160        3.3765  -19.0515  -43.8779 H         1 UNK         0.0600 
    161 H161        3.5097  -16.1556  -44.8626 H         1 UNK         0.0600 
    162 H162        4.2391  -17.5433  -45.6662 H         1 UNK         0.0600 
    163 H163        4.8092  -17.0488  -44.0809 H         1 UNK         0.0600 
    164 H164        2.6279  -16.5461  -42.6091 H         1 UNK         0.3000 
    165 H165        0.7038  -18.0634  -40.0144 H         1 UNK         0.0600 
    166 H166        2.3821  -16.9209  -38.5952 H         1 UNK         0.0600 
    167 H167        3.0774  -18.3733  -39.2961 H         1 UNK         0.0600 
    168 H168        3.4965  -16.7973  -39.9569 H         1 UNK         0.0600 
    169 H169        1.5252  -15.3683  -40.4600 H         1 UNK         0.3000 
    170 H170       -1.1102  -14.3924  -42.6291 H         1 UNK         0.0600 
    171 H171       -2.2382  -14.4492  -40.3974 H         1 UNK         0.0600 
    172 H172       -0.7802  -13.8264  -39.6338 H         1 UNK         0.0600 
    173 H173       -1.6707  -12.8342  -40.7892 H         1 UNK         0.0600 
    174 H174        0.7668  -12.7867  -41.3229 H         1 UNK         0.3000 
    175 H175        2.6599  -12.0781  -42.1041 H         1 UNK         0.0600 
    176 H176        4.1258  -14.0358  -43.9465 H         1 UNK         0.0600 
    177 H177        4.8470  -12.6212  -43.1819 H         1 UNK         0.0600 
    178 H178        4.2549  -13.9516  -42.1980 H         1 UNK         0.0600 
    179 H179        3.0059  -12.0347  -44.9984 H         1 UNK         0.3000 
    180 H180        0.3291   -9.7002  -45.5530 H         1 UNK         0.0600 
    181 H181        3.3581   -9.6257  -46.0114 H         1 UNK         0.0600 
    182 H182        2.4301   -8.4213  -45.1277 H         1 UNK         0.0600 
    183 H183        2.1520   -8.6482  -46.8470 H         1 UNK         0.0600 
    184 H184        1.9400  -11.1463  -47.3889 H         1 UNK         0.3000 
    185 H185        0.3039  -14.0921  -47.6710 H         1 UNK         0.0600 
    186 H186       -0.8992  -13.5463  -49.7792 H         1 UNK         0.0600 
    187 H187       -1.8316  -13.0867  -48.3658 H         1 UNK         0.0600 
    188 H188       -0.9910  -11.8536  -49.2984 H         1 UNK         0.0600 
    189 H189        1.3745  -12.2353  -49.6560 H         1 UNK         0.3000 
    190 H190       -2.3683  -21.3996  -46.1662 H         1 UNK         0.3000 
    191 H191       -4.5910  -22.6140  -47.3645 H         1 UNK         0.0600 
    192 H192       -4.6763  -20.6199  -45.8617 H         1 UNK         0.0600 
    193 H193       -5.8346  -21.8583  -45.3993 H         1 UNK         0.0600 
    194 H194       -4.3562  -21.6614  -44.4746 H         1 UNK         0.0600 
    195 H195       -2.6480  -23.7599  -44.5972 H         1 UNK         0.3000 
    196 H196       -4.2357  -26.1091  -44.1006 H         1 UNK         0.0600 
    197 H197       -2.3367  -26.6881  -42.5736 H         1 UNK         0.0600 
    198 H198       -2.9117  -25.0466  -42.3218 H         1 UNK         0.0600 
    199 H199       -1.4134  -25.3269  -43.2021 H         1 UNK         0.0600 
    200 H200       -0.9151  -25.7176  -45.5324 H         1 UNK         0.3000 
    201 H201       -0.7684  -28.5822  -45.9607 H         1 UNK         0.0600 
    202 H202        1.1417  -27.2240  -45.0984 H         1 UNK         0.0600 
    203 H203        1.2334  -26.3707  -46.6390 H         1 UNK         0.0600 
    204 H204        1.5642  -28.0953  -46.5648 H         1 UNK         0.0600 
    205 H205       -1.2538  -25.7567  -48.0851 H         1 UNK         0.3000 
    206 H206       -1.0117  -27.4923  -50.5174 H         1 UNK         0.0600 
    207 H207        0.6620  -25.6384  -50.3163 H         1 UNK         0.0600 
    208 H208       -0.4179  -25.4031  -51.6801 H         1 UNK         0.0600 
    209 H209       -0.6501  -24.4688  -50.2113 H         1 UNK         0.0600 
    210 H210       -3.3674  -26.4527  -48.5353 H         1 UNK         0.3000 
    211 H211       -5.5378  -25.9678  -48.6196 H         1 UNK         0.0600 
    212 H212       -5.5043  -27.1683  -51.4381 H         1 UNK         0.0600 
    213 H213       -6.9108  -26.9687  -50.4026 H         1 UNK         0.0600 
    214 H214       -5.6408  -28.0894  -49.9410 H         1 UNK         0.0600 
    215 H215       -3.7904  -23.8782  -49.1921 H         1 UNK         0.3000 
    216 H216       -3.6751  -21.7531  -49.7612 H         1 UNK         0.0600 
    217 H217       -5.6624  -20.4084  -50.2100 H         1 UNK         0.0600 
    218 H218       -6.0628  -21.5795  -48.9662 H         1 UNK         0.0600 
    219 H219       -6.6095  -21.8275  -50.6239 H         1 UNK         0.0600 
    220 H220       -3.2138  -23.9668  -51.7192 H         1 UNK         0.3000 
    221 H221       -2.6508  -24.4121  -53.8039 H         1 UNK         0.0600 
    222 H222       -2.0381  -21.4254  -53.8934 H         1 UNK         0.0600 
    223 H223       -0.9315  -22.7352  -53.5226 H         1 UNK         0.0600 
    224 H224       -1.5613  -22.5606  -55.1531 H         1 UNK         0.0600 
    225 H225       -5.1756  -24.5247  -53.4252 H         1 UNK         0.3000 
    226 H226       -7.1579  -24.7975  -54.2893 H         1 UNK         0.0600 
    227 H227       -6.1992  -25.2422  -56.5394 H         1 UNK         0.0600 
    228 H228       -7.7391  -24.4034  -56.6454 H         1 UNK         0.0600 
    229 H229       -6.2476  -23.5225  -56.9229 H         1 UNK         0.0600 
    230 H230       -5.9910  -21.5704  -55.3829 H         1 UNK         0.3000 
    231 H231       -7.6697  -20.1000  -53.6124 H         1 UNK         0.0600 
    232 H232       -8.6429  -20.2085  -56.5267 H         1 UNK         0.0600 
    233 H233       -9.2215  -19.0737  -55.3116 H         1 UNK         0.0600 
    234 H234       -9.5403  -20.7819  -55.1234 H         1 UNK         0.0600 
    235 H235       -4.9982  -19.9696  -53.8737 H         1 UNK         0.3000 
    236 H236       -4.1578  -17.9202  -55.7700 H         1 UNK         0.0600 
    237 H237       -2.5223  -19.5560  -55.0398 H         1 UNK         0.0600 
    238 H238       -2.0330  -17.9982  -54.3984 H         1 UNK         0.0600 
    239 H239       -2.7967  -19.1706  -53.3351 H         1 UNK         0.0600 
    240 H240       -3.5309  -15.8171  -55.2860 H         1 UNK         0.3000 
    241 H241       -3.5856  -13.7930  -54.4804 H         1 UNK         0.0600 
    242 H242       -7.4670  -14.0245  -54.4572 H         1 UNK         0.3800 
    243 H243       -6.3696  -15.2711  -54.9911 H         1 UNK         0.3800 
    244 H244       -3.3896  -13.2820  -52.0981 H         1 UNK         0.0800 
    245 H245       -3.9897  -14.8519  -51.6495 H         1 UNK         0.0800 
    246 H246       -1.9863  -15.8013  -50.2053 H         1 UNK         0.0800 
    247 H247       -2.6308  -16.8955  -51.4076 H         1 UNK         0.0800 
@<TRIPOS>BOND
     1    1    2 1    
     2    1  127 1    
     3    1  128 1    
     4    1  129 1    
     5    2    3 2    
     6    2    4 am   BACKBONE|DICT|INTERRES
     7    4    5 1    
     8    4  130 1    
     9    5    6 1    
    10    5   65 1    
    11    5  131 1    
    12    6    7 1    
    13    6  132 1    
    14    6  133 1    
    15    7    8 1    
    16    8    9 1    
    17    8  134 1    
    18    8  135 1    
    19    9   10 ar   
    20    9   14 ar   
    21   10   11 ar   
    22   10  136 1    
    23   11   12 ar   
    24   11  126 1    
    25   12   13 ar   
    26   12  137 1    
    27   13   14 ar   
    28   13   15 1    
    29   14  138 1    
    30   15   16 1    
    31   15  139 1    
    32   15  140 1    
    33   16   17 1    
    34   17   18 1    
    35   17  141 1    
    36   17  142 1    
    37   18   19 1    
    38   18   67 1    
    39   18  143 1    
    40   19   20 am   BACKBONE|DICT|INTERRES
    41   19  144 1    
    42   20   21 2    
    43   20   22 1    
    44   22   23 1    
    45   22   24 1    
    46   22  145 1    
    47   23  146 1    
    48   23  147 1    
    49   23  148 1    
    50   24   25 am   BACKBONE|DICT|INTERRES
    51   24  149 1    
    52   25   26 2    
    53   25   27 1    
    54   27   28 1    
    55   27   29 1    
    56   27  150 1    
    57   28  151 1    
    58   28  152 1    
    59   28  153 1    
    60   29   30 am   BACKBONE|DICT|INTERRES
    61   29  154 1    
    62   30   31 2    
    63   30   32 1    
    64   32   33 1    
    65   32   34 1    
    66   32  155 1    
    67   33  156 1    
    68   33  157 1    
    69   33  158 1    
    70   34   35 am   BACKBONE|DICT|INTERRES
    71   34  159 1    
    72   35   36 2    
    73   35   37 1    
    74   37   38 1    
    75   37   39 1    
    76   37  160 1    
    77   38  161 1    
    78   38  162 1    
    79   38  163 1    
    80   39   40 am   BACKBONE|DICT|INTERRES
    81   39  164 1    
    82   40   41 2    
    83   40   42 1    
    84   42   43 1    
    85   42   44 1    
    86   42  165 1    
    87   43  166 1    
    88   43  167 1    
    89   43  168 1    
    90   44   45 am   BACKBONE|DICT|INTERRES
    91   44  169 1    
    92   45   46 2    
    93   45   47 1    
    94   47   48 1    
    95   47   49 1    
    96   47  170 1    
    97   48  171 1    
    98   48  172 1    
    99   48  173 1    
   100   49   50 am   BACKBONE|DICT|INTERRES
   101   49  174 1    
   102   50   51 2    
   103   50   52 1    
   104   52   53 1    
   105   52   54 1    
   106   52  175 1    
   107   53  176 1    
   108   53  177 1    
   109   53  178 1    
   110   54   55 am   BACKBONE|DICT|INTERRES
   111   54  179 1    
   112   55   56 2    
   113   55   57 1    
   114   57   58 1    
   115   57   59 1    
   116   57  180 1    
   117   58  181 1    
   118   58  182 1    
   119   58  183 1    
   120   59   60 am   BACKBONE|DICT|INTERRES
   121   59  184 1    
   122   60   61 2    
   123   60   62 1    
   124   62   63 1    
   125   62   64 1    
   126   62  185 1    
   127   63  186 1    
   128   63  187 1    
   129   63  188 1    
   130   64   65 am   BACKBONE|DICT|INTERRES
   131   64  189 1    
   132   65   66 2    
   133   67   68 2    
   134   67   69 am   BACKBONE|DICT|INTERRES
   135   69   70 1    
   136   69  190 1    
   137   70   71 1    
   138   70   72 1    
   139   70  191 1    
   140   71  192 1    
   141   71  193 1    
   142   71  194 1    
   143   72   73 2    
   144   72   74 am   BACKBONE|DICT|INTERRES
   145   74   75 1    
   146   74  195 1    
   147   75   76 1    
   148   75   77 1    
   149   75  196 1    
   150   76  197 1    
   151   76  198 1    
   152   76  199 1    
   153   77   78 2    
   154   77   79 am   BACKBONE|DICT|INTERRES
   155   79   80 1    
   156   79  200 1    
   157   80   81 1    
   158   80   82 1    
   159   80  201 1    
   160   81  202 1    
   161   81  203 1    
   162   81  204 1    
   163   82   83 2    
   164   82   84 am   BACKBONE|DICT|INTERRES
   165   84   85 1    
   166   84  205 1    
   167   85   86 1    
   168   85   87 1    
   169   85  206 1    
   170   86  207 1    
   171   86  208 1    
   172   86  209 1    
   173   87   88 2    
   174   87   89 am   BACKBONE|DICT|INTERRES
   175   89   90 1    
   176   89  210 1    
   177   90   91 1    
   178   90   92 1    
   179   90  211 1    
   180   91  212 1    
   181   91  213 1    
   182   91  214 1    
   183   92   93 2    
   184   92   94 am   BACKBONE|DICT|INTERRES
   185   94   95 1    
   186   94  215 1    
   187   95   96 1    
   188   95   97 1    
   189   95  216 1    
   190   96  217 1    
   191   96  218 1    
   192   96  219 1    
   193   97   98 2    
   194   97   99 am   BACKBONE|DICT|INTERRES
   195   99  100 1    
   196   99  220 1    
   197  100  101 1    
   198  100  102 1    
   199  100  221 1    
   200  101  222 1    
   201  101  223 1    
   202  101  224 1    
   203  102  103 2    
   204  102  104 am   BACKBONE|DICT|INTERRES
   205  104  105 1    
   206  104  225 1    
   207  105  106 1    
   208  105  107 1    
   209  105  226 1    
   210  106  227 1    
   211  106  228 1    
   212  106  229 1    
   213  107  108 2    
   214  107  109 am   BACKBONE|DICT|INTERRES
   215  109  110 1    
   216  109  230 1    
   217  110  111 1    
   218  110  112 1    
   219  110  231 1    
   220  111  232 1    
   221  111  233 1    
   222  111  234 1    
   223  112  113 2    
   224  112  114 am   BACKBONE|DICT|INTERRES
   225  114  115 1    
   226  114  235 1    
   227  115  116 1    
   228  115  117 1    
   229  115  236 1    
   230  116  237 1    
   231  116  238 1    
   232  116  239 1    
   233  117  118 2    
   234  117  119 am   BACKBONE|DICT|INTERRES
   235  119  120 1    
   236  119  240 1    
   237  120  121 1    
   238  120  124 1    
   239  120  241 1    
   240  121  122 am   BACKBONE|DICT|INTERRES
   241  121  123 2    
   242  122  242 1    
   243  122  243 1    
   244  124  125 1    
   245  124  244 1    
   246  124  245 1    
   247  125  126 1    
   248  126  246 1    
   249  126  247 1    
@<TRIPOS>SUBSTRUCTURE
     1 UNK         1 GROUP             0       ****    0 ROOT    
