@<TRIPOS>MOLECULE
3R540
247   249    1
SMALL
USER_CHARGES


@<TRIPOS>ATOM
      1 CA          3.5926  -10.8780  -49.6967 C.3       0 UNK        -0.1800 
      2 C           3.3053  -12.1592  -48.9270 C.2       0 UNK         0.5000 
      3 O           4.1846  -12.6673  -48.2315 O.2       0 UNK        -0.5000 
      4 N           2.0775  -12.6808  -49.0448 N.am      1 UNK        -0.5000 
      5 CA          1.6226  -13.9109  -48.3796 C.3       1 UNK         0.1400 
      6 C6          0.4387  -14.5806  -49.1188 C.3       23 UNK        -0.0398 
      7 S7          0.8024  -14.9517  -50.8701 S.3       23 UNK        -0.2404 
      8 C8          1.5203  -16.6283  -50.7547 C.3       23 UNK        -0.0205 
      9 C9          0.5237  -17.7887  -50.6957 C.ar      23 UNK        -0.0193 
     10 C10        -0.8082  -17.6332  -50.2894 C.ar      23 UNK        -0.1150 
     11 C11        -1.6723  -18.7291  -50.2220 C.ar      23 UNK        -0.0193 
     12 C12        -1.1990  -19.9976  -50.5674 C.ar      23 UNK        -0.1150 
     13 C13         0.1296  -20.1758  -50.9644 C.ar      23 UNK        -0.0193 
     14 C14         0.9783  -19.0673  -51.0334 C.ar      23 UNK        -0.1150 
     15 C15         0.6439  -21.5678  -51.3135 C.3       23 UNK        -0.0205 
     16 S16         2.0905  -22.0934  -50.3284 S.3       23 UNK        -0.2404 
     17 C17         1.5577  -21.8075  -48.6062 C.3       23 UNK        -0.0398 
     18 CA          0.8725  -23.0326  -47.9544 C.3       11 UNK         0.1400 
     19 N           1.0117  -23.0219  -46.4967 N.am      11 UNK        -0.5000 
     20 C           0.6960  -24.0412  -45.6848 C.2       10 UNK         0.5000 
     21 O           0.3035  -25.1386  -46.0794 O.2       10 UNK        -0.5000 
     22 CA          0.7876  -23.7644  -44.1731 C.3       10 UNK         0.1400 
     23 CB          2.2248  -23.9636  -43.6699 C.3       10 UNK        -0.1800 
     24 N           0.3324  -22.4161  -43.8278 N.am      10 UNK        -0.5000 
     25 C          -0.9338  -21.9938  -43.9531 C.2       9 UNK         0.5000 
     26 O          -1.8596  -22.7155  -44.3212 O.2       9 UNK        -0.5000 
     27 CA         -1.2013  -20.5057  -43.6669 C.3       9 UNK         0.1400 
     28 CB         -1.4867  -20.2818  -42.1749 C.3       9 UNK        -0.1800 
     29 N          -0.1063  -19.6283  -44.0846 N.am      9 UNK        -0.5000 
     30 C           0.3159  -19.4496  -45.3425 C.2       8 UNK         0.5000 
     31 O          -0.1566  -20.0674  -46.2986 O.2       8 UNK        -0.5000 
     32 CA          1.4571  -18.4266  -45.5612 C.3       8 UNK         0.1400 
     33 CB          1.6529  -18.0787  -47.0489 C.3       8 UNK        -0.1800 
     34 N           1.2752  -17.1751  -44.8190 N.am      8 UNK        -0.5000 
     35 C           1.4105  -16.9916  -43.5013 C.2       7 UNK         0.5000 
     36 O           1.7033  -17.8883  -42.7051 O.2       7 UNK        -0.5000 
     37 CA          1.1306  -15.5743  -42.9913 C.3       7 UNK         0.1400 
     38 CB         -0.3820  -15.2755  -42.9948 C.3       7 UNK        -0.1800 
     39 N           1.6827  -15.4168  -41.6508 N.am      7 UNK        -0.5000 
     40 C           1.9135  -14.2437  -41.0560 C.2       6 UNK         0.5000 
     41 O           1.6385  -13.1564  -41.5698 O.2       6 UNK        -0.5000 
     42 CA          2.6032  -14.2954  -39.6836 C.3       6 UNK         0.1400 
     43 CB          4.1283  -14.3836  -39.8482 C.3       6 UNK        -0.1800 
     44 N           2.2844  -13.0993  -38.9072 N.am      6 UNK        -0.5000 
     45 C           1.2641  -13.0066  -38.0444 C.2       5 UNK         0.5000 
     46 O           0.5194  -13.9478  -37.7658 O.2       5 UNK        -0.5000 
     47 CA          1.0330  -11.6430  -37.3628 C.3       5 UNK         0.1400 
     48 CB          1.6786  -11.6240  -35.9684 C.3       5 UNK        -0.1800 
     49 N           1.5450  -10.5110  -38.1355 N.am      5 UNK        -0.5000 
     50 C           0.9821  -10.0329  -39.2524 C.2       4 UNK         0.5000 
     51 O          -0.0600  -10.4768  -39.7366 O.2       4 UNK        -0.5000 
     52 CA          1.6965   -8.8627  -39.9583 C.3       4 UNK         0.1400 
     53 CB          2.6882   -8.0880  -39.0598 C.3       4 UNK        -0.1800 
     54 N           2.3459   -9.3067  -41.1943 N.am      4 UNK        -0.5000 
     55 C           3.3181  -10.2220  -41.3151 C.2       3 UNK         0.5000 
     56 O           3.8311  -10.8180  -40.3648 O.2       3 UNK        -0.5000 
     57 CA          3.7296  -10.5517  -42.7569 C.3       3 UNK         0.1400 
     58 CB          5.0136  -11.3964  -42.8514 C.3       3 UNK        -0.1800 
     59 N           2.6261  -11.2735  -43.3764 N.am      3 UNK        -0.5000 
     60 C           2.2208  -11.1495  -44.6412 C.2       2 UNK         0.5000 
     61 O           2.7314  -10.3792  -45.4590 O.2       2 UNK        -0.5000 
     62 CA          1.0287  -12.0222  -45.0577 C.3       2 UNK         0.1400 
     63 CB         -0.2893  -11.2433  -44.9312 C.3       2 UNK        -0.1800 
     64 N           1.2161  -12.4322  -46.4449 N.am      2 UNK        -0.5000 
     65 C           1.2673  -13.6930  -46.8913 C.2       1 UNK         0.5000 
     66 O           1.0428  -14.6759  -46.1839 O.2       1 UNK        -0.5000 
     67 C          -0.6112  -23.1218  -48.3534 C.2       11 UNK         0.5000 
     68 O          -0.9711  -23.9671  -49.1719 O.2       11 UNK        -0.5000 
     69 N          -1.4466  -22.2783  -47.7279 N.am      12 UNK        -0.5000 
     70 CA         -2.8974  -22.2497  -47.9066 C.3       12 UNK         0.1400 
     71 CB         -3.4995  -21.1103  -47.0714 C.3       12 UNK        -0.1800 
     72 C          -3.5633  -23.5932  -47.5678 C.2       12 UNK         0.5000 
     73 O          -4.3873  -24.0656  -48.3489 O.2       12 UNK        -0.5000 
     74 N          -3.1592  -24.2028  -46.4450 N.am      13 UNK        -0.5000 
     75 CA         -3.6068  -25.5244  -46.0093 C.3       13 UNK         0.1400 
     76 CB         -3.0898  -25.8010  -44.5894 C.3       13 UNK        -0.1800 
     77 C          -3.1856  -26.6481  -46.9737 C.2       13 UNK         0.5000 
     78 O          -4.0184  -27.4864  -47.3196 O.2       13 UNK        -0.5000 
     79 N          -1.9163  -26.6356  -47.4067 N.am      14 UNK        -0.5000 
     80 CA         -1.3464  -27.6176  -48.3328 C.3       14 UNK         0.1400 
     81 CB          0.1768  -27.4316  -48.4071 C.3       14 UNK        -0.1800 
     82 C          -1.9678  -27.5554  -49.7398 C.2       14 UNK         0.5000 
     83 O          -2.2528  -28.5998  -50.3270 O.2       14 UNK        -0.5000 
     84 N          -2.1793  -26.3347  -50.2467 N.am      15 UNK        -0.5000 
     85 CA         -2.7799  -26.0696  -51.5543 C.3       15 UNK         0.1400 
     86 CB         -2.3622  -24.6591  -52.0003 C.3       15 UNK        -0.1800 
     87 C          -4.3163  -26.1819  -51.5635 C.2       15 UNK         0.5000 
     88 O          -4.9106  -26.1579  -52.6432 O.2       15 UNK        -0.5000 
     89 N          -4.9329  -26.2167  -50.3708 N.am      16 UNK        -0.5000 
     90 CA         -6.3713  -26.0627  -50.1115 C.3       16 UNK         0.1400 
     91 CB         -7.1475  -27.3033  -50.5977 C.3       16 UNK        -0.1800 
     92 C          -6.9188  -24.7401  -50.6959 C.2       16 UNK         0.5000 
     93 O          -8.0355  -24.7013  -51.2164 O.2       16 UNK        -0.5000 
     94 N          -6.0685  -23.7020  -50.6620 N.am      17 UNK        -0.5000 
     95 CA         -6.1263  -22.4028  -51.3411 C.3       17 UNK         0.1400 
     96 CB         -7.3038  -21.5587  -50.8220 C.3       17 UNK        -0.1800 
     97 C          -6.1314  -22.4837  -52.8842 C.2       17 UNK         0.5000 
     98 O          -5.3631  -21.7712  -53.5336 O.2       17 UNK        -0.5000 
     99 N          -6.9928  -23.3451  -53.4361 N.am      18 UNK        -0.5000 
    100 CA        -7.3140  -23.4927  -54.8526 C.3       18 UNK         0.1400 
    101 CB        -8.4069  -24.5606  -55.0076 C.3       18 UNK        -0.1800 
    102 C         -6.1166  -23.8144  -55.7604 C.2       18 UNK         0.5000 
    103 O         -6.0107  -23.2183  -56.8325 O.2       18 UNK        -0.5000 
    104 N         -5.2220  -24.7164  -55.3273 N.am      19 UNK        -0.5000 
    105 CA        -4.0625  -25.1416  -56.1244 C.3       19 UNK         0.1400 
    106 CB        -3.4562  -26.4198  -55.5275 C.3       19 UNK        -0.1800 
    107 C         -2.9867  -24.0476  -56.2770 C.2       19 UNK         0.5000 
    108 O         -2.1999  -24.0990  -57.2228 O.2       19 UNK        -0.5000 
    109 N         -2.9877  -23.0721  -55.3603 N.am      20 UNK        -0.5000 
    110 CA        -2.1292  -21.8891  -55.3883 C.3       20 UNK         0.1400 
    111 CB        -1.7350  -21.5515  -53.9416 C.3       20 UNK        -0.1800 
    112 C         -2.8210  -20.6828  -56.0534 C.2       20 UNK         0.5000 
    113 O         -2.1808  -19.6432  -56.2140 O.2       20 UNK        -0.5000 
    114 N         -4.1141  -20.8248  -56.3911 N.am      21 UNK        -0.5000 
    115 CA        -5.0392  -19.7785  -56.8428 C.3       21 UNK         0.1400 
    116 CB        -4.6405  -19.2519  -58.2370 C.3       21 UNK        -0.1800 
    117 C         -5.2215  -18.6557  -55.7961 C.2       21 UNK         0.5000 
    118 O         -5.4269  -17.4953  -56.1577 O.2       21 UNK        -0.5000 
    119 N         -5.1229  -19.0254  -54.5137 N.am      22 UNK        -0.5000 
    120 CA        -5.2554  -18.1339  -53.3591 C.3       22 UNK         0.1400 
    121 C         -6.7429  -17.7872  -53.0668 C.2       22 UNK         0.5000 
    122 N         -7.0266  -16.5783  -52.6023 N.am      22 UNK        -0.7600 
    123 O         -7.6404  -18.6107  -53.2325 O.2       22 UNK        -0.5000 
    124 C124       -4.5422  -18.7531  -52.1307 C.3       23 UNK        -0.0398 
    125 S125       -4.1023  -17.5225  -50.8625 S.3       23 UNK        -0.2404 
    126 C126       -3.1011  -18.5376  -49.7308 C.3       23 UNK        -0.0205 
    127 H127        4.4272  -11.0304  -50.3810 H         1 UNK         0.0600 
    128 H128        2.7304  -10.5527  -50.2794 H         1 UNK         0.0600 
    129 H129        3.8578  -10.0779  -49.0056 H         1 UNK         0.0600 
    130 H130        1.4004  -12.2320  -49.6457 H         1 UNK         0.3000 
    131 H131        2.4509  -14.6227  -48.3889 H         1 UNK         0.0600 
    132 H132       -0.4420  -13.9368  -49.0890 H         1 UNK         0.0800 
    133 H133        0.1546  -15.5040  -48.6125 H         1 UNK         0.0800 
    134 H134        2.1604  -16.7626  -51.6280 H         1 UNK         0.0800 
    135 H135        2.1777  -16.6827  -49.8862 H         1 UNK         0.0800 
    136 H136       -1.1939  -16.6624  -50.0197 H         1 UNK         0.1150 
    137 H137       -1.8600  -20.8499  -50.5167 H         1 UNK         0.1150 
    138 H138        2.0061  -19.2071  -51.3383 H         1 UNK         0.1150 
    139 H139       -0.1458  -22.3113  -51.2013 H         1 UNK         0.0800 
    140 H140        0.9241  -21.5807  -52.3672 H         1 UNK         0.0800 
    141 H141        2.4668  -21.5652  -48.0542 H         1 UNK         0.0800 
    142 H142        0.9383  -20.9132  -48.5400 H         1 UNK         0.0800 
    143 H143        1.3681  -23.9380  -48.3119 H         1 UNK         0.0600 
    144 H144        1.2647  -22.1401  -46.0775 H         1 UNK         0.3000 
    145 H145        0.1433  -24.4834  -43.6625 H         1 UNK         0.0600 
    146 H146        2.2842  -23.8399  -42.5884 H         1 UNK         0.0600 
    147 H147        2.5826  -24.9679  -43.9011 H         1 UNK         0.0600 
    148 H148        2.9161  -23.2551  -44.1278 H         1 UNK         0.0600 
    149 H149        1.0310  -21.7594  -43.5121 H         1 UNK         0.3000 
    150 H150       -2.0900  -20.2164  -44.2309 H         1 UNK         0.0600 
    151 H151       -2.3140  -20.9074  -41.8370 H         1 UNK         0.0600 
    152 H152       -1.7620  -19.2454  -41.9779 H         1 UNK         0.0600 
    153 H153       -0.6193  -20.5211  -41.5585 H         1 UNK         0.0600 
    154 H154        0.3680  -19.1018  -43.3571 H         1 UNK         0.3000 
    155 H155        2.3753  -18.8979  -45.2057 H         1 UNK         0.0600 
    156 H156        2.4480  -17.3452  -47.1841 H         1 UNK         0.0600 
    157 H157        0.7421  -17.6688  -47.4870 H         1 UNK         0.0600 
    158 H158        1.9287  -18.9589  -47.6289 H         1 UNK         0.0600 
    159 H159        1.0407  -16.3595  -45.3817 H         1 UNK         0.3000 
    160 H160        1.6531  -14.8846  -43.6536 H         1 UNK         0.0600 
    161 H161       -0.5903  -14.2513  -42.6861 H         1 UNK         0.0600 
    162 H162       -0.9225  -15.9439  -42.3235 H         1 UNK         0.0600 
    163 H163       -0.8050  -15.3977  -43.9927 H         1 UNK         0.0600 
    164 H164        1.9587  -16.2862  -41.2103 H         1 UNK         0.3000 
    165 H165        2.2631  -15.1884  -39.1549 H         1 UNK         0.0600 
    166 H166        4.6226  -14.4665  -38.8801 H         1 UNK         0.0600 
    167 H167        4.4123  -15.2588  -40.4337 H         1 UNK         0.0600 
    168 H168        4.5311  -13.5052  -40.3521 H         1 UNK         0.0600 
    169 H169        2.7950  -12.2595  -39.1568 H         1 UNK         0.3000 
    170 H170       -0.0447  -11.5161  -37.2395 H         1 UNK         0.0600 
    171 H171        1.2985  -12.4388  -35.3506 H         1 UNK         0.0600 
    172 H172        2.7624  -11.7334  -36.0254 H         1 UNK         0.0600 
    173 H173        1.4611  -10.6927  -35.4452 H         1 UNK         0.0600 
    174 H174        2.4150  -10.1039  -37.8241 H         1 UNK         0.3000 
    175 H175        0.9131   -8.1632  -40.2541 H         1 UNK         0.0600 
    176 H176        3.5408   -8.6946  -38.7536 H         1 UNK         0.0600 
    177 H177        3.0800   -7.2146  -39.5811 H         1 UNK         0.0600 
    178 H178        2.1964   -7.7264  -38.1558 H         1 UNK         0.0600 
    179 H179        1.9554   -8.9251  -42.0444 H         1 UNK         0.3000 
    180 H180        3.9014   -9.6032  -43.2703 H         1 UNK         0.0600 
    181 H181        4.8791  -12.3839  -42.4100 H         1 UNK         0.0600 
    182 H182        5.8416  -10.9105  -42.3339 H         1 UNK         0.0600 
    183 H183        5.3147  -11.5355  -43.8898 H         1 UNK         0.0600 
    184 H184        2.1418  -11.9213  -42.7525 H         1 UNK         0.3000 
    185 H185        0.9815  -12.8882  -44.3987 H         1 UNK         0.0600 
    186 H186       -0.4563  -10.9259  -43.9010 H         1 UNK         0.0600 
    187 H187       -0.2927  -10.3502  -45.5574 H         1 UNK         0.0600 
    188 H188       -1.1388  -11.8611  -45.2229 H         1 UNK         0.0600 
    189 H189        1.4858  -11.6915  -47.0775 H         1 UNK         0.3000 
    190 H190       -1.0533  -21.5891  -47.0928 H         1 UNK         0.3000 
    191 H191       -3.0938  -22.0420  -48.9594 H         1 UNK         0.0600 
    192 H192       -4.5544  -20.9704  -47.3100 H         1 UNK         0.0600 
    193 H193       -2.9905  -20.1655  -47.2610 H         1 UNK         0.0600 
    194 H194       -3.4310  -21.3117  -46.0029 H         1 UNK         0.0600 
    195 H195       -2.5140  -23.7156  -45.8290 H         1 UNK         0.3000 
    196 H196       -4.6981  -25.5097  -45.9745 H         1 UNK         0.0600 
    197 H197       -3.4192  -26.7788  -44.2361 H         1 UNK         0.0600 
    198 H198       -3.4619  -25.0578  -43.8839 H         1 UNK         0.0600 
    199 H199       -2.0003  -25.7847  -44.5466 H         1 UNK         0.0600 
    200 H200       -1.2810  -25.9265  -47.0540 H         1 UNK         0.3000 
    201 H201       -1.5453  -28.6120  -47.9279 H         1 UNK         0.0600 
    202 H202        0.6390  -27.5785  -47.4309 H         1 UNK         0.0600 
    203 H203        0.4437  -26.4334  -48.7564 H         1 UNK         0.0600 
    204 H204        0.6271  -28.1518  -49.0913 H         1 UNK         0.0600 
    205 H205       -1.8641  -25.5220  -49.7204 H         1 UNK         0.3000 
    206 H206       -2.3902  -26.7907  -52.2753 H         1 UNK         0.0600 
    207 H207       -1.2777  -24.5713  -52.0666 H         1 UNK         0.0600 
    208 H208       -2.7683  -24.4210  -52.9818 H         1 UNK         0.0600 
    209 H209       -2.7187  -23.8952  -51.3080 H         1 UNK         0.0600 
    210 H210       -4.3457  -26.1975  -49.5474 H         1 UNK         0.3000 
    211 H211       -6.4866  -25.9954  -49.0288 H         1 UNK         0.0600 
    212 H212       -7.1224  -27.3976  -51.6838 H         1 UNK         0.0600 
    213 H213       -8.1947  -27.2511  -50.2980 H         1 UNK         0.0600 
    214 H214       -6.7334  -28.2172  -50.1719 H         1 UNK         0.0600 
    215 H215       -5.2243  -23.8605  -50.1203 H         1 UNK         0.3000 
    216 H216       -5.2049  -21.8900  -51.0617 H         1 UNK         0.0600 
    217 H217       -8.2661  -22.0218  -51.0409 H         1 UNK         0.0600 
    218 H218       -7.3106  -20.5701  -51.2810 H         1 UNK         0.0600 
    219 H219       -7.2385  -21.4159  -49.7434 H         1 UNK         0.0600 
    220 H220       -7.5453  -23.9038  -52.7898 H         1 UNK         0.3000 
    221 H221       -7.7249  -22.5376  -55.1859 H         1 UNK         0.0600 
    222 H222       -8.0751  -25.5306  -54.6345 H         1 UNK         0.0600 
    223 H223       -9.3088  -24.2836  -54.4613 H         1 UNK         0.0600 
    224 H224       -8.6873  -24.6875  -56.0542 H         1 UNK         0.0600 
    225 H225       -5.3460  -25.1585  -54.4212 H         1 UNK         0.3000 
    226 H226       -4.4205  -25.3842  -57.1273 H         1 UNK         0.0600 
    227 H227       -4.2116  -27.1944  -55.3949 H         1 UNK         0.0600 
    228 H228       -2.6848  -26.8256  -56.1831 H         1 UNK         0.0600 
    229 H229       -2.9920  -26.2322  -54.5611 H         1 UNK         0.0600 
    230 H230       -3.6954  -23.0926  -54.6382 H         1 UNK         0.3000 
    231 H231       -1.2172  -22.0974  -55.9515 H         1 UNK         0.0600 
    232 H232       -2.6075  -21.3515  -53.3192 H         1 UNK         0.0600 
    233 H233       -1.0930  -20.6706  -53.9004 H         1 UNK         0.0600 
    234 H234       -1.1840  -22.3754  -53.4904 H         1 UNK         0.0600 
    235 H235       -4.5390  -21.7330  -56.2527 H         1 UNK         0.3000 
    236 H236       -6.0135  -20.2596  -56.9398 H         1 UNK         0.0600 
    237 H237       -4.5213  -20.0701  -58.9472 H         1 UNK         0.0600 
    238 H238       -5.4063  -18.5861  -58.6364 H         1 UNK         0.0600 
    239 H239       -3.7052  -18.6925  -58.2084 H         1 UNK         0.0600 
    240 H240       -5.0409  -20.0148  -54.2997 H         1 UNK         0.3000 
    241 H241       -4.7376  -17.2070  -53.6151 H         1 UNK         0.0600 
    242 H242       -6.3021  -15.8978  -52.4317 H         1 UNK         0.3800 
    243 H243       -7.9856  -16.3426  -52.3998 H         1 UNK         0.3800 
    244 H244       -5.1478  -19.5374  -51.6778 H         1 UNK         0.0800 
    245 H245       -3.6129  -19.2303  -52.4458 H         1 UNK         0.0800 
    246 H246       -3.5954  -19.4973  -49.5762 H         1 UNK         0.0800 
    247 H247       -3.0718  -18.0482  -48.7564 H         1 UNK         0.0800 
@<TRIPOS>BOND
     1    1    2 1    
     2    1  127 1    
     3    1  128 1    
     4    1  129 1    
     5    2    3 2    
     6    2    4 am   BACKBONE|DICT|INTERRES
     7    4    5 1    
     8    4  130 1    
     9    5    6 1    
    10    5   65 1    
    11    5  131 1    
    12    6    7 1    
    13    6  132 1    
    14    6  133 1    
    15    7    8 1    
    16    8    9 1    
    17    8  134 1    
    18    8  135 1    
    19    9   10 ar   
    20    9   14 ar   
    21   10   11 ar   
    22   10  136 1    
    23   11   12 ar   
    24   11  126 1    
    25   12   13 ar   
    26   12  137 1    
    27   13   14 ar   
    28   13   15 1    
    29   14  138 1    
    30   15   16 1    
    31   15  139 1    
    32   15  140 1    
    33   16   17 1    
    34   17   18 1    
    35   17  141 1    
    36   17  142 1    
    37   18   19 1    
    38   18   67 1    
    39   18  143 1    
    40   19   20 am   BACKBONE|DICT|INTERRES
    41   19  144 1    
    42   20   21 2    
    43   20   22 1    
    44   22   23 1    
    45   22   24 1    
    46   22  145 1    
    47   23  146 1    
    48   23  147 1    
    49   23  148 1    
    50   24   25 am   BACKBONE|DICT|INTERRES
    51   24  149 1    
    52   25   26 2    
    53   25   27 1    
    54   27   28 1    
    55   27   29 1    
    56   27  150 1    
    57   28  151 1    
    58   28  152 1    
    59   28  153 1    
    60   29   30 am   BACKBONE|DICT|INTERRES
    61   29  154 1    
    62   30   31 2    
    63   30   32 1    
    64   32   33 1    
    65   32   34 1    
    66   32  155 1    
    67   33  156 1    
    68   33  157 1    
    69   33  158 1    
    70   34   35 am   BACKBONE|DICT|INTERRES
    71   34  159 1    
    72   35   36 2    
    73   35   37 1    
    74   37   38 1    
    75   37   39 1    
    76   37  160 1    
    77   38  161 1    
    78   38  162 1    
    79   38  163 1    
    80   39   40 am   BACKBONE|DICT|INTERRES
    81   39  164 1    
    82   40   41 2    
    83   40   42 1    
    84   42   43 1    
    85   42   44 1    
    86   42  165 1    
    87   43  166 1    
    88   43  167 1    
    89   43  168 1    
    90   44   45 am   BACKBONE|DICT|INTERRES
    91   44  169 1    
    92   45   46 2    
    93   45   47 1    
    94   47   48 1    
    95   47   49 1    
    96   47  170 1    
    97   48  171 1    
    98   48  172 1    
    99   48  173 1    
   100   49   50 am   BACKBONE|DICT|INTERRES
   101   49  174 1    
   102   50   51 2    
   103   50   52 1    
   104   52   53 1    
   105   52   54 1    
   106   52  175 1    
   107   53  176 1    
   108   53  177 1    
   109   53  178 1    
   110   54   55 am   BACKBONE|DICT|INTERRES
   111   54  179 1    
   112   55   56 2    
   113   55   57 1    
   114   57   58 1    
   115   57   59 1    
   116   57  180 1    
   117   58  181 1    
   118   58  182 1    
   119   58  183 1    
   120   59   60 am   BACKBONE|DICT|INTERRES
   121   59  184 1    
   122   60   61 2    
   123   60   62 1    
   124   62   63 1    
   125   62   64 1    
   126   62  185 1    
   127   63  186 1    
   128   63  187 1    
   129   63  188 1    
   130   64   65 am   BACKBONE|DICT|INTERRES
   131   64  189 1    
   132   65   66 2    
   133   67   68 2    
   134   67   69 am   BACKBONE|DICT|INTERRES
   135   69   70 1    
   136   69  190 1    
   137   70   71 1    
   138   70   72 1    
   139   70  191 1    
   140   71  192 1    
   141   71  193 1    
   142   71  194 1    
   143   72   73 2    
   144   72   74 am   BACKBONE|DICT|INTERRES
   145   74   75 1    
   146   74  195 1    
   147   75   76 1    
   148   75   77 1    
   149   75  196 1    
   150   76  197 1    
   151   76  198 1    
   152   76  199 1    
   153   77   78 2    
   154   77   79 am   BACKBONE|DICT|INTERRES
   155   79   80 1    
   156   79  200 1    
   157   80   81 1    
   158   80   82 1    
   159   80  201 1    
   160   81  202 1    
   161   81  203 1    
   162   81  204 1    
   163   82   83 2    
   164   82   84 am   BACKBONE|DICT|INTERRES
   165   84   85 1    
   166   84  205 1    
   167   85   86 1    
   168   85   87 1    
   169   85  206 1    
   170   86  207 1    
   171   86  208 1    
   172   86  209 1    
   173   87   88 2    
   174   87   89 am   BACKBONE|DICT|INTERRES
   175   89   90 1    
   176   89  210 1    
   177   90   91 1    
   178   90   92 1    
   179   90  211 1    
   180   91  212 1    
   181   91  213 1    
   182   91  214 1    
   183   92   93 2    
   184   92   94 am   BACKBONE|DICT|INTERRES
   185   94   95 1    
   186   94  215 1    
   187   95   96 1    
   188   95   97 1    
   189   95  216 1    
   190   96  217 1    
   191   96  218 1    
   192   96  219 1    
   193   97   98 2    
   194   97   99 am   BACKBONE|DICT|INTERRES
   195   99  100 1    
   196   99  220 1    
   197  100  101 1    
   198  100  102 1    
   199  100  221 1    
   200  101  222 1    
   201  101  223 1    
   202  101  224 1    
   203  102  103 2    
   204  102  104 am   BACKBONE|DICT|INTERRES
   205  104  105 1    
   206  104  225 1    
   207  105  106 1    
   208  105  107 1    
   209  105  226 1    
   210  106  227 1    
   211  106  228 1    
   212  106  229 1    
   213  107  108 2    
   214  107  109 am   BACKBONE|DICT|INTERRES
   215  109  110 1    
   216  109  230 1    
   217  110  111 1    
   218  110  112 1    
   219  110  231 1    
   220  111  232 1    
   221  111  233 1    
   222  111  234 1    
   223  112  113 2    
   224  112  114 am   BACKBONE|DICT|INTERRES
   225  114  115 1    
   226  114  235 1    
   227  115  116 1    
   228  115  117 1    
   229  115  236 1    
   230  116  237 1    
   231  116  238 1    
   232  116  239 1    
   233  117  118 2    
   234  117  119 am   BACKBONE|DICT|INTERRES
   235  119  120 1    
   236  119  240 1    
   237  120  121 1    
   238  120  124 1    
   239  120  241 1    
   240  121  122 am   BACKBONE|DICT|INTERRES
   241  121  123 2    
   242  122  242 1    
   243  122  243 1    
   244  124  125 1    
   245  124  244 1    
   246  124  245 1    
   247  125  126 1    
   248  126  246 1    
   249  126  247 1    
@<TRIPOS>SUBSTRUCTURE
     1 UNK         1 GROUP             0       ****    0 ROOT    
