@<TRIPOS>MOLECULE
3R540
247   249    1
SMALL
USER_CHARGES


@<TRIPOS>ATOM
      1 CA          1.5743  -14.1178  -51.6548 C.3       0 UNK        -0.1800 
      2 C           1.4131  -15.3107  -50.7230 C.2       0 UNK         0.5000 
      3 O           1.2318  -16.4331  -51.1946 O.2       0 UNK        -0.5000 
      4 N           1.4668  -15.0661  -49.4081 N.am      1 UNK        -0.5000 
      5 CA          1.3036  -16.0758  -48.3571 C.3       1 UNK         0.1400 
      6 C6          1.0283  -15.4455  -46.9634 C.3       23 UNK        -0.0398 
      7 S7         -0.2047  -14.0966  -46.9519 S.3       23 UNK        -0.2404 
      8 C8         -1.7920  -14.9888  -46.8652 C.3       23 UNK        -0.0205 
      9 C9         -2.0978  -15.7231  -48.1619 C.ar      23 UNK        -0.0193 
     10 C10        -2.2385  -15.0133  -49.3583 C.ar      23 UNK        -0.1150 
     11 C11        -2.4474  -15.6884  -50.5637 C.ar      23 UNK        -0.0193 
     12 C12        -2.5276  -17.0831  -50.5647 C.ar      23 UNK        -0.1150 
     13 C13        -2.4190  -17.8036  -49.3719 C.ar      23 UNK        -0.0193 
     14 C14        -2.2127  -17.1151  -48.1725 C.ar      23 UNK        -0.1150 
     15 C15        -2.5439  -19.3197  -49.3906 C.3       23 UNK        -0.0205 
     16 S16        -1.0085  -20.1597  -48.8892 S.3       23 UNK        -0.2404 
     17 C17        -1.2186  -20.2537  -47.0817 C.3       23 UNK        -0.0398 
     18 CA         -0.8659  -21.6359  -46.4875 C.3       11 UNK         0.1400 
     19 N          -0.5547  -21.5107  -45.0602 N.am      11 UNK        -0.5000 
     20 C          -0.1358  -22.4930  -44.2506 C.2       10 UNK         0.5000 
     21 O           0.0136  -23.6607  -44.6055 O.2       10 UNK        -0.5000 
     22 CA          0.1035  -22.1078  -42.7844 C.3       10 UNK         0.1400 
     23 CB          1.4041  -21.3031  -42.6371 C.3       10 UNK        -0.1800 
     24 N          -1.0273  -21.3388  -42.2660 N.am      10 UNK        -0.5000 
     25 C          -2.2050  -21.8822  -41.9237 C.2       9 UNK         0.5000 
     26 O          -2.4220  -23.0940  -41.9160 O.2       9 UNK        -0.5000 
     27 CA         -3.3411  -20.9104  -41.5507 C.3       9 UNK         0.1400 
     28 CB         -3.3217  -20.6110  -40.0443 C.3       9 UNK        -0.1800 
     29 N          -3.2908  -19.6487  -42.2925 N.am      9 UNK        -0.5000 
     30 C          -3.4769  -19.5328  -43.6150 C.2       8 UNK         0.5000 
     31 O          -3.7159  -20.4817  -44.3599 O.2       8 UNK        -0.5000 
     32 CA         -3.3033  -18.1268  -44.2155 C.3       8 UNK         0.1400 
     33 CB         -4.6089  -17.3249  -44.1273 C.3       8 UNK        -0.1800 
     34 N          -2.2211  -17.3653  -43.5899 N.am      8 UNK        -0.5000 
     35 C          -0.9306  -17.7183  -43.5821 C.2       7 UNK         0.5000 
     36 O          -0.5090  -18.7412  -44.1271 O.2       7 UNK        -0.5000 
     37 CA          0.0346  -16.7735  -42.8369 C.3       7 UNK         0.1400 
     38 CB          1.5005  -17.2232  -42.9530 C.3       7 UNK        -0.1800 
     39 N          -0.0632  -15.3860  -43.2930 N.am      7 UNK        -0.5000 
     40 C          -1.0186  -14.5048  -42.9608 C.2       6 UNK         0.5000 
     41 O          -2.0081  -14.8059  -42.2906 O.2       6 UNK        -0.5000 
     42 CA         -0.8398  -13.0579  -43.4761 C.3       6 UNK         0.1400 
     43 CB         -1.5228  -12.0105  -42.5717 C.3       6 UNK        -0.1800 
     44 N           0.5658  -12.7086  -43.7345 N.am      6 UNK        -0.5000 
     45 C           1.5541  -12.6382  -42.8307 C.2       5 UNK         0.5000 
     46 O           1.3943  -12.7660  -41.6133 O.2       5 UNK        -0.5000 
     47 CA          2.9665  -12.4195  -43.3906 C.3       5 UNK         0.1400 
     48 CB          3.2295  -10.9391  -43.7106 C.3       5 UNK        -0.1800 
     49 N           3.9210  -12.8860  -42.3887 N.am      5 UNK        -0.5000 
     50 C           5.1122  -13.4700  -42.5590 C.2       4 UNK         0.5000 
     51 O           5.7411  -13.9154  -41.5983 O.2       4 UNK        -0.5000 
     52 CA          5.7326  -13.6112  -43.9678 C.3       4 UNK         0.1400 
     53 CB          7.1061  -12.9229  -44.0323 C.3       4 UNK        -0.1800 
     54 N           5.8928  -15.0254  -44.3024 N.am      4 UNK        -0.5000 
     55 C           4.8853  -15.8488  -44.6130 C.2       3 UNK         0.5000 
     56 O           3.7105  -15.4881  -44.7277 O.2       3 UNK        -0.5000 
     57 CA          5.2475  -17.3248  -44.8216 C.3       3 UNK         0.1400 
     58 CB          5.2761  -18.0870  -43.4860 C.3       3 UNK        -0.1800 
     59 N           4.2519  -17.9162  -45.7057 N.am      3 UNK        -0.5000 
     60 C           4.4720  -18.8996  -46.5837 C.2       2 UNK         0.5000 
     61 O           5.5414  -19.5038  -46.6754 O.2       2 UNK        -0.5000 
     62 CA          3.3131  -19.2692  -47.5341 C.3       2 UNK         0.1400 
     63 CB          2.6192  -20.5559  -47.0622 C.3       2 UNK        -0.1800 
     64 N           2.3009  -18.2195  -47.7057 N.am      2 UNK        -0.5000 
     65 C           2.5166  -17.0294  -48.2845 C.2       1 UNK         0.5000 
     66 O           3.6173  -16.6683  -48.7096 O.2       1 UNK        -0.5000 
     67 C          -1.9511  -22.6945  -46.7825 C.2       11 UNK         0.5000 
     68 O          -1.8349  -23.4318  -47.7643 O.2       11 UNK        -0.5000 
     69 N          -2.9487  -22.7979  -45.8934 N.am      12 UNK        -0.5000 
     70 CA         -4.0063  -23.8105  -45.9058 C.3       12 UNK         0.1400 
     71 CB         -4.9781  -23.5391  -44.7482 C.3       12 UNK        -0.1800 
     72 C          -3.4973  -25.2646  -45.8493 C.2       12 UNK         0.5000 
     73 O          -4.1705  -26.1506  -46.3750 O.2       12 UNK        -0.5000 
     74 N          -2.3266  -25.4830  -45.2373 N.am      13 UNK        -0.5000 
     75 CA         -1.6598  -26.7805  -45.1660 C.3       13 UNK         0.1400 
     76 CB         -1.1000  -26.9813  -43.7485 C.3       13 UNK        -0.1800 
     77 C          -0.5380  -26.8852  -46.2121 C.2       13 UNK         0.5000 
     78 O          -0.4550  -27.8932  -46.9138 O.2       13 UNK        -0.5000 
     79 N           0.3092  -25.8502  -46.2910 N.am      14 UNK        -0.5000 
     80 CA          1.5363  -25.8264  -47.0875 C.3       14 UNK         0.1400 
     81 CB          2.3923  -24.6255  -46.6537 C.3       14 UNK        -0.1800 
     82 C           1.3020  -25.7889  -48.6065 C.2       14 UNK         0.5000 
     83 O           2.0725  -26.4023  -49.3465 O.2       14 UNK        -0.5000 
     84 N           0.2636  -25.0661  -49.0421 N.am      15 UNK        -0.5000 
     85 CA         -0.0588  -24.8429  -50.4530 C.3       15 UNK         0.1400 
     86 CB          0.1670  -23.3549  -50.7733 C.3       15 UNK        -0.1800 
     87 C          -1.5004  -25.2588  -50.7893 C.2       15 UNK         0.5000 
     88 O          -1.9684  -24.9521  -51.8861 O.2       15 UNK        -0.5000 
     89 N          -2.2041  -25.8956  -49.8391 N.am      16 UNK        -0.5000 
     90 CA         -3.6309  -26.2470  -49.8943 C.3       16 UNK         0.1400 
     91 CB         -3.8771  -27.3642  -50.9294 C.3       16 UNK        -0.1800 
     92 C          -4.5334  -25.0104  -50.1150 C.2       16 UNK         0.5000 
     93 O          -5.5191  -25.0801  -50.8507 O.2       16 UNK        -0.5000 
     94 N          -4.1291  -23.8811  -49.5124 N.am      17 UNK        -0.5000 
     95 CA         -4.6896  -22.5315  -49.6441 C.3       17 UNK         0.1400 
     96 CB         -6.1686  -22.4830  -49.2066 C.3       17 UNK        -0.1800 
     97 C          -4.4736  -21.8933  -51.0332 C.2       17 UNK         0.5000 
     98 O          -5.0652  -20.8488  -51.3105 O.2       17 UNK        -0.5000 
     99 N          -3.6376  -22.5124  -51.8839 N.am      18 UNK        -0.5000 
    100 CA        -3.2477  -22.0831  -53.2343 C.3       18 UNK         0.1400 
    101 CB        -2.3428  -20.8363  -53.1489 C.3       18 UNK        -0.1800 
    102 C         -4.4405  -21.8715  -54.1930 C.2       18 UNK         0.5000 
    103 O         -4.3418  -21.0710  -55.1236 O.2       18 UNK        -0.5000 
    104 N         -5.5721  -22.5368  -53.9065 N.am      19 UNK        -0.5000 
    105 CA        -6.8928  -22.3599  -54.5273 C.3       19 UNK         0.1400 
    106 CB        -6.8779  -22.8943  -55.9745 C.3       19 UNK        -0.1800 
    107 C         -7.4368  -20.9115  -54.4423 C.2       19 UNK         0.5000 
    108 O         -8.2975  -20.5387  -55.2410 O.2       19 UNK        -0.5000 
    109 N         -6.9048  -20.1153  -53.4985 N.am      20 UNK        -0.5000 
    110 CA        -7.0951  -18.6708  -53.3271 C.3       20 UNK         0.1400 
    111 CB        -8.5376  -18.3599  -52.8784 C.3       20 UNK        -0.1800 
    112 C         -6.6554  -17.8318  -54.5511 C.2       20 UNK         0.5000 
    113 O         -7.1321  -16.7078  -54.7243 O.2       20 UNK        -0.5000 
    114 N         -5.7513  -18.3719  -55.3828 N.am      21 UNK        -0.5000 
    115 CA        -5.2696  -17.7613  -56.6229 C.3       21 UNK         0.1400 
    116 CB        -4.8161  -18.8755  -57.5833 C.3       21 UNK        -0.1800 
    117 C         -4.1675  -16.7146  -56.3595 C.2       21 UNK         0.5000 
    118 O         -3.0410  -16.8595  -56.8381 O.2       21 UNK        -0.5000 
    119 N         -4.5129  -15.6780  -55.5887 N.am      22 UNK        -0.5000 
    120 CA        -3.6253  -14.5603  -55.2251 C.3       22 UNK         0.1400 
    121 C         -3.3670  -13.5343  -56.3687 C.2       22 UNK         0.5000 
    122 N         -4.0900  -13.5743  -57.4816 N.am      22 UNK        -0.7600 
    123 O         -2.4864  -12.6873  -56.2457 O.2       22 UNK        -0.5000 
    124 C124       -4.1050  -13.8339  -53.9423 C.3       23 UNK        -0.0398 
    125 S125       -4.2698  -14.9420  -52.5022 S.3       23 UNK        -0.2404 
    126 C126       -2.5647  -14.9171  -51.8677 C.3       23 UNK        -0.0205 
    127 H127        1.7148  -13.1880  -51.1030 H         1 UNK         0.0600 
    128 H128        0.6887  -14.0102  -52.2812 H         1 UNK         0.0600 
    129 H129        2.4378  -14.2624  -52.3041 H         1 UNK         0.0600 
    130 H130        1.6240  -14.1239  -49.0823 H         1 UNK         0.3000 
    131 H131        0.4441  -16.6860  -48.6343 H         1 UNK         0.0600 
    132 H132        0.7178  -16.2104  -46.2499 H         1 UNK         0.0800 
    133 H133        1.9482  -15.0154  -46.5654 H         1 UNK         0.0800 
    134 H134       -1.7792  -15.6726  -46.0155 H         1 UNK         0.0800 
    135 H135       -2.5902  -14.2712  -46.6712 H         1 UNK         0.0800 
    136 H136       -2.1556  -13.9355  -49.3511 H         1 UNK         0.1150 
    137 H137       -2.6863  -17.6038  -51.4987 H         1 UNK         0.1150 
    138 H138       -2.1151  -17.6612  -47.2488 H         1 UNK         0.1150 
    139 H139       -3.3821  -19.6271  -48.7651 H         1 UNK         0.0800 
    140 H140       -2.7813  -19.6519  -50.4000 H         1 UNK         0.0800 
    141 H141       -2.2298  -19.9663  -46.7922 H         1 UNK         0.0800 
    142 H142       -0.5610  -19.4920  -46.6628 H         1 UNK         0.0800 
    143 H143        0.0466  -21.9938  -46.9652 H         1 UNK         0.0600 
    144 H144       -0.6348  -20.5760  -44.6690 H         1 UNK         0.3000 
    145 H145        0.2051  -23.0257  -42.2011 H         1 UNK         0.0600 
    146 H146        1.5664  -20.9973  -41.6035 H         1 UNK         0.0600 
    147 H147        2.2644  -21.9023  -42.9380 H         1 UNK         0.0600 
    148 H148        1.4032  -20.4074  -43.2576 H         1 UNK         0.0600 
    149 H149       -0.9423  -20.3334  -42.2834 H         1 UNK         0.3000 
    150 H150       -4.2862  -21.4028  -41.7897 H         1 UNK         0.0600 
    151 H151       -4.1695  -19.9898  -39.7546 H         1 UNK         0.0600 
    152 H152       -3.3817  -21.5318  -39.4626 H         1 UNK         0.0600 
    153 H153       -2.4084  -20.0939  -39.7475 H         1 UNK         0.0600 
    154 H154       -3.0932  -18.8140  -41.7605 H         1 UNK         0.3000 
    155 H155       -3.0563  -18.2523  -45.2693 H         1 UNK         0.0600 
    156 H156       -5.4311  -17.8633  -44.6008 H         1 UNK         0.0600 
    157 H157       -4.5150  -16.3646  -44.6350 H         1 UNK         0.0600 
    158 H158       -4.8940  -17.1310  -43.0926 H         1 UNK         0.0600 
    159 H159       -2.4719  -16.5026  -43.1151 H         1 UNK         0.3000 
    160 H160       -0.2376  -16.8065  -41.7800 H         1 UNK         0.0600 
    161 H161        1.8143  -17.3083  -43.9934 H         1 UNK         0.0600 
    162 H162        1.6491  -18.1950  -42.4830 H         1 UNK         0.0600 
    163 H163        2.1718  -16.5219  -42.4564 H         1 UNK         0.0600 
    164 H164        0.7017  -15.0548  -43.8614 H         1 UNK         0.3000 
    165 H165       -1.3460  -13.0208  -44.4407 H         1 UNK         0.0600 
    166 H166       -1.3688  -11.0007  -42.9520 H         1 UNK         0.0600 
    167 H167       -2.5995  -12.1777  -42.5265 H         1 UNK         0.0600 
    168 H168       -1.1469  -12.0459  -41.5491 H         1 UNK         0.0600 
    169 H169        0.7978  -12.5780  -44.7099 H         1 UNK         0.3000 
    170 H170        3.0335  -13.0130  -44.3016 H         1 UNK         0.0600 
    171 H171        2.5202  -10.5651  -44.4499 H         1 UNK         0.0600 
    172 H172        3.1365  -10.3149  -42.8209 H         1 UNK         0.0600 
    173 H173        4.2297  -10.7917  -44.1180 H         1 UNK         0.0600 
    174 H174        3.5284  -12.8646  -41.4559 H         1 UNK         0.3000 
    175 H175        5.1147  -13.1430  -44.7319 H         1 UNK         0.0600 
    176 H176        7.5383  -12.9983  -45.0303 H         1 UNK         0.0600 
    177 H177        7.0191  -11.8617  -43.7958 H         1 UNK         0.0600 
    178 H178        7.8145  -13.3595  -43.3270 H         1 UNK         0.0600 
    179 H179        6.8214  -15.4058  -44.1913 H         1 UNK         0.3000 
    180 H180        6.2319  -17.3730  -45.2924 H         1 UNK         0.0600 
    181 H181        4.3065  -18.0636  -42.9883 H         1 UNK         0.0600 
    182 H182        6.0071  -17.6536  -42.8026 H         1 UNK         0.0600 
    183 H183        5.5494  -19.1318  -43.6344 H         1 UNK         0.0600 
    184 H184        3.3693  -17.4242  -45.7211 H         1 UNK         0.3000 
    185 H185        3.7561  -19.4647  -48.5128 H         1 UNK         0.0600 
    186 H186        3.3414  -21.3566  -46.8969 H         1 UNK         0.0600 
    187 H187        2.0777  -20.4044  -46.1274 H         1 UNK         0.0600 
    188 H188        1.9155  -20.9115  -47.8141 H         1 UNK         0.0600 
    189 H189        1.3703  -18.4507  -47.3933 H         1 UNK         0.3000 
    190 H190       -3.0099  -22.1028  -45.1546 H         1 UNK         0.3000 
    191 H191       -4.5591  -23.6983  -46.8371 H         1 UNK         0.0600 
    192 H192       -5.4446  -22.5589  -44.8470 H         1 UNK         0.0600 
    193 H193       -5.7806  -24.2775  -44.7271 H         1 UNK         0.0600 
    194 H194       -4.4719  -23.5745  -43.7830 H         1 UNK         0.0600 
    195 H195       -1.8173  -24.6931  -44.8598 H         1 UNK         0.3000 
    196 H196       -2.3718  -27.5861  -45.3576 H         1 UNK         0.0600 
    197 H197       -0.5901  -27.9417  -43.6621 H         1 UNK         0.0600 
    198 H198       -1.8989  -26.9693  -43.0070 H         1 UNK         0.0600 
    199 H199       -0.3847  -26.2034  -43.4786 H         1 UNK         0.0600 
    200 H200        0.1718  -25.0575  -45.6660 H         1 UNK         0.3000 
    201 H201        2.0954  -26.7374  -46.8637 H         1 UNK         0.0600 
    202 H202        2.6356  -24.6769  -45.5923 H         1 UNK         0.0600 
    203 H203        1.8789  -23.6803  -46.8327 H         1 UNK         0.0600 
    204 H204        3.3346  -24.5963  -47.2023 H         1 UNK         0.0600 
    205 H205       -0.3276  -24.5838  -48.3719 H         1 UNK         0.3000 
    206 H206        0.5909  -25.4347  -51.1003 H         1 UNK         0.0600 
    207 H207       -0.5310  -22.7223  -50.2256 H         1 UNK         0.0600 
    208 H208        1.1784  -23.0416  -50.5142 H         1 UNK         0.0600 
    209 H209        0.0273  -23.1526  -51.8359 H         1 UNK         0.0600 
    210 H210       -1.7294  -26.1116  -48.9743 H         1 UNK         0.3000 
    211 H211       -3.8913  -26.6481  -48.9155 H         1 UNK         0.0600 
    212 H212       -3.6973  -27.0216  -51.9488 H         1 UNK         0.0600 
    213 H213       -4.9068  -27.7203  -50.8817 H         1 UNK         0.0600 
    214 H214       -3.2299  -28.2214  -50.7445 H         1 UNK         0.0600 
    215 H215       -3.2764  -23.9266  -48.9603 H         1 UNK         0.3000 
    216 H216       -4.1252  -21.9159  -48.9438 H         1 UNK         0.0600 
    217 H217       -6.8214  -22.9833  -49.9220 H         1 UNK         0.0600 
    218 H218       -6.5150  -21.4524  -49.1214 H         1 UNK         0.0600 
    219 H219       -6.3157  -22.9521  -48.2344 H         1 UNK         0.0600 
    220 H220       -3.2167  -23.3878  -51.5911 H         1 UNK         0.3000 
    221 H221       -2.6569  -22.8967  -53.6568 H         1 UNK         0.0600 
    222 H222       -2.9005  -19.9547  -52.8316 H         1 UNK         0.0600 
    223 H223       -1.5243  -20.9879  -52.4448 H         1 UNK         0.0600 
    224 H224       -1.8977  -20.6080  -54.1180 H         1 UNK         0.0600 
    225 H225       -5.5477  -23.1609  -53.1113 H         1 UNK         0.3000 
    226 H226       -7.5848  -22.9762  -53.9520 H         1 UNK         0.0600 
    227 H227       -6.4944  -23.9138  -56.0146 H         1 UNK         0.0600 
    228 H228       -7.8828  -22.9114  -56.3977 H         1 UNK         0.0600 
    229 H229       -6.2594  -22.2771  -56.6270 H         1 UNK         0.0600 
    230 H230       -6.2184  -20.5218  -52.8684 H         1 UNK         0.3000 
    231 H231       -6.4287  -18.3788  -52.5141 H         1 UNK         0.0600 
    232 H232       -8.8165  -18.9552  -52.0090 H         1 UNK         0.0600 
    233 H233       -8.6433  -17.3112  -52.5984 H         1 UNK         0.0600 
    234 H234       -9.2603  -18.5607  -53.6696 H         1 UNK         0.0600 
    235 H235       -5.3730  -19.2889  -55.1676 H         1 UNK         0.3000 
    236 H236       -6.1007  -17.2401  -57.1024 H         1 UNK         0.0600 
    237 H237       -3.9549  -19.4190  -57.1935 H         1 UNK         0.0600 
    238 H238       -5.6152  -19.5966  -57.7570 H         1 UNK         0.0600 
    239 H239       -4.5325  -18.4639  -58.5526 H         1 UNK         0.0600 
    240 H240       -5.4523  -15.6603  -55.2061 H         1 UNK         0.3000 
    241 H241       -2.6473  -14.9901  -55.0009 H         1 UNK         0.0600 
    242 H242       -4.8180  -14.2608  -57.5967 H         1 UNK         0.3800 
    243 H243       -3.9093  -12.9072  -58.2156 H         1 UNK         0.3800 
    244 H244       -5.0759  -13.3679  -54.1183 H         1 UNK         0.0800 
    245 H245       -3.4265  -13.0206  -53.6784 H         1 UNK         0.0800 
    246 H246       -2.2421  -13.8842  -51.7281 H         1 UNK         0.0800 
    247 H247       -1.8927  -15.3556  -52.6069 H         1 UNK         0.0800 
@<TRIPOS>BOND
     1    1    2 1    
     2    1  127 1    
     3    1  128 1    
     4    1  129 1    
     5    2    3 2    
     6    2    4 am   BACKBONE|DICT|INTERRES
     7    4    5 1    
     8    4  130 1    
     9    5    6 1    
    10    5   65 1    
    11    5  131 1    
    12    6    7 1    
    13    6  132 1    
    14    6  133 1    
    15    7    8 1    
    16    8    9 1    
    17    8  134 1    
    18    8  135 1    
    19    9   10 ar   
    20    9   14 ar   
    21   10   11 ar   
    22   10  136 1    
    23   11   12 ar   
    24   11  126 1    
    25   12   13 ar   
    26   12  137 1    
    27   13   14 ar   
    28   13   15 1    
    29   14  138 1    
    30   15   16 1    
    31   15  139 1    
    32   15  140 1    
    33   16   17 1    
    34   17   18 1    
    35   17  141 1    
    36   17  142 1    
    37   18   19 1    
    38   18   67 1    
    39   18  143 1    
    40   19   20 am   BACKBONE|DICT|INTERRES
    41   19  144 1    
    42   20   21 2    
    43   20   22 1    
    44   22   23 1    
    45   22   24 1    
    46   22  145 1    
    47   23  146 1    
    48   23  147 1    
    49   23  148 1    
    50   24   25 am   BACKBONE|DICT|INTERRES
    51   24  149 1    
    52   25   26 2    
    53   25   27 1    
    54   27   28 1    
    55   27   29 1    
    56   27  150 1    
    57   28  151 1    
    58   28  152 1    
    59   28  153 1    
    60   29   30 am   BACKBONE|DICT|INTERRES
    61   29  154 1    
    62   30   31 2    
    63   30   32 1    
    64   32   33 1    
    65   32   34 1    
    66   32  155 1    
    67   33  156 1    
    68   33  157 1    
    69   33  158 1    
    70   34   35 am   BACKBONE|DICT|INTERRES
    71   34  159 1    
    72   35   36 2    
    73   35   37 1    
    74   37   38 1    
    75   37   39 1    
    76   37  160 1    
    77   38  161 1    
    78   38  162 1    
    79   38  163 1    
    80   39   40 am   BACKBONE|DICT|INTERRES
    81   39  164 1    
    82   40   41 2    
    83   40   42 1    
    84   42   43 1    
    85   42   44 1    
    86   42  165 1    
    87   43  166 1    
    88   43  167 1    
    89   43  168 1    
    90   44   45 am   BACKBONE|DICT|INTERRES
    91   44  169 1    
    92   45   46 2    
    93   45   47 1    
    94   47   48 1    
    95   47   49 1    
    96   47  170 1    
    97   48  171 1    
    98   48  172 1    
    99   48  173 1    
   100   49   50 am   BACKBONE|DICT|INTERRES
   101   49  174 1    
   102   50   51 2    
   103   50   52 1    
   104   52   53 1    
   105   52   54 1    
   106   52  175 1    
   107   53  176 1    
   108   53  177 1    
   109   53  178 1    
   110   54   55 am   BACKBONE|DICT|INTERRES
   111   54  179 1    
   112   55   56 2    
   113   55   57 1    
   114   57   58 1    
   115   57   59 1    
   116   57  180 1    
   117   58  181 1    
   118   58  182 1    
   119   58  183 1    
   120   59   60 am   BACKBONE|DICT|INTERRES
   121   59  184 1    
   122   60   61 2    
   123   60   62 1    
   124   62   63 1    
   125   62   64 1    
   126   62  185 1    
   127   63  186 1    
   128   63  187 1    
   129   63  188 1    
   130   64   65 am   BACKBONE|DICT|INTERRES
   131   64  189 1    
   132   65   66 2    
   133   67   68 2    
   134   67   69 am   BACKBONE|DICT|INTERRES
   135   69   70 1    
   136   69  190 1    
   137   70   71 1    
   138   70   72 1    
   139   70  191 1    
   140   71  192 1    
   141   71  193 1    
   142   71  194 1    
   143   72   73 2    
   144   72   74 am   BACKBONE|DICT|INTERRES
   145   74   75 1    
   146   74  195 1    
   147   75   76 1    
   148   75   77 1    
   149   75  196 1    
   150   76  197 1    
   151   76  198 1    
   152   76  199 1    
   153   77   78 2    
   154   77   79 am   BACKBONE|DICT|INTERRES
   155   79   80 1    
   156   79  200 1    
   157   80   81 1    
   158   80   82 1    
   159   80  201 1    
   160   81  202 1    
   161   81  203 1    
   162   81  204 1    
   163   82   83 2    
   164   82   84 am   BACKBONE|DICT|INTERRES
   165   84   85 1    
   166   84  205 1    
   167   85   86 1    
   168   85   87 1    
   169   85  206 1    
   170   86  207 1    
   171   86  208 1    
   172   86  209 1    
   173   87   88 2    
   174   87   89 am   BACKBONE|DICT|INTERRES
   175   89   90 1    
   176   89  210 1    
   177   90   91 1    
   178   90   92 1    
   179   90  211 1    
   180   91  212 1    
   181   91  213 1    
   182   91  214 1    
   183   92   93 2    
   184   92   94 am   BACKBONE|DICT|INTERRES
   185   94   95 1    
   186   94  215 1    
   187   95   96 1    
   188   95   97 1    
   189   95  216 1    
   190   96  217 1    
   191   96  218 1    
   192   96  219 1    
   193   97   98 2    
   194   97   99 am   BACKBONE|DICT|INTERRES
   195   99  100 1    
   196   99  220 1    
   197  100  101 1    
   198  100  102 1    
   199  100  221 1    
   200  101  222 1    
   201  101  223 1    
   202  101  224 1    
   203  102  103 2    
   204  102  104 am   BACKBONE|DICT|INTERRES
   205  104  105 1    
   206  104  225 1    
   207  105  106 1    
   208  105  107 1    
   209  105  226 1    
   210  106  227 1    
   211  106  228 1    
   212  106  229 1    
   213  107  108 2    
   214  107  109 am   BACKBONE|DICT|INTERRES
   215  109  110 1    
   216  109  230 1    
   217  110  111 1    
   218  110  112 1    
   219  110  231 1    
   220  111  232 1    
   221  111  233 1    
   222  111  234 1    
   223  112  113 2    
   224  112  114 am   BACKBONE|DICT|INTERRES
   225  114  115 1    
   226  114  235 1    
   227  115  116 1    
   228  115  117 1    
   229  115  236 1    
   230  116  237 1    
   231  116  238 1    
   232  116  239 1    
   233  117  118 2    
   234  117  119 am   BACKBONE|DICT|INTERRES
   235  119  120 1    
   236  119  240 1    
   237  120  121 1    
   238  120  124 1    
   239  120  241 1    
   240  121  122 am   BACKBONE|DICT|INTERRES
   241  121  123 2    
   242  122  242 1    
   243  122  243 1    
   244  124  125 1    
   245  124  244 1    
   246  124  245 1    
   247  125  126 1    
   248  126  246 1    
   249  126  247 1    
@<TRIPOS>SUBSTRUCTURE
     1 UNK         1 GROUP             0       ****    0 ROOT    
