@<TRIPOS>MOLECULE
3R540
247   249    1
SMALL
USER_CHARGES


@<TRIPOS>ATOM
      1 CA          6.8900  -11.7312  -50.0901 C.3       0 UNK        -0.1800 
      2 C           6.0492  -12.4003  -49.0129 C.2       0 UNK         0.5000 
      3 O           6.3894  -12.3267  -47.8327 O.2       0 UNK        -0.5000 
      4 N           4.9369  -13.0347  -49.4060 N.am      1 UNK        -0.5000 
      5 CA          4.0142  -13.7651  -48.5234 C.3       1 UNK         0.1400 
      6 C6          3.0566  -14.6820  -49.3157 C.3       23 UNK        -0.0398 
      7 S7          2.0292  -13.8029  -50.5449 S.3       23 UNK        -0.2404 
      8 C8          1.6091  -15.1660  -51.6730 C.3       23 UNK        -0.0205 
      9 C9          0.7027  -16.1902  -51.0070 C.ar      23 UNK        -0.0193 
     10 C10        -0.6853  -16.0331  -51.0506 C.ar      23 UNK        -0.1150 
     11 C11        -1.5265  -16.9841  -50.4659 C.ar      23 UNK        -0.0193 
     12 C12        -0.9650  -18.0904  -49.8235 C.ar      23 UNK        -0.1150 
     13 C13         0.4215  -18.2501  -49.7543 C.ar      23 UNK        -0.0193 
     14 C14         1.2499  -17.3018  -50.3590 C.ar      23 UNK        -0.1150 
     15 C15         1.0212  -19.4648  -49.0619 C.3       23 UNK        -0.0205 
     16 S16         0.4419  -19.6325  -47.3418 S.3       23 UNK        -0.2404 
     17 C17         1.1077  -21.2808  -46.9143 C.3       23 UNK        -0.0398 
     18 CA          0.0716  -22.4319  -46.9871 C.3       11 UNK         0.1400 
     19 N          -1.1188  -22.1653  -46.1766 N.am      11 UNK        -0.5000 
     20 C          -2.1167  -23.0253  -45.9393 C.2       10 UNK         0.5000 
     21 O          -2.1500  -24.1621  -46.4127 O.2       10 UNK        -0.5000 
     22 CA         -3.3020  -22.5385  -45.0822 C.3       10 UNK         0.1400 
     23 CB         -3.3337  -23.2440  -43.7132 C.3       10 UNK        -0.1800 
     24 N          -3.4182  -21.0782  -44.9473 N.am      10 UNK        -0.5000 
     25 C          -2.6386  -20.2329  -44.2582 C.2       9 UNK         0.5000 
     26 O          -1.6280  -20.5909  -43.6495 O.2       9 UNK        -0.5000 
     27 CA         -3.0091  -18.7352  -44.3300 C.3       9 UNK         0.1400 
     28 CB         -4.5299  -18.4678  -44.2633 C.3       9 UNK        -0.1800 
     29 N          -2.3079  -17.9364  -43.3239 N.am      9 UNK        -0.5000 
     30 C          -2.4623  -17.9752  -41.9917 C.2       8 UNK         0.5000 
     31 O          -3.2445  -18.7202  -41.3989 O.2       8 UNK        -0.5000 
     32 CA         -1.6159  -16.9768  -41.1810 C.3       8 UNK         0.1400 
     33 CB         -0.2464  -17.5827  -40.8372 C.3       8 UNK        -0.1800 
     34 N          -1.4206  -15.7104  -41.8876 N.am      8 UNK        -0.5000 
     35 C          -2.3825  -14.8107  -42.1373 C.2       7 UNK         0.5000 
     36 O          -3.5354  -14.9035  -41.7143 O.2       7 UNK        -0.5000 
     37 CA         -1.9950  -13.6189  -43.0315 C.3       7 UNK         0.1400 
     38 CB         -1.2537  -12.5396  -42.2272 C.3       7 UNK        -0.1800 
     39 N          -1.1752  -14.0350  -44.1705 N.am      7 UNK        -0.5000 
     40 C          -1.6462  -14.6828  -45.2464 C.2       6 UNK         0.5000 
     41 O          -2.8356  -14.9491  -45.4136 O.2       6 UNK        -0.5000 
     42 CA         -0.6181  -15.1174  -46.3096 C.3       6 UNK         0.1400 
     43 CB         -0.5489  -14.0942  -47.4525 C.3       6 UNK        -0.1800 
     44 N           0.7235  -15.3220  -45.7578 N.am      6 UNK        -0.5000 
     45 C           1.0524  -16.3531  -44.9697 C.2       5 UNK         0.5000 
     46 O           0.2524  -17.2182  -44.6123 O.2       5 UNK        -0.5000 
     47 CA          2.5024  -16.3957  -44.4512 C.3       5 UNK         0.1400 
     48 CB          3.4822  -16.7509  -45.5805 C.3       5 UNK        -0.1800 
     49 N           2.9392  -15.1653  -43.7794 N.am      5 UNK        -0.5000 
     50 C           2.3393  -14.6165  -42.7152 C.2       4 UNK         0.5000 
     51 O           1.2769  -15.0316  -42.2576 O.2       4 UNK        -0.5000 
     52 CA          3.0003  -13.4115  -42.0172 C.3       4 UNK         0.1400 
     53 CB          3.7942  -13.8703  -40.7795 C.3       4 UNK        -0.1800 
     54 N           3.8066  -12.5241  -42.8617 N.am      4 UNK        -0.5000 
     55 C           4.9758  -12.7498  -43.4719 C.2       3 UNK         0.5000 
     56 O           5.5302  -13.8492  -43.5105 O.2       3 UNK        -0.5000 
     57 CA          5.5962  -11.5300  -44.1866 C.3       3 UNK         0.1400 
     58 CB          7.0653  -11.7614  -44.5807 C.3       3 UNK        -0.1800 
     59 N           4.8292  -11.1823  -45.3814 N.am      3 UNK        -0.5000 
     60 C           3.6214  -10.5956  -45.3886 C.2       2 UNK         0.5000 
     61 O           3.0833  -10.1437  -44.3763 O.2       2 UNK        -0.5000 
     62 CA          2.8641  -10.5413  -46.7326 C.3       2 UNK         0.1400 
     63 CB          2.9943   -9.1500  -47.3698 C.3       2 UNK        -0.1800 
     64 N           3.3191  -11.5479  -47.6927 N.am      2 UNK        -0.5000 
     65 C           3.2520  -12.8753  -47.5152 C.2       1 UNK         0.5000 
     66 O           2.6597  -13.4033  -46.5729 O.2       1 UNK        -0.5000 
     67 C          -0.2631  -22.8209  -48.4424 C.2       11 UNK         0.5000 
     68 O           0.3910  -23.7043  -48.9928 O.2       11 UNK        -0.5000 
     69 N          -1.2972  -22.1952  -49.0254 N.am      12 UNK        -0.5000 
     70 CA         -1.7701  -22.4914  -50.3793 C.3       12 UNK         0.1400 
     71 CB         -2.7272  -21.3905  -50.8543 C.3       12 UNK        -0.1800 
     72 C          -2.4333  -23.8751  -50.4897 C.2       12 UNK         0.5000 
     73 O          -2.2771  -24.5397  -51.5138 O.2       12 UNK        -0.5000 
     74 N          -3.1243  -24.3085  -49.4266 N.am      13 UNK        -0.5000 
     75 CA         -3.7031  -25.6479  -49.3327 C.3       13 UNK         0.1400 
     76 CB         -4.7425  -25.6972  -48.2036 C.3       13 UNK        -0.1800 
     77 C          -2.6135  -26.7160  -49.1419 C.2       13 UNK         0.5000 
     78 O          -2.6570  -27.7486  -49.8102 O.2       13 UNK        -0.5000 
     79 N          -1.6276  -26.4228  -48.2808 N.am      14 UNK        -0.5000 
     80 CA         -0.4578  -27.2686  -48.0276 C.3       14 UNK         0.1400 
     81 CB          0.3465  -26.6859  -46.8560 C.3       14 UNK        -0.1800 
     82 C           0.4375  -27.4523  -49.2698 C.2       14 UNK         0.5000 
     83 O           0.9303  -28.5553  -49.5077 O.2       14 UNK        -0.5000 
     84 N           0.6001  -26.3799  -50.0566 N.am      15 UNK        -0.5000 
     85 CA          1.3283  -26.3655  -51.3278 C.3       15 UNK         0.1400 
     86 CB          1.6857  -24.9103  -51.6724 C.3       15 UNK        -0.1800 
     87 C           0.5557  -27.0096  -52.4979 C.2       15 UNK         0.5000 
     88 O           1.1425  -27.1978  -53.5643 O.2       15 UNK        -0.5000 
     89 N          -0.7376  -27.3067  -52.2958 N.am      16 UNK        -0.5000 
     90 CA         -1.7003  -27.8176  -53.2790 C.3       16 UNK         0.1400 
     91 CB         -1.2980  -29.2196  -53.7825 C.3       16 UNK        -0.1800 
     92 C          -1.9890  -26.8191  -54.4226 C.2       16 UNK         0.5000 
     93 O          -2.3276  -27.2281  -55.5345 O.2       16 UNK        -0.5000 
     94 N          -1.8774  -25.5206  -54.1155 N.am      17 UNK        -0.5000 
     95 CA         -2.2393  -24.4034  -54.9879 C.3       17 UNK         0.1400 
     96 CB         -1.3496  -23.2001  -54.6358 C.3       17 UNK        -0.1800 
     97 C          -3.7293  -24.0279  -54.8563 C.2       17 UNK         0.5000 
     98 O          -4.2376  -23.2885  -55.6996 O.2       17 UNK        -0.5000 
     99 N          -4.3913  -24.5415  -53.8075 N.am      18 UNK        -0.5000 
    100 CA        -5.7762  -24.3027  -53.4027 C.3       18 UNK         0.1400 
    101 CB        -6.7829  -24.7429  -54.4886 C.3       18 UNK        -0.1800 
    102 C         -5.9604  -22.8554  -52.9186 C.2       18 UNK         0.5000 
    103 O         -5.6577  -22.5826  -51.7574 O.2       18 UNK        -0.5000 
    104 N         -6.4610  -21.9672  -53.7915 N.am      19 UNK        -0.5000 
    105 CA        -6.6674  -20.5264  -53.5740 C.3       19 UNK         0.1400 
    106 CB        -5.3072  -19.7991  -53.5307 C.3       19 UNK        -0.1800 
    107 C         -7.5420  -20.2058  -52.3410 C.2       19 UNK         0.5000 
    108 O         -7.2732  -19.2393  -51.6246 O.2       19 UNK        -0.5000 
    109 N         -8.5371  -21.0695  -52.0796 N.am      20 UNK        -0.5000 
    110 CA        -9.4132  -21.0801  -50.8987 C.3       20 UNK         0.1400 
    111 CB       -10.3826  -19.8804  -50.9364 C.3       20 UNK        -0.1800 
    112 C         -8.6355  -21.1738  -49.5646 C.2       20 UNK         0.5000 
    113 O         -9.0730  -20.6199  -48.5541 O.2       20 UNK        -0.5000 
    114 N         -7.4596  -21.8228  -49.6029 N.am      21 UNK        -0.5000 
    115 CA        -6.4625  -21.9408  -48.5333 C.3       21 UNK         0.1400 
    116 CB        -7.0373  -22.7371  -47.3434 C.3       21 UNK        -0.1800 
    117 C         -5.8637  -20.5863  -48.0934 C.2       21 UNK         0.5000 
    118 O         -5.2611  -20.5145  -47.0231 O.2       21 UNK        -0.5000 
    119 N         -6.0412  -19.5391  -48.9111 N.am      22 UNK        -0.5000 
    120 CA        -5.8033  -18.1270  -48.5778 C.3       22 UNK         0.1400 
    121 C         -6.8175  -17.5335  -47.5480 C.2       22 UNK         0.5000 
    122 N         -7.9540  -18.1715  -47.2873 N.am      22 UNK        -0.7600 
    123 O         -6.5934  -16.4632  -46.9910 O.2       22 UNK        -0.5000 
    124 C124       -4.3137  -17.8218  -48.2402 C.3       23 UNK        -0.0398 
    125 S125       -3.7464  -16.2497  -48.9751 S.3       23 UNK        -0.2404 
    126 C126       -3.0370  -16.8238  -50.5499 C.3       23 UNK        -0.0205 
    127 H127        6.4596  -11.8664  -51.0826 H         1 UNK         0.0600 
    128 H128        6.9672  -10.6616  -49.8949 H         1 UNK         0.0600 
    129 H129        7.8956  -12.1515  -50.0949 H         1 UNK         0.0600 
    130 H130        4.6886  -13.0400  -50.3858 H         1 UNK         0.3000 
    131 H131        4.6360  -14.4203  -47.9097 H         1 UNK         0.0600 
    132 H132        2.4034  -15.2364  -48.6392 H         1 UNK         0.0800 
    133 H133        3.6494  -15.4355  -49.8353 H         1 UNK         0.0800 
    134 H134        2.5221  -15.6412  -52.0348 H         1 UNK         0.0800 
    135 H135        1.1143  -14.7535  -52.5536 H         1 UNK         0.0800 
    136 H136       -1.1097  -15.1727  -51.5488 H         1 UNK         0.1150 
    137 H137       -1.6030  -18.8308  -49.3674 H         1 UNK         0.1150 
    138 H138        2.3224  -17.4300  -50.3284 H         1 UNK         0.1150 
    139 H139        0.7569  -20.3516  -49.6373 H         1 UNK         0.0800 
    140 H140        2.1109  -19.4098  -49.0593 H         1 UNK         0.0800 
    141 H141        1.4898  -21.2149  -45.8947 H         1 UNK         0.0800 
    142 H142        1.9794  -21.5028  -47.5327 H         1 UNK         0.0800 
    143 H143        0.5462  -23.3097  -46.5441 H         1 UNK         0.0600 
    144 H144       -1.1488  -21.2689  -45.7097 H         1 UNK         0.3000 
    145 H145       -4.1969  -22.8473  -45.6211 H         1 UNK         0.0600 
    146 H146       -4.2007  -22.9340  -43.1299 H         1 UNK         0.0600 
    147 H147       -3.3952  -24.3260  -43.8365 H         1 UNK         0.0600 
    148 H148       -2.4399  -23.0371  -43.1246 H         1 UNK         0.0600 
    149 H149       -4.1754  -20.6828  -45.5022 H         1 UNK         0.3000 
    150 H150       -2.6455  -18.3754  -45.2935 H         1 UNK         0.0600 
    151 H151       -5.0479  -18.8492  -45.1401 H         1 UNK         0.0600 
    152 H152       -4.7372  -17.3980  -44.2211 H         1 UNK         0.0600 
    153 H153       -4.9883  -18.9321  -43.3899 H         1 UNK         0.0600 
    154 H154       -1.5475  -17.3704  -43.6860 H         1 UNK         0.3000 
    155 H155       -2.1431  -16.7687  -40.2477 H         1 UNK         0.0600 
    156 H156        0.3368  -17.7899  -41.7357 H         1 UNK         0.0600 
    157 H157       -0.3594  -18.5216  -40.2940 H         1 UNK         0.0600 
    158 H158        0.3363  -16.9090  -40.2088 H         1 UNK         0.0600 
    159 H159       -0.4752  -15.5212  -42.2145 H         1 UNK         0.3000 
    160 H160       -2.9163  -13.1755  -43.4156 H         1 UNK         0.0600 
    161 H161       -1.0028  -11.6828  -42.8527 H         1 UNK         0.0600 
    162 H162       -0.3302  -12.9191  -41.7909 H         1 UNK         0.0600 
    163 H163       -1.8738  -12.1735  -41.4081 H         1 UNK         0.0600 
    164 H164       -0.1786  -13.8951  -44.0950 H         1 UNK         0.3000 
    165 H165       -0.9633  -16.0649  -46.7307 H         1 UNK         0.0600 
    166 H166        0.0878  -14.4538  -48.2599 H         1 UNK         0.0600 
    167 H167       -1.5371  -13.9180  -47.8794 H         1 UNK         0.0600 
    168 H168       -0.1574  -13.1344  -47.1138 H         1 UNK         0.0600 
    169 H169        1.4333  -14.6296  -45.9914 H         1 UNK         0.3000 
    170 H170        2.5509  -17.1956  -43.7094 H         1 UNK         0.0600 
    171 H171        3.1806  -17.6706  -46.0841 H         1 UNK         0.0600 
    172 H172        4.4894  -16.9062  -45.1937 H         1 UNK         0.0600 
    173 H173        3.5312  -15.9665  -46.3342 H         1 UNK         0.0600 
    174 H174        3.8283  -14.7719  -44.0660 H         1 UNK         0.3000 
    175 H175        2.1801  -12.7883  -41.6581 H         1 UNK         0.0600 
    176 H176        4.1897  -13.0187  -40.2258 H         1 UNK         0.0600 
    177 H177        3.1577  -14.4339  -40.0961 H         1 UNK         0.0600 
    178 H178        4.6312  -14.5152  -41.0485 H         1 UNK         0.0600 
    179 H179        3.4078  -11.6015  -43.0068 H         1 UNK         0.3000 
    180 H180        5.5691  -10.6870  -43.4930 H         1 UNK         0.0600 
    181 H181        7.1733  -12.6025  -45.2664 H         1 UNK         0.0600 
    182 H182        7.6747  -11.9752  -43.7019 H         1 UNK         0.0600 
    183 H183        7.4879  -10.8804  -45.0639 H         1 UNK         0.0600 
    184 H184        5.1989  -11.5367  -46.2566 H         1 UNK         0.3000 
    185 H185        1.8093  -10.7302  -46.5231 H         1 UNK         0.0600 
    186 H186        4.0305   -8.9172  -47.6188 H         1 UNK         0.0600 
    187 H187        2.4039   -9.0773  -48.2834 H         1 UNK         0.0600 
    188 H188        2.6371   -8.3744  -46.6910 H         1 UNK         0.0600 
    189 H189        3.8208  -11.2082  -48.4999 H         1 UNK         0.3000 
    190 H190       -1.7851  -21.4812  -48.5056 H         1 UNK         0.3000 
    191 H191       -0.9060  -22.4922  -51.0470 H         1 UNK         0.0600 
    192 H192       -2.2225  -20.4287  -50.9221 H         1 UNK         0.0600 
    193 H193       -3.5865  -21.2807  -50.1924 H         1 UNK         0.0600 
    194 H194       -3.1065  -21.6182  -51.8510 H         1 UNK         0.0600 
    195 H195       -3.1452  -23.7411  -48.5928 H         1 UNK         0.3000 
    196 H196       -4.2210  -25.8655  -50.2696 H         1 UNK         0.0600 
    197 H197       -5.1703  -26.6964  -48.1126 H         1 UNK         0.0600 
    198 H198       -5.5654  -25.0128  -48.4033 H         1 UNK         0.0600 
    199 H199       -4.3128  -25.4368  -47.2366 H         1 UNK         0.0600 
    200 H200       -1.6937  -25.5635  -47.7437 H         1 UNK         0.3000 
    201 H201       -0.8214  -28.2551  -47.7327 H         1 UNK         0.0600 
    202 H202       -0.2700  -26.5903  -45.9620 H         1 UNK         0.0600 
    203 H203        0.7466  -25.7004  -47.0935 H         1 UNK         0.0600 
    204 H204        1.1899  -27.3299  -46.6038 H         1 UNK         0.0600 
    205 H205        0.2349  -25.4860  -49.7405 H         1 UNK         0.3000 
    206 H206        2.2572  -26.9253  -51.2022 H         1 UNK         0.0600 
    207 H207        2.2901  -24.4559  -50.8872 H         1 UNK         0.0600 
    208 H208        2.2618  -24.8531  -52.5967 H         1 UNK         0.0600 
    209 H209        0.7918  -24.2993  -51.8044 H         1 UNK         0.0600 
    210 H210       -1.1209  -27.1212  -51.3778 H         1 UNK         0.3000 
    211 H211       -2.6416  -27.9267  -52.7387 H         1 UNK         0.0600 
    212 H212       -0.4064  -29.1878  -54.4089 H         1 UNK         0.0600 
    213 H213       -2.0967  -29.6646  -54.3770 H         1 UNK         0.0600 
    214 H214       -1.1006  -29.8950  -52.9500 H         1 UNK         0.0600 
    215 H215       -1.6641  -25.2736  -53.1529 H         1 UNK         0.3000 
    216 H216       -2.0530  -24.6772  -56.0283 H         1 UNK         0.0600 
    217 H217       -1.5541  -22.3564  -55.2960 H         1 UNK         0.0600 
    218 H218       -0.2930  -23.4470  -54.7412 H         1 UNK         0.0600 
    219 H219       -1.5140  -22.8622  -53.6123 H         1 UNK         0.0600 
    220 H220       -3.8348  -25.0590  -53.1405 H         1 UNK         0.3000 
    221 H221       -5.9483  -24.9373  -52.5319 H         1 UNK         0.0600 
    222 H222       -6.6702  -24.1923  -55.4222 H         1 UNK         0.0600 
    223 H223       -6.6648  -25.8020  -54.7178 H         1 UNK         0.0600 
    224 H224       -7.8089  -24.6011  -54.1469 H         1 UNK         0.0600 
    225 H225       -6.6585  -22.2983  -54.7258 H         1 UNK         0.3000 
    226 H226       -7.2149  -20.1571  -54.4421 H         1 UNK         0.0600 
    227 H227       -4.6922  -20.0573  -54.3928 H         1 UNK         0.0600 
    228 H228       -5.4410  -18.7168  -53.5394 H         1 UNK         0.0600 
    229 H229       -4.7460  -20.0498  -52.6306 H         1 UNK         0.0600 
    230 H230       -8.6647  -21.8376  -52.7234 H         1 UNK         0.3000 
    231 H231      -10.0098  -21.9908  -50.9646 H         1 UNK         0.0600 
    232 H232      -10.9225  -19.8394  -51.8823 H         1 UNK         0.0600 
    233 H233       -9.8592  -18.9325  -50.8074 H         1 UNK         0.0600 
    234 H234      -11.1273  -19.9528  -50.1429 H         1 UNK         0.0600 
    235 H235       -7.1409  -22.1778  -50.4991 H         1 UNK         0.3000 
    236 H236       -5.6361  -22.5158  -48.9528 H         1 UNK         0.0600 
    237 H237       -6.2538  -23.0154  -46.6404 H         1 UNK         0.0600 
    238 H238       -7.7786  -22.1603  -46.7897 H         1 UNK         0.0600 
    239 H239       -7.5132  -23.6593  -47.6765 H         1 UNK         0.0600 
    240 H240       -6.5311  -19.6857  -49.7876 H         1 UNK         0.3000 
    241 H241       -6.0443  -17.6126  -49.5087 H         1 UNK         0.0600 
    242 H242       -8.5997  -17.7681  -46.6277 H         1 UNK         0.3800 
    243 H243       -8.1945  -19.0438  -47.7472 H         1 UNK         0.3800 
    244 H244       -4.1525  -17.7816  -47.1629 H         1 UNK         0.0800 
    245 H245       -3.6704  -18.6245  -48.5964 H         1 UNK         0.0800 
    246 H246       -3.2937  -16.1000  -51.3249 H         1 UNK         0.0800 
    247 H247       -3.4971  -17.7643  -50.8574 H         1 UNK         0.0800 
@<TRIPOS>BOND
     1    1    2 1    
     2    1  127 1    
     3    1  128 1    
     4    1  129 1    
     5    2    3 2    
     6    2    4 am   BACKBONE|DICT|INTERRES
     7    4    5 1    
     8    4  130 1    
     9    5    6 1    
    10    5   65 1    
    11    5  131 1    
    12    6    7 1    
    13    6  132 1    
    14    6  133 1    
    15    7    8 1    
    16    8    9 1    
    17    8  134 1    
    18    8  135 1    
    19    9   10 ar   
    20    9   14 ar   
    21   10   11 ar   
    22   10  136 1    
    23   11   12 ar   
    24   11  126 1    
    25   12   13 ar   
    26   12  137 1    
    27   13   14 ar   
    28   13   15 1    
    29   14  138 1    
    30   15   16 1    
    31   15  139 1    
    32   15  140 1    
    33   16   17 1    
    34   17   18 1    
    35   17  141 1    
    36   17  142 1    
    37   18   19 1    
    38   18   67 1    
    39   18  143 1    
    40   19   20 am   BACKBONE|DICT|INTERRES
    41   19  144 1    
    42   20   21 2    
    43   20   22 1    
    44   22   23 1    
    45   22   24 1    
    46   22  145 1    
    47   23  146 1    
    48   23  147 1    
    49   23  148 1    
    50   24   25 am   BACKBONE|DICT|INTERRES
    51   24  149 1    
    52   25   26 2    
    53   25   27 1    
    54   27   28 1    
    55   27   29 1    
    56   27  150 1    
    57   28  151 1    
    58   28  152 1    
    59   28  153 1    
    60   29   30 am   BACKBONE|DICT|INTERRES
    61   29  154 1    
    62   30   31 2    
    63   30   32 1    
    64   32   33 1    
    65   32   34 1    
    66   32  155 1    
    67   33  156 1    
    68   33  157 1    
    69   33  158 1    
    70   34   35 am   BACKBONE|DICT|INTERRES
    71   34  159 1    
    72   35   36 2    
    73   35   37 1    
    74   37   38 1    
    75   37   39 1    
    76   37  160 1    
    77   38  161 1    
    78   38  162 1    
    79   38  163 1    
    80   39   40 am   BACKBONE|DICT|INTERRES
    81   39  164 1    
    82   40   41 2    
    83   40   42 1    
    84   42   43 1    
    85   42   44 1    
    86   42  165 1    
    87   43  166 1    
    88   43  167 1    
    89   43  168 1    
    90   44   45 am   BACKBONE|DICT|INTERRES
    91   44  169 1    
    92   45   46 2    
    93   45   47 1    
    94   47   48 1    
    95   47   49 1    
    96   47  170 1    
    97   48  171 1    
    98   48  172 1    
    99   48  173 1    
   100   49   50 am   BACKBONE|DICT|INTERRES
   101   49  174 1    
   102   50   51 2    
   103   50   52 1    
   104   52   53 1    
   105   52   54 1    
   106   52  175 1    
   107   53  176 1    
   108   53  177 1    
   109   53  178 1    
   110   54   55 am   BACKBONE|DICT|INTERRES
   111   54  179 1    
   112   55   56 2    
   113   55   57 1    
   114   57   58 1    
   115   57   59 1    
   116   57  180 1    
   117   58  181 1    
   118   58  182 1    
   119   58  183 1    
   120   59   60 am   BACKBONE|DICT|INTERRES
   121   59  184 1    
   122   60   61 2    
   123   60   62 1    
   124   62   63 1    
   125   62   64 1    
   126   62  185 1    
   127   63  186 1    
   128   63  187 1    
   129   63  188 1    
   130   64   65 am   BACKBONE|DICT|INTERRES
   131   64  189 1    
   132   65   66 2    
   133   67   68 2    
   134   67   69 am   BACKBONE|DICT|INTERRES
   135   69   70 1    
   136   69  190 1    
   137   70   71 1    
   138   70   72 1    
   139   70  191 1    
   140   71  192 1    
   141   71  193 1    
   142   71  194 1    
   143   72   73 2    
   144   72   74 am   BACKBONE|DICT|INTERRES
   145   74   75 1    
   146   74  195 1    
   147   75   76 1    
   148   75   77 1    
   149   75  196 1    
   150   76  197 1    
   151   76  198 1    
   152   76  199 1    
   153   77   78 2    
   154   77   79 am   BACKBONE|DICT|INTERRES
   155   79   80 1    
   156   79  200 1    
   157   80   81 1    
   158   80   82 1    
   159   80  201 1    
   160   81  202 1    
   161   81  203 1    
   162   81  204 1    
   163   82   83 2    
   164   82   84 am   BACKBONE|DICT|INTERRES
   165   84   85 1    
   166   84  205 1    
   167   85   86 1    
   168   85   87 1    
   169   85  206 1    
   170   86  207 1    
   171   86  208 1    
   172   86  209 1    
   173   87   88 2    
   174   87   89 am   BACKBONE|DICT|INTERRES
   175   89   90 1    
   176   89  210 1    
   177   90   91 1    
   178   90   92 1    
   179   90  211 1    
   180   91  212 1    
   181   91  213 1    
   182   91  214 1    
   183   92   93 2    
   184   92   94 am   BACKBONE|DICT|INTERRES
   185   94   95 1    
   186   94  215 1    
   187   95   96 1    
   188   95   97 1    
   189   95  216 1    
   190   96  217 1    
   191   96  218 1    
   192   96  219 1    
   193   97   98 2    
   194   97   99 am   BACKBONE|DICT|INTERRES
   195   99  100 1    
   196   99  220 1    
   197  100  101 1    
   198  100  102 1    
   199  100  221 1    
   200  101  222 1    
   201  101  223 1    
   202  101  224 1    
   203  102  103 2    
   204  102  104 am   BACKBONE|DICT|INTERRES
   205  104  105 1    
   206  104  225 1    
   207  105  106 1    
   208  105  107 1    
   209  105  226 1    
   210  106  227 1    
   211  106  228 1    
   212  106  229 1    
   213  107  108 2    
   214  107  109 am   BACKBONE|DICT|INTERRES
   215  109  110 1    
   216  109  230 1    
   217  110  111 1    
   218  110  112 1    
   219  110  231 1    
   220  111  232 1    
   221  111  233 1    
   222  111  234 1    
   223  112  113 2    
   224  112  114 am   BACKBONE|DICT|INTERRES
   225  114  115 1    
   226  114  235 1    
   227  115  116 1    
   228  115  117 1    
   229  115  236 1    
   230  116  237 1    
   231  116  238 1    
   232  116  239 1    
   233  117  118 2    
   234  117  119 am   BACKBONE|DICT|INTERRES
   235  119  120 1    
   236  119  240 1    
   237  120  121 1    
   238  120  124 1    
   239  120  241 1    
   240  121  122 am   BACKBONE|DICT|INTERRES
   241  121  123 2    
   242  122  242 1    
   243  122  243 1    
   244  124  125 1    
   245  124  244 1    
   246  124  245 1    
   247  125  126 1    
   248  126  246 1    
   249  126  247 1    
@<TRIPOS>SUBSTRUCTURE
     1 UNK         1 GROUP             0       ****    0 ROOT    
