@<TRIPOS>MOLECULE
3R540
247   249    1
SMALL
USER_CHARGES


@<TRIPOS>ATOM
      1 CA          7.8920  -14.7528  -43.4301 C.3       0 UNK        -0.1800 
      2 C           6.5908  -14.1351  -43.9215 C.2       0 UNK         0.5000 
      3 O           5.9898  -13.3248  -43.2147 O.2       0 UNK        -0.5000 
      4 N           6.1510  -14.5101  -45.1295 N.am      1 UNK        -0.5000 
      5 CA          4.9396  -14.0026  -45.7755 C.3       1 UNK         0.1400 
      6 C6          4.3743  -15.0118  -46.8051 C.3       23 UNK        -0.0398 
      7 S7          2.6690  -14.5960  -47.3257 S.3       23 UNK        -0.2404 
      8 C8          2.8200  -14.5984  -49.1414 C.3       23 UNK        -0.0205 
      9 C9          2.5445  -15.9710  -49.7446 C.ar      23 UNK        -0.0193 
     10 C10         1.4990  -16.1378  -50.6586 C.ar      23 UNK        -0.1150 
     11 C11         1.2352  -17.3913  -51.2199 C.ar      23 UNK        -0.0193 
     12 C12         2.0278  -18.4848  -50.8618 C.ar      23 UNK        -0.1150 
     13 C13         3.0719  -18.3346  -49.9445 C.ar      23 UNK        -0.0193 
     14 C14         3.3324  -17.0748  -49.4020 C.ar      23 UNK        -0.1150 
     15 C15         3.9161  -19.5306  -49.5283 C.3       23 UNK        -0.0205 
     16 S16         3.2565  -20.3300  -48.0294 S.3       23 UNK        -0.2404 
     17 C17         1.6923  -20.9990  -48.6781 C.3       23 UNK        -0.0398 
     18 CA          1.1198  -22.1543  -47.8274 C.3       11 UNK         0.1400 
     19 N           0.6259  -21.7134  -46.5174 N.am      11 UNK        -0.5000 
     20 C           0.1698  -22.5369  -45.5614 C.2       10 UNK         0.5000 
     21 O           0.2002  -23.7649  -45.6465 O.2       10 UNK        -0.5000 
     22 CA         -0.4903  -21.8876  -44.3312 C.3       10 UNK         0.1400 
     23 CB          0.5626  -21.4370  -43.3081 C.3       10 UNK        -0.1800 
     24 N          -1.3652  -20.7690  -44.6905 N.am      10 UNK        -0.5000 
     25 C          -2.4917  -20.8994  -45.4069 C.2       9 UNK         0.5000 
     26 O          -2.9331  -21.9845  -45.7805 O.2       9 UNK        -0.5000 
     27 CA         -3.2386  -19.6145  -45.8084 C.3       9 UNK         0.1400 
     28 CB         -4.2056  -19.1790  -44.6985 C.3       9 UNK        -0.1800 
     29 N          -2.3405  -18.5115  -46.1488 N.am      9 UNK        -0.5000 
     30 C          -1.5018  -18.5111  -47.1958 C.2       8 UNK         0.5000 
     31 O          -1.4367  -19.4307  -48.0127 O.2       8 UNK        -0.5000 
     32 CA         -0.5316  -17.3163  -47.3044 C.3       8 UNK         0.1400 
     33 CB         -1.2387  -16.0699  -47.8556 C.3       8 UNK        -0.1800 
     34 N           0.0835  -16.9797  -46.0202 N.am      8 UNK        -0.5000 
     35 C           0.8489  -17.8099  -45.2992 C.2       7 UNK         0.5000 
     36 O           1.1709  -18.9381  -45.6684 O.2       7 UNK        -0.5000 
     37 CA          1.2595  -17.3272  -43.8977 C.3       7 UNK         0.1400 
     38 CB          2.4778  -16.3970  -43.9565 C.3       7 UNK        -0.1800 
     39 N           0.1561  -16.6512  -43.2156 N.am      7 UNK        -0.5000 
     40 C          -0.9146  -17.2842  -42.7166 C.2       6 UNK         0.5000 
     41 O          -1.0679  -18.5041  -42.7611 O.2       6 UNK        -0.5000 
     42 CA         -2.0117  -16.4049  -42.0896 C.3       6 UNK         0.1400 
     43 CB         -1.6613  -16.0561  -40.6354 C.3       6 UNK        -0.1800 
     44 N          -2.2476  -15.1718  -42.8411 N.am      6 UNK        -0.5000 
     45 C          -2.7623  -15.1278  -44.0778 C.2       5 UNK         0.5000 
     46 O          -3.1111  -16.1243  -44.7082 O.2       5 UNK        -0.5000 
     47 CA         -2.8671  -13.7410  -44.7377 C.3       5 UNK         0.1400 
     48 CB         -4.1957  -13.0665  -44.3653 C.3       5 UNK        -0.1800 
     49 N          -1.7570  -12.8442  -44.4048 N.am      5 UNK        -0.5000 
     50 C          -0.4692  -13.0879  -44.6792 C.2       4 UNK         0.5000 
     51 O          -0.0614  -14.1331  -45.1900 O.2       4 UNK        -0.5000 
     52 CA          0.5347  -11.9925  -44.2904 C.3       4 UNK         0.1400 
     53 CB          1.5346  -12.5071  -43.2427 C.3       4 UNK        -0.1800 
     54 N           1.2690  -11.5301  -45.4627 N.am      4 UNK        -0.5000 
     55 C           0.7909  -10.6917  -46.3924 C.2       3 UNK         0.5000 
     56 O          -0.3452  -10.2157  -46.3542 O.2       3 UNK        -0.5000 
     57 CA          1.7513  -10.3181  -47.5468 C.3       3 UNK         0.1400 
     58 CB          1.4214   -8.9532  -48.1857 C.3       3 UNK        -0.1800 
     59 N           3.1688  -10.3906  -47.1665 N.am      3 UNK        -0.5000 
     60 C           3.8034   -9.6915  -46.2118 C.2       2 UNK         0.5000 
     61 O           3.2852   -8.7756  -45.5712 O.2       2 UNK        -0.5000 
     62 CA          5.2360  -10.1636  -45.8754 C.3       2 UNK         0.1400 
     63 CB          5.8773   -9.3623  -44.7284 C.3       2 UNK        -0.1800 
     64 N           5.2317  -11.5831  -45.5108 N.am      2 UNK        -0.5000 
     65 C           5.1892  -12.6025  -46.3760 C.2       1 UNK         0.5000 
     66 O           5.2991  -12.4530  -47.5944 O.2       1 UNK        -0.5000 
     67 C           0.0273  -22.8930  -48.6253 C.2       11 UNK         0.5000 
     68 O           0.3003  -23.9602  -49.1751 O.2       11 UNK        -0.5000 
     69 N          -1.1910  -22.3334  -48.6487 N.am      12 UNK        -0.5000 
     70 CA         -2.3570  -22.9348  -49.2945 C.3       12 UNK         0.1400 
     71 CB         -3.5377  -21.9596  -49.2493 C.3       12 UNK        -0.1800 
     72 C          -2.7403  -24.2890  -48.6738 C.2       12 UNK         0.5000 
     73 O          -2.9515  -25.2501  -49.4106 O.2       12 UNK        -0.5000 
     74 N          -2.7657  -24.3578  -47.3356 N.am      13 UNK        -0.5000 
     75 CA         -3.0251  -25.5753  -46.5676 C.3       13 UNK         0.1400 
     76 CB         -3.1223  -25.2350  -45.0732 C.3       13 UNK        -0.1800 
     77 C          -1.9748  -26.6734  -46.8131 C.2       13 UNK         0.5000 
     78 O          -2.3484  -27.8326  -46.9925 O.2       13 UNK        -0.5000 
     79 N          -0.6911  -26.2887  -46.8688 N.am      14 UNK        -0.5000 
     80 CA          0.4292  -27.1749  -47.1972 C.3       14 UNK         0.1400 
     81 CB          1.7550  -26.4399  -46.9493 C.3       14 UNK        -0.1800 
     82 C           0.3657  -27.7181  -48.6386 C.2       14 UNK         0.5000 
     83 O           0.7115  -28.8777  -48.8673 O.2       14 UNK        -0.5000 
     84 N          -0.1072  -26.8852  -49.5750 N.am      15 UNK        -0.5000 
     85 CA         -0.3584  -27.2439  -50.9727 C.3       15 UNK         0.1400 
     86 CB         -0.3932  -25.9552  -51.8111 C.3       15 UNK        -0.1800 
     87 C          -1.6554  -28.0563  -51.1806 C.2       15 UNK         0.5000 
     88 O          -1.8678  -28.5640  -52.2826 O.2       15 UNK        -0.5000 
     89 N          -2.4986  -28.1488  -50.1403 N.am      16 UNK        -0.5000 
     90 CA         -3.8435  -28.7351  -50.1208 C.3       16 UNK         0.1400 
     91 CB         -3.7894  -30.2584  -50.3600 C.3       16 UNK        -0.1800 
     92 C          -4.8208  -27.9985  -51.0637 C.2       16 UNK         0.5000 
     93 O          -5.6351  -28.6314  -51.7392 O.2       16 UNK        -0.5000 
     94 N          -4.7066  -26.6672  -51.0924 N.am      17 UNK        -0.5000 
     95 CA         -5.4903  -25.7448  -51.9053 C.3       17 UNK         0.1400 
     96 CB         -4.5112  -24.9534  -52.7876 C.3       17 UNK        -0.1800 
     97 C          -6.2973  -24.7938  -51.0041 C.2       17 UNK         0.5000 
     98 O          -6.0812  -24.7447  -49.7904 O.2       17 UNK        -0.5000 
     99 N          -7.2173  -24.0412  -51.6192 N.am      18 UNK        -0.5000 
    100 CA        -8.0017  -23.0002  -50.9572 C.3       18 UNK         0.1400 
    101 CB        -9.1883  -22.6170  -51.8549 C.3       18 UNK        -0.1800 
    102 C         -7.1384  -21.7617  -50.6665 C.2       18 UNK         0.5000 
    103 O         -6.3541  -21.3520  -51.5272 O.2       18 UNK        -0.5000 
    104 N         -7.3295  -21.1574  -49.4865 N.am      19 UNK        -0.5000 
    105 CA        -6.6312  -19.9423  -49.0536 C.3       19 UNK         0.1400 
    106 CB        -6.8841  -19.7099  -47.5567 C.3       19 UNK        -0.1800 
    107 C         -7.0088  -18.6971  -49.8767 C.2       19 UNK         0.5000 
    108 O         -6.1715  -17.8129  -50.0496 O.2       19 UNK        -0.5000 
    109 N         -8.2382  -18.6729  -50.4118 N.am      20 UNK        -0.5000 
    110 CA        -8.7325  -17.6359  -51.3218 C.3       20 UNK         0.1400 
    111 CB       -10.2507  -17.7982  -51.4905 C.3       20 UNK        -0.1800 
    112 C         -8.0310  -17.6587  -52.6948 C.2       20 UNK         0.5000 
    113 O         -7.8543  -16.6039  -53.3048 O.2       20 UNK        -0.5000 
    114 N         -7.6287  -18.8562  -53.1423 N.am      21 UNK        -0.5000 
    115 CA        -6.8425  -19.0736  -54.3585 C.3       21 UNK         0.1400 
    116 CB        -7.1964  -20.4579  -54.9262 C.3       21 UNK        -0.1800 
    117 C         -5.3253  -18.9763  -54.1002 C.2       21 UNK         0.5000 
    118 O         -4.5548  -18.8832  -55.0564 O.2       21 UNK        -0.5000 
    119 N         -4.9276  -19.0182  -52.8219 N.am      22 UNK        -0.5000 
    120 CA        -3.5462  -19.1391  -52.3375 C.3       22 UNK         0.1400 
    121 C         -2.9001  -20.5183  -52.6723 C.2       22 UNK         0.5000 
    122 N         -3.6788  -21.5936  -52.6967 N.am      22 UNK        -0.7600 
    123 O         -1.7008  -20.6281  -52.9104 O.2       22 UNK        -0.5000 
    124 C124       -2.6703  -17.9076  -52.7037 C.3       23 UNK        -0.0398 
    125 S125       -1.5129  -17.4861  -51.3605 S.3       23 UNK        -0.2404 
    126 C126        0.0916  -17.5646  -52.2076 C.3       23 UNK        -0.0205 
    127 H127        8.6310  -13.9730  -43.2461 H         1 UNK         0.0600 
    128 H128        8.3084  -15.4523  -44.1553 H         1 UNK         0.0600 
    129 H129        7.7226  -15.2906  -42.4973 H         1 UNK         0.0600 
    130 H130        6.7045  -15.1546  -45.6761 H         1 UNK         0.3000 
    131 H131        4.1780  -13.8869  -45.0011 H         1 UNK         0.0600 
    132 H132        5.0372  -15.0893  -47.6679 H         1 UNK         0.0800 
    133 H133        4.3414  -16.0099  -46.3680 H         1 UNK         0.0800 
    134 H134        3.8082  -14.2510  -49.4452 H         1 UNK         0.0800 
    135 H135        2.1121  -13.8669  -49.5336 H         1 UNK         0.0800 
    136 H136        0.8802  -15.2945  -50.9314 H         1 UNK         0.1150 
    137 H137        1.8231  -19.4564  -51.2886 H         1 UNK         0.1150 
    138 H138        4.1425  -16.9650  -48.6982 H         1 UNK         0.1150 
    139 H139        3.9772  -20.2570  -50.3401 H         1 UNK         0.0800 
    140 H140        4.9402  -19.2090  -49.3334 H         1 UNK         0.0800 
    141 H141        1.8820  -21.3431  -49.6967 H         1 UNK         0.0800 
    142 H142        0.9721  -20.1839  -48.7583 H         1 UNK         0.0800 
    143 H143        1.9219  -22.8732  -47.6467 H         1 UNK         0.0600 
    144 H144        0.6240  -20.7118  -46.3445 H         1 UNK         0.3000 
    145 H145       -1.1107  -22.6479  -43.8524 H         1 UNK         0.0600 
    146 H146        0.0935  -21.0270  -42.4136 H         1 UNK         0.0600 
    147 H147        1.1817  -22.2780  -42.9937 H         1 UNK         0.0600 
    148 H148        1.2286  -20.6778  -43.7156 H         1 UNK         0.0600 
    149 H149       -1.0904  -19.8492  -44.3653 H         1 UNK         0.3000 
    150 H150       -3.8299  -19.8427  -46.6972 H         1 UNK         0.0600 
    151 H151       -4.8937  -19.9851  -44.4412 H         1 UNK         0.0600 
    152 H152       -4.8079  -18.3268  -45.0133 H         1 UNK         0.0600 
    153 H153       -3.6737  -18.8962  -43.7896 H         1 UNK         0.0600 
    154 H154       -2.3794  -17.6935  -45.5471 H         1 UNK         0.3000 
    155 H155        0.2655  -17.5945  -47.9976 H         1 UNK         0.0600 
    156 H156       -1.9881  -15.6926  -47.1614 H         1 UNK         0.0600 
    157 H157       -0.5251  -15.2681  -48.0475 H         1 UNK         0.0600 
    158 H158       -1.7487  -16.2856  -48.7926 H         1 UNK         0.0600 
    159 H159       -0.0902  -16.0445  -45.6633 H         1 UNK         0.3000 
    160 H160        1.5391  -18.2045  -43.3105 H         1 UNK         0.0600 
    161 H161        2.2700  -15.5065  -44.5473 H         1 UNK         0.0600 
    162 H162        3.3300  -16.9053  -44.4079 H         1 UNK         0.0600 
    163 H163        2.7814  -16.0761  -42.9600 H         1 UNK         0.0600 
    164 H164        0.1773  -15.6424  -43.2027 H         1 UNK         0.3000 
    165 H165       -2.9385  -16.9826  -42.0875 H         1 UNK         0.0600 
    166 H166       -2.4692  -15.5018  -40.1574 H         1 UNK         0.0600 
    167 H167       -1.4960  -16.9596  -40.0469 H         1 UNK         0.0600 
    168 H168       -0.7552  -15.4522  -40.5714 H         1 UNK         0.0600 
    169 H169       -1.9867  -14.3044  -42.3960 H         1 UNK         0.3000 
    170 H170       -2.8551  -13.8899  -45.8189 H         1 UNK         0.0600 
    171 H171       -5.0426  -13.7045  -44.6218 H         1 UNK         0.0600 
    172 H172       -4.2556  -12.8551  -43.2970 H         1 UNK         0.0600 
    173 H173       -4.3253  -12.1265  -44.9022 H         1 UNK         0.0600 
    174 H174       -2.0072  -11.9583  -43.9894 H         1 UNK         0.3000 
    175 H175       -0.0032  -11.1467  -43.8568 H         1 UNK         0.0600 
    176 H176        2.1417  -13.3257  -43.6280 H         1 UNK         0.0600 
    177 H177        2.2113  -11.7141  -42.9234 H         1 UNK         0.0600 
    178 H178        1.0180  -12.8708  -42.3536 H         1 UNK         0.0600 
    179 H179        2.1902  -11.9148  -45.5975 H         1 UNK         0.3000 
    180 H180        1.6063  -11.0821  -48.3120 H         1 UNK         0.0600 
    181 H181        1.4713   -8.1420  -47.4590 H         1 UNK         0.0600 
    182 H182        0.4156   -8.9514  -48.6073 H         1 UNK         0.0600 
    183 H183        2.1114   -8.7205  -48.9968 H         1 UNK         0.0600 
    184 H184        3.7046  -11.1224  -47.6216 H         1 UNK         0.3000 
    185 H185        5.8484  -10.0184  -46.7679 H         1 UNK         0.0600 
    186 H186        5.9262   -8.3003  -44.9721 H         1 UNK         0.0600 
    187 H187        5.3125   -9.4630  -43.8008 H         1 UNK         0.0600 
    188 H188        6.8968   -9.6977  -44.5370 H         1 UNK         0.0600 
    189 H189        5.1924  -11.7990  -44.5211 H         1 UNK         0.3000 
    190 H190       -1.3255  -21.4273  -48.2103 H         1 UNK         0.3000 
    191 H191       -2.1006  -23.1051  -50.3422 H         1 UNK         0.0600 
    192 H192       -3.8979  -21.7987  -48.2342 H         1 UNK         0.0600 
    193 H193       -4.3712  -22.3490  -49.8328 H         1 UNK         0.0600 
    194 H194       -3.2665  -20.9907  -49.6667 H         1 UNK         0.0600 
    195 H195       -2.6268  -23.5040  -46.7997 H         1 UNK         0.3000 
    196 H196       -3.9928  -25.9651  -46.8905 H         1 UNK         0.0600 
    197 H197       -3.3387  -26.1260  -44.4825 H         1 UNK         0.0600 
    198 H198       -3.9207  -24.5172  -44.8842 H         1 UNK         0.0600 
    199 H199       -2.1930  -24.8077  -44.6961 H         1 UNK         0.0600 
    200 H200       -0.4602  -25.3204  -46.6645 H         1 UNK         0.3000 
    201 H201        0.3852  -28.0307  -46.5205 H         1 UNK         0.0600 
    202 H202        1.8409  -26.1226  -45.9100 H         1 UNK         0.0600 
    203 H203        1.8482  -25.5537  -47.5774 H         1 UNK         0.0600 
    204 H204        2.6067  -27.0865  -47.1639 H         1 UNK         0.0600 
    205 H205       -0.3115  -25.9261  -49.3130 H         1 UNK         0.3000 
    206 H206        0.4713  -27.8578  -51.3286 H         1 UNK         0.0600 
    207 H207        0.5370  -25.3953  -51.7130 H         1 UNK         0.0600 
    208 H208       -0.5280  -26.1783  -52.8701 H         1 UNK         0.0600 
    209 H209       -1.2105  -25.3003  -51.5081 H         1 UNK         0.0600 
    210 H210       -2.2296  -27.6727  -49.2889 H         1 UNK         0.3000 
    211 H211       -4.2243  -28.5766  -49.1109 H         1 UNK         0.0600 
    212 H212       -3.4773  -30.5008  -51.3760 H         1 UNK         0.0600 
    213 H213       -4.7685  -30.7122  -50.2030 H         1 UNK         0.0600 
    214 H214       -3.0953  -30.7400  -49.6712 H         1 UNK         0.0600 
    215 H215       -4.0533  -26.2189  -50.4502 H         1 UNK         0.3000 
    216 H216       -6.1910  -26.2871  -52.5430 H         1 UNK         0.0600 
    217 H217       -5.0332  -24.2359  -53.4217 H         1 UNK         0.0600 
    218 H218       -3.9512  -25.6194  -53.4445 H         1 UNK         0.0600 
    219 H219       -3.7904  -24.4038  -52.1814 H         1 UNK         0.0600 
    220 H220       -7.3190  -24.1091  -52.6210 H         1 UNK         0.3000 
    221 H221       -8.3901  -23.3974  -50.0169 H         1 UNK         0.0600 
    222 H222       -8.8581  -22.2233  -52.8171 H         1 UNK         0.0600 
    223 H223       -9.8291  -23.4775  -52.0483 H         1 UNK         0.0600 
    224 H224       -9.8073  -21.8531  -51.3827 H         1 UNK         0.0600 
    225 H225       -7.9901  -21.5530  -48.8329 H         1 UNK         0.3000 
    226 H226       -5.5610  -20.0979  -49.1922 H         1 UNK         0.0600 
    227 H227       -6.5242  -20.5496  -46.9616 H         1 UNK         0.0600 
    228 H228       -6.3617  -18.8187  -47.2062 H         1 UNK         0.0600 
    229 H229       -7.9450  -19.5745  -47.3430 H         1 UNK         0.0600 
    230 H230       -8.8669  -19.4348  -50.2053 H         1 UNK         0.3000 
    231 H231       -8.5398  -16.6622  -50.8664 H         1 UNK         0.0600 
    232 H232      -10.6551  -17.0262  -52.1466 H         1 UNK         0.0600 
    233 H233      -10.7656  -17.7115  -50.5335 H         1 UNK         0.0600 
    234 H234      -10.5075  -18.7654  -51.9245 H         1 UNK         0.0600 
    235 H235       -7.7953  -19.6700  -52.5684 H         1 UNK         0.3000 
    236 H236       -7.1037  -18.3204  -55.1047 H         1 UNK         0.0600 
    237 H237       -8.2640  -20.5404  -55.1304 H         1 UNK         0.0600 
    238 H238       -6.6715  -20.6404  -55.8647 H         1 UNK         0.0600 
    239 H239       -6.9222  -21.2585  -54.2382 H         1 UNK         0.0600 
    240 H240       -5.6414  -19.1145  -52.1149 H         1 UNK         0.3000 
    241 H241       -3.6590  -19.1502  -51.2529 H         1 UNK         0.0600 
    242 H242       -4.6609  -21.5224  -52.4466 H         1 UNK         0.3800 
    243 H243       -3.2763  -22.4819  -52.9400 H         1 UNK         0.3800 
    244 H244       -2.1437  -18.0568  -53.6477 H         1 UNK         0.0800 
    245 H245       -3.2993  -17.0290  -52.8530 H         1 UNK         0.0800 
    246 H246        0.1780  -18.5187  -52.7300 H         1 UNK         0.0800 
    247 H247        0.1412  -16.7845  -52.9685 H         1 UNK         0.0800 
@<TRIPOS>BOND
     1    1    2 1    
     2    1  127 1    
     3    1  128 1    
     4    1  129 1    
     5    2    3 2    
     6    2    4 am   BACKBONE|DICT|INTERRES
     7    4    5 1    
     8    4  130 1    
     9    5    6 1    
    10    5   65 1    
    11    5  131 1    
    12    6    7 1    
    13    6  132 1    
    14    6  133 1    
    15    7    8 1    
    16    8    9 1    
    17    8  134 1    
    18    8  135 1    
    19    9   10 ar   
    20    9   14 ar   
    21   10   11 ar   
    22   10  136 1    
    23   11   12 ar   
    24   11  126 1    
    25   12   13 ar   
    26   12  137 1    
    27   13   14 ar   
    28   13   15 1    
    29   14  138 1    
    30   15   16 1    
    31   15  139 1    
    32   15  140 1    
    33   16   17 1    
    34   17   18 1    
    35   17  141 1    
    36   17  142 1    
    37   18   19 1    
    38   18   67 1    
    39   18  143 1    
    40   19   20 am   BACKBONE|DICT|INTERRES
    41   19  144 1    
    42   20   21 2    
    43   20   22 1    
    44   22   23 1    
    45   22   24 1    
    46   22  145 1    
    47   23  146 1    
    48   23  147 1    
    49   23  148 1    
    50   24   25 am   BACKBONE|DICT|INTERRES
    51   24  149 1    
    52   25   26 2    
    53   25   27 1    
    54   27   28 1    
    55   27   29 1    
    56   27  150 1    
    57   28  151 1    
    58   28  152 1    
    59   28  153 1    
    60   29   30 am   BACKBONE|DICT|INTERRES
    61   29  154 1    
    62   30   31 2    
    63   30   32 1    
    64   32   33 1    
    65   32   34 1    
    66   32  155 1    
    67   33  156 1    
    68   33  157 1    
    69   33  158 1    
    70   34   35 am   BACKBONE|DICT|INTERRES
    71   34  159 1    
    72   35   36 2    
    73   35   37 1    
    74   37   38 1    
    75   37   39 1    
    76   37  160 1    
    77   38  161 1    
    78   38  162 1    
    79   38  163 1    
    80   39   40 am   BACKBONE|DICT|INTERRES
    81   39  164 1    
    82   40   41 2    
    83   40   42 1    
    84   42   43 1    
    85   42   44 1    
    86   42  165 1    
    87   43  166 1    
    88   43  167 1    
    89   43  168 1    
    90   44   45 am   BACKBONE|DICT|INTERRES
    91   44  169 1    
    92   45   46 2    
    93   45   47 1    
    94   47   48 1    
    95   47   49 1    
    96   47  170 1    
    97   48  171 1    
    98   48  172 1    
    99   48  173 1    
   100   49   50 am   BACKBONE|DICT|INTERRES
   101   49  174 1    
   102   50   51 2    
   103   50   52 1    
   104   52   53 1    
   105   52   54 1    
   106   52  175 1    
   107   53  176 1    
   108   53  177 1    
   109   53  178 1    
   110   54   55 am   BACKBONE|DICT|INTERRES
   111   54  179 1    
   112   55   56 2    
   113   55   57 1    
   114   57   58 1    
   115   57   59 1    
   116   57  180 1    
   117   58  181 1    
   118   58  182 1    
   119   58  183 1    
   120   59   60 am   BACKBONE|DICT|INTERRES
   121   59  184 1    
   122   60   61 2    
   123   60   62 1    
   124   62   63 1    
   125   62   64 1    
   126   62  185 1    
   127   63  186 1    
   128   63  187 1    
   129   63  188 1    
   130   64   65 am   BACKBONE|DICT|INTERRES
   131   64  189 1    
   132   65   66 2    
   133   67   68 2    
   134   67   69 am   BACKBONE|DICT|INTERRES
   135   69   70 1    
   136   69  190 1    
   137   70   71 1    
   138   70   72 1    
   139   70  191 1    
   140   71  192 1    
   141   71  193 1    
   142   71  194 1    
   143   72   73 2    
   144   72   74 am   BACKBONE|DICT|INTERRES
   145   74   75 1    
   146   74  195 1    
   147   75   76 1    
   148   75   77 1    
   149   75  196 1    
   150   76  197 1    
   151   76  198 1    
   152   76  199 1    
   153   77   78 2    
   154   77   79 am   BACKBONE|DICT|INTERRES
   155   79   80 1    
   156   79  200 1    
   157   80   81 1    
   158   80   82 1    
   159   80  201 1    
   160   81  202 1    
   161   81  203 1    
   162   81  204 1    
   163   82   83 2    
   164   82   84 am   BACKBONE|DICT|INTERRES
   165   84   85 1    
   166   84  205 1    
   167   85   86 1    
   168   85   87 1    
   169   85  206 1    
   170   86  207 1    
   171   86  208 1    
   172   86  209 1    
   173   87   88 2    
   174   87   89 am   BACKBONE|DICT|INTERRES
   175   89   90 1    
   176   89  210 1    
   177   90   91 1    
   178   90   92 1    
   179   90  211 1    
   180   91  212 1    
   181   91  213 1    
   182   91  214 1    
   183   92   93 2    
   184   92   94 am   BACKBONE|DICT|INTERRES
   185   94   95 1    
   186   94  215 1    
   187   95   96 1    
   188   95   97 1    
   189   95  216 1    
   190   96  217 1    
   191   96  218 1    
   192   96  219 1    
   193   97   98 2    
   194   97   99 am   BACKBONE|DICT|INTERRES
   195   99  100 1    
   196   99  220 1    
   197  100  101 1    
   198  100  102 1    
   199  100  221 1    
   200  101  222 1    
   201  101  223 1    
   202  101  224 1    
   203  102  103 2    
   204  102  104 am   BACKBONE|DICT|INTERRES
   205  104  105 1    
   206  104  225 1    
   207  105  106 1    
   208  105  107 1    
   209  105  226 1    
   210  106  227 1    
   211  106  228 1    
   212  106  229 1    
   213  107  108 2    
   214  107  109 am   BACKBONE|DICT|INTERRES
   215  109  110 1    
   216  109  230 1    
   217  110  111 1    
   218  110  112 1    
   219  110  231 1    
   220  111  232 1    
   221  111  233 1    
   222  111  234 1    
   223  112  113 2    
   224  112  114 am   BACKBONE|DICT|INTERRES
   225  114  115 1    
   226  114  235 1    
   227  115  116 1    
   228  115  117 1    
   229  115  236 1    
   230  116  237 1    
   231  116  238 1    
   232  116  239 1    
   233  117  118 2    
   234  117  119 am   BACKBONE|DICT|INTERRES
   235  119  120 1    
   236  119  240 1    
   237  120  121 1    
   238  120  124 1    
   239  120  241 1    
   240  121  122 am   BACKBONE|DICT|INTERRES
   241  121  123 2    
   242  122  242 1    
   243  122  243 1    
   244  124  125 1    
   245  124  244 1    
   246  124  245 1    
   247  125  126 1    
   248  126  246 1    
   249  126  247 1    
@<TRIPOS>SUBSTRUCTURE
     1 UNK         1 GROUP             0       ****    0 ROOT    
