@<TRIPOS>MOLECULE
3R540
247   249    1
SMALL
USER_CHARGES


@<TRIPOS>ATOM
      1 CA         -4.7820  -15.9081  -45.6271 C.3       0 UNK        -0.1800 
      2 C          -3.8963  -17.0935  -46.0059 C.2       0 UNK         0.5000 
      3 O          -3.8318  -18.0562  -45.2479 O.2       0 UNK        -0.5000 
      4 N          -3.2206  -17.0888  -47.1658 N.am      1 UNK        -0.5000 
      5 CA         -3.1049  -15.9768  -48.1188 C.3       1 UNK         0.1400 
      6 C6         -2.5445  -16.4777  -49.4786 C.3       23 UNK        -0.0398 
      7 S7         -2.3178  -15.1715  -50.7436 S.3       23 UNK        -0.2404 
      8 C8         -1.4031  -16.0171  -52.0828 C.3       23 UNK        -0.0205 
      9 C9         -0.1967  -16.8285  -51.6177 C.ar      23 UNK        -0.0193 
     10 C10         0.0183  -18.1048  -52.1440 C.ar      23 UNK        -0.1150 
     11 C11         1.0704  -18.8996  -51.6851 C.ar      23 UNK        -0.0193 
     12 C12         1.9413  -18.3962  -50.7170 C.ar      23 UNK        -0.1150 
     13 C13         1.7501  -17.1146  -50.1921 C.ar      23 UNK        -0.0193 
     14 C14         0.6920  -16.3296  -50.6593 C.ar      23 UNK        -0.1150 
     15 C15         2.6616  -16.5805  -49.0969 C.3       23 UNK        -0.0205 
     16 S16         2.7820  -17.6903  -47.6536 S.3       23 UNK        -0.2404 
     17 C17         1.0375  -18.0539  -47.2318 C.3       23 UNK        -0.0398 
     18 CA          0.7251  -19.5717  -47.2960 C.3       11 UNK         0.1400 
     19 N           1.5933  -20.3348  -46.3882 N.am      11 UNK        -0.5000 
     20 C           1.8289  -21.6516  -46.4552 C.2       10 UNK         0.5000 
     21 O           1.2078  -22.4113  -47.1963 O.2       10 UNK        -0.5000 
     22 CA          2.9276  -22.2136  -45.5361 C.3       10 UNK         0.1400 
     23 CB          4.3180  -21.8798  -46.0991 C.3       10 UNK        -0.1800 
     24 N           2.8125  -21.6622  -44.1873 N.am      10 UNK        -0.5000 
     25 C           2.4345  -22.3503  -43.1005 C.2       9 UNK         0.5000 
     26 O           2.2561  -23.5689  -43.0897 O.2       9 UNK        -0.5000 
     27 CA          2.1824  -21.5445  -41.8043 C.3       9 UNK         0.1400 
     28 CB          3.4364  -21.5468  -40.9175 C.3       9 UNK        -0.1800 
     29 N           1.7696  -20.1570  -42.0301 N.am      9 UNK        -0.5000 
     30 C           0.7196  -19.7709  -42.7677 C.2       8 UNK         0.5000 
     31 O          -0.0871  -20.5562  -43.2580 O.2       8 UNK        -0.5000 
     32 CA          0.5898  -18.2703  -43.0874 C.3       8 UNK         0.1400 
     33 CB         -0.4206  -17.6048  -42.1449 C.3       8 UNK        -0.1800 
     34 N           1.8576  -17.5316  -43.0548 N.am      8 UNK        -0.5000 
     35 C           2.9573  -17.8173  -43.7698 C.2       7 UNK         0.5000 
     36 O           3.0419  -18.7803  -44.5316 O.2       7 UNK        -0.5000 
     37 CA          4.1816  -16.9159  -43.5532 C.3       7 UNK         0.1400 
     38 CB          4.0306  -15.5812  -44.2949 C.3       7 UNK        -0.1800 
     39 N           4.3937  -16.6631  -42.1306 N.am      7 UNK        -0.5000 
     40 C           5.0393  -17.4978  -41.3053 C.2       6 UNK         0.5000 
     41 O           5.5947  -18.5327  -41.6739 O.2       6 UNK        -0.5000 
     42 CA          5.0552  -17.1220  -39.8116 C.3       6 UNK         0.1400 
     43 CB          6.2898  -16.2685  -39.4841 C.3       6 UNK        -0.1800 
     44 N           3.8512  -16.4056  -39.3868 N.am      6 UNK        -0.5000 
     45 C           2.6259  -16.9455  -39.3261 C.2       5 UNK         0.5000 
     46 O           2.3781  -18.1180  -39.6092 O.2       5 UNK        -0.5000 
     47 CA          1.4811  -16.0012  -38.9116 C.3       5 UNK         0.1400 
     48 CB          1.3435  -15.9646  -37.3822 C.3       5 UNK        -0.1800 
     49 N           1.6212  -14.6307  -39.4174 N.am      5 UNK        -0.5000 
     50 C           1.6796  -14.2911  -40.7117 C.2       4 UNK         0.5000 
     51 O           1.7169  -15.1060  -41.6351 O.2       4 UNK        -0.5000 
     52 CA          1.7474  -12.7917  -41.0365 C.3       4 UNK         0.1400 
     53 CB          3.1427  -12.4185  -41.5611 C.3       4 UNK        -0.1800 
     54 N           0.7458  -12.4409  -42.0417 N.am      4 UNK        -0.5000 
     55 C          -0.5639  -12.2993  -41.7928 C.2       3 UNK         0.5000 
     56 O          -1.0601  -12.4088  -40.6707 O.2       3 UNK        -0.5000 
     57 CA         -1.4728  -11.9622  -42.9907 C.3       3 UNK         0.1400 
     58 CB         -1.6441  -10.4405  -43.1201 C.3       3 UNK        -0.1800 
     59 N          -0.9619  -12.4937  -44.2564 N.am      3 UNK        -0.5000 
     60 C          -1.1373  -13.7566  -44.6627 C.2       2 UNK         0.5000 
     61 O          -1.7699  -14.6031  -44.0278 O.2       2 UNK        -0.5000 
     62 CA         -0.4578  -14.1460  -45.9855 C.3       2 UNK         0.1400 
     63 CB          0.9309  -14.7330  -45.7046 C.3       2 UNK        -0.1800 
     64 N          -1.2597  -15.1267  -46.7164 N.am      2 UNK        -0.5000 
     65 C          -2.2864  -14.8070  -47.5165 C.2       1 UNK         0.5000 
     66 O          -2.6267  -13.6462  -47.7484 O.2       1 UNK        -0.5000 
     67 C          -0.7878  -19.8513  -47.1179 C.2       11 UNK         0.5000 
     68 O          -1.5833  -19.3539  -47.9162 O.2       11 UNK        -0.5000 
     69 N          -1.1778  -20.6295  -46.0977 N.am      12 UNK        -0.5000 
     70 CA         -2.5429  -21.1314  -45.9153 C.3       12 UNK         0.1400 
     71 CB         -2.8025  -21.4129  -44.4284 C.3       12 UNK        -0.1800 
     72 C          -2.8546  -22.3837  -46.7574 C.2       12 UNK         0.5000 
     73 O          -4.0203  -22.7836  -46.8049 O.2       12 UNK        -0.5000 
     74 N          -1.8399  -22.9879  -47.3966 N.am      13 UNK        -0.5000 
     75 CA         -1.9640  -24.1713  -48.2529 C.3       13 UNK         0.1400 
     76 CB         -0.5822  -24.5424  -48.8074 C.3       13 UNK        -0.1800 
     77 C          -2.9753  -23.9910  -49.4017 C.2       13 UNK         0.5000 
     78 O          -3.1330  -22.8826  -49.9159 O.2       13 UNK        -0.5000 
     79 N          -3.6567  -25.0895  -49.7562 N.am      14 UNK        -0.5000 
     80 CA         -4.7585  -25.1670  -50.7254 C.3       14 UNK         0.1400 
     81 CB         -4.2630  -24.8728  -52.1572 C.3       14 UNK        -0.1800 
     82 C          -5.9798  -24.3072  -50.3291 C.2       14 UNK         0.5000 
     83 O          -6.6879  -23.8191  -51.2075 O.2       14 UNK        -0.5000 
     84 N          -6.2018  -24.1511  -49.0134 N.am      15 UNK        -0.5000 
     85 CA         -7.2416  -23.3356  -48.3765 C.3       15 UNK         0.1400 
     86 CB         -8.6500  -23.8858  -48.6883 C.3       15 UNK        -0.1800 
     87 C          -7.0797  -21.8411  -48.7185 C.2       15 UNK         0.5000 
     88 O          -7.9608  -21.2429  -49.3383 O.2       15 UNK        -0.5000 
     89 N          -5.9311  -21.2833  -48.3085 N.am      16 UNK        -0.5000 
     90 CA         -5.4738  -19.9115  -48.5543 C.3       16 UNK         0.1400 
     91 CB         -6.3918  -18.8816  -47.8623 C.3       16 UNK        -0.1800 
     92 C          -5.2695  -19.6370  -50.0550 C.2       16 UNK         0.5000 
     93 O          -5.8062  -18.6672  -50.5941 O.2       16 UNK        -0.5000 
     94 N          -4.5092  -20.5273  -50.7050 N.am      17 UNK        -0.5000 
     95 CA         -4.1246  -20.5623  -52.1173 C.3       17 UNK         0.1400 
     96 CB         -3.3816  -19.2822  -52.5296 C.3       17 UNK        -0.1800 
     97 C          -5.2738  -20.8791  -53.0891 C.2       17 UNK         0.5000 
     98 O          -5.0567  -21.6558  -54.0177 O.2       17 UNK        -0.5000 
     99 N          -6.4478  -20.2635  -52.8838 N.am      18 UNK        -0.5000 
    100 CA        -7.7184  -20.4617  -53.5982 C.3       18 UNK         0.1400 
    101 CB        -8.3512  -21.8019  -53.1774 C.3       18 UNK        -0.1800 
    102 C         -7.6217  -20.3178  -55.1345 C.2       18 UNK         0.5000 
    103 O         -8.3439  -20.9990  -55.8642 O.2       18 UNK        -0.5000 
    104 N         -6.7038  -19.4528  -55.5935 N.am      19 UNK        -0.5000 
    105 CA        -6.3070  -19.2228  -56.9904 C.3       19 UNK         0.1400 
    106 CB        -7.4857  -18.6803  -57.8255 C.3       19 UNK        -0.1800 
    107 C         -5.6128  -20.4313  -57.6648 C.2       19 UNK         0.5000 
    108 O         -5.4053  -20.4076  -58.8789 O.2       19 UNK        -0.5000 
    109 N         -5.2254  -21.4433  -56.8756 N.am      20 UNK        -0.5000 
    110 CA        -4.4786  -22.6277  -57.3047 C.3       20 UNK         0.1400 
    111 CB        -5.0686  -23.8638  -56.6031 C.3       20 UNK        -0.1800 
    112 C         -2.9713  -22.4946  -57.0065 C.2       20 UNK         0.5000 
    113 O         -2.2262  -23.4486  -57.2360 O.2       20 UNK        -0.5000 
    114 N         -2.5486  -21.3317  -56.4819 N.am      21 UNK        -0.5000 
    115 CA        -1.1690  -20.9434  -56.1608 C.3       21 UNK         0.1400 
    116 CB        -0.3645  -20.7160  -57.4571 C.3       21 UNK        -0.1800 
    117 C         -0.4733  -21.9162  -55.1853 C.2       21 UNK         0.5000 
    118 O          0.7097  -22.2180  -55.3497 O.2       21 UNK        -0.5000 
    119 N         -1.2402  -22.3980  -54.1980 N.am      22 UNK        -0.5000 
    120 CA        -0.8457  -23.4097  -53.2001 C.3       22 UNK         0.1400 
    121 C         -0.6860  -24.8531  -53.7716 C.2       22 UNK         0.5000 
    122 N         -1.0672  -25.1350  -55.0127 N.am      22 UNK        -0.7600 
    123 O         -0.2413  -25.7521  -53.0636 O.2       22 UNK        -0.5000 
    124 C124        0.3655  -22.9881  -52.3177 C.3       23 UNK        -0.0398 
    125 S125        0.0662  -21.4412  -51.3971 S.3       23 UNK        -0.2404 
    126 C126        1.2363  -20.3126  -52.2140 C.3       23 UNK        -0.0205 
    127 H127       -4.1791  -15.0530  -45.3237 H         1 UNK         0.0600 
    128 H128       -5.4262  -16.1719  -44.7881 H         1 UNK         0.0600 
    129 H129       -5.4284  -15.6116  -46.4524 H         1 UNK         0.0600 
    130 H130       -2.6776  -17.9148  -47.4058 H         1 UNK         0.3000 
    131 H131       -4.1087  -15.5973  -48.3164 H         1 UNK         0.0600 
    132 H132       -1.5946  -16.9839  -49.3122 H         1 UNK         0.0800 
    133 H133       -3.2127  -17.2326  -49.8950 H         1 UNK         0.0800 
    134 H134       -1.0624  -15.2682  -52.7985 H         1 UNK         0.0800 
    135 H135       -2.1064  -16.6538  -52.6203 H         1 UNK         0.0800 
    136 H136       -0.6491  -18.4989  -52.8959 H         1 UNK         0.1150 
    137 H137        2.7511  -19.0108  -50.3495 H         1 UNK         0.1150 
    138 H138        0.5365  -15.3408  -50.2513 H         1 UNK         0.1150 
    139 H139        3.6599  -16.4332  -49.5105 H         1 UNK         0.0800 
    140 H140        2.3241  -15.6007  -48.7574 H         1 UNK         0.0800 
    141 H141        0.3811  -17.4927  -47.8968 H         1 UNK         0.0800 
    142 H142        0.8482  -17.6716  -46.2306 H         1 UNK         0.0800 
    143 H143        0.9580  -19.9047  -48.3100 H         1 UNK         0.0600 
    144 H144        2.1633  -19.7715  -45.7607 H         1 UNK         0.3000 
    145 H145        2.8209  -23.3002  -45.5203 H         1 UNK         0.0600 
    146 H146        5.1048  -22.3216  -45.4876 H         1 UNK         0.0600 
    147 H147        4.4338  -22.2699  -47.1111 H         1 UNK         0.0600 
    148 H148        4.4910  -20.8033  -46.1391 H         1 UNK         0.0600 
    149 H149        2.9269  -20.6563  -44.1066 H         1 UNK         0.3000 
    150 H150        1.3752  -22.0407  -41.2623 H         1 UNK         0.0600 
    151 H151        3.7520  -22.5654  -40.6880 H         1 UNK         0.0600 
    152 H152        3.2507  -21.0419  -39.9691 H         1 UNK         0.0600 
    153 H153        4.2727  -21.0450  -41.4058 H         1 UNK         0.0600 
    154 H154        2.3552  -19.4376  -41.6272 H         1 UNK         0.3000 
    155 H155        0.1953  -18.1935  -44.1007 H         1 UNK         0.0600 
    156 H156       -1.4008  -18.0757  -42.2309 H         1 UNK         0.0600 
    157 H157       -0.5476  -16.5477  -42.3794 H         1 UNK         0.0600 
    158 H158       -0.1072  -17.6875  -41.1053 H         1 UNK         0.0600 
    159 H159        1.8672  -16.7000  -42.4670 H         1 UNK         0.3000 
    160 H160        5.0523  -17.4301  -43.9662 H         1 UNK         0.0600 
    161 H161        3.2144  -14.9864  -43.8875 H         1 UNK         0.0600 
    162 H162        3.8293  -15.7418  -45.3547 H         1 UNK         0.0600 
    163 H163        4.9420  -14.9877  -44.2230 H         1 UNK         0.0600 
    164 H164        3.9156  -15.8652  -41.7366 H         1 UNK         0.3000 
    165 H165        5.1180  -18.0494  -39.2383 H         1 UNK         0.0600 
    166 H166        6.3530  -16.0594  -38.4160 H         1 UNK         0.0600 
    167 H167        7.2077  -16.7854  -39.7675 H         1 UNK         0.0600 
    168 H168        6.2729  -15.3151  -40.0136 H         1 UNK         0.0600 
    169 H169        3.9613  -15.4343  -39.1352 H         1 UNK         0.3000 
    170 H170        0.5546  -16.4062  -39.3203 H         1 UNK         0.0600 
    171 H171        1.2142  -16.9694  -36.9775 H         1 UNK         0.0600 
    172 H172        2.2246  -15.5305  -36.9081 H         1 UNK         0.0600 
    173 H173        0.4752  -15.3799  -37.0778 H         1 UNK         0.0600 
    174 H174        1.6055  -13.8973  -38.7232 H         1 UNK         0.3000 
    175 H175        1.5557  -12.2150  -40.1291 H         1 UNK         0.0600 
    176 H176        3.3838  -12.9458  -42.4847 H         1 UNK         0.0600 
    177 H177        3.2151  -11.3489  -41.7589 H         1 UNK         0.0600 
    178 H178        3.9143  -12.6660  -40.8310 H         1 UNK         0.0600 
    179 H179        1.0659  -12.3776  -42.9956 H         1 UNK         0.3000 
    180 H180       -2.4560  -12.3953  -42.7928 H         1 UNK         0.0600 
    181 H181       -0.6953   -9.9427  -43.3246 H         1 UNK         0.0600 
    182 H182       -2.0472  -10.0133  -42.2007 H         1 UNK         0.0600 
    183 H183       -2.3361  -10.1888  -43.9240 H         1 UNK         0.0600 
    184 H184       -0.4389  -11.8538  -44.8372 H         1 UNK         0.3000 
    185 H185       -0.3325  -13.2534  -46.6026 H         1 UNK         0.0600 
    186 H186        1.5747  -13.9843  -45.2427 H         1 UNK         0.0600 
    187 H187        0.8809  -15.5857  -45.0268 H         1 UNK         0.0600 
    188 H188        1.4201  -15.0546  -46.6224 H         1 UNK         0.0600 
    189 H189       -1.1184  -16.0956  -46.4786 H         1 UNK         0.3000 
    190 H190       -0.4891  -20.9459  -45.4264 H         1 UNK         0.3000 
    191 H191       -3.2480  -20.3625  -46.2281 H         1 UNK         0.0600 
    192 H192       -2.6911  -20.5058  -43.8344 H         1 UNK         0.0600 
    193 H193       -3.8184  -21.7752  -44.2671 H         1 UNK         0.0600 
    194 H194       -2.1188  -22.1657  -44.0349 H         1 UNK         0.0600 
    195 H195       -0.9093  -22.5944  -47.3170 H         1 UNK         0.3000 
    196 H196       -2.3116  -24.9901  -47.6202 H         1 UNK         0.0600 
    197 H197       -0.6426  -25.3731  -49.5117 H         1 UNK         0.0600 
    198 H198        0.0940  -24.8435  -48.0072 H         1 UNK         0.0600 
    199 H199       -0.1265  -23.6999  -49.3266 H         1 UNK         0.0600 
    200 H200       -3.4478  -25.9551  -49.2779 H         1 UNK         0.3000 
    201 H201       -5.1037  -26.2016  -50.7077 H         1 UNK         0.0600 
    202 H202       -3.3858  -25.4703  -52.4034 H         1 UNK         0.0600 
    203 H203       -4.0095  -23.8215  -52.2883 H         1 UNK         0.0600 
    204 H204       -5.0320  -25.1098  -52.8933 H         1 UNK         0.0600 
    205 H205       -5.5373  -24.5704  -48.3785 H         1 UNK         0.3000 
    206 H206       -7.0889  -23.4263  -47.2999 H         1 UNK         0.0600 
    207 H207       -8.7339  -24.9354  -48.4071 H         1 UNK         0.0600 
    208 H208       -9.4109  -23.3382  -48.1313 H         1 UNK         0.0600 
    209 H209       -8.8998  -23.8014  -49.7462 H         1 UNK         0.0600 
    210 H210       -5.2708  -21.8810  -47.8151 H         1 UNK         0.3000 
    211 H211       -4.4867  -19.8239  -48.1010 H         1 UNK         0.0600 
    212 H212       -7.4069  -18.9027  -48.2586 H         1 UNK         0.0600 
    213 H213       -6.0151  -17.8684  -48.0036 H         1 UNK         0.0600 
    214 H214       -6.4451  -19.0621  -46.7887 H         1 UNK         0.0600 
    215 H215       -4.1384  -21.3154  -50.1775 H         1 UNK         0.3000 
    216 H216       -3.4127  -21.3850  -52.1947 H         1 UNK         0.0600 
    217 H217       -2.9179  -19.3980  -53.5094 H         1 UNK         0.0600 
    218 H218       -2.5946  -19.0557  -51.8119 H         1 UNK         0.0600 
    219 H219       -4.0448  -18.4184  -52.5798 H         1 UNK         0.0600 
    220 H220       -6.4798  -19.6162  -52.1001 H         1 UNK         0.3000 
    221 H221       -8.3826  -19.6643  -53.2628 H         1 UNK         0.0600 
    222 H222       -7.7524  -22.6495  -53.5134 H         1 UNK         0.0600 
    223 H223       -8.4452  -21.8681  -52.0933 H         1 UNK         0.0600 
    224 H224       -9.3521  -21.9182  -53.5943 H         1 UNK         0.0600 
    225 H225       -6.1681  -18.9463  -54.9027 H         1 UNK         0.3000 
    226 H226       -5.5514  -18.4368  -56.9535 H         1 UNK         0.0600 
    227 H227       -7.9582  -17.8290  -57.3353 H         1 UNK         0.0600 
    228 H228       -7.1470  -18.3408  -58.8051 H         1 UNK         0.0600 
    229 H229       -8.2501  -19.4392  -57.9933 H         1 UNK         0.0600 
    230 H230       -5.4132  -21.3933  -55.8774 H         1 UNK         0.3000 
    231 H231       -4.5852  -22.7679  -58.3821 H         1 UNK         0.0600 
    232 H232       -4.9179  -23.8292  -55.5236 H         1 UNK         0.0600 
    233 H233       -4.6036  -24.7805  -56.9676 H         1 UNK         0.0600 
    234 H234       -6.1395  -23.9483  -56.7886 H         1 UNK         0.0600 
    235 H235       -3.2531  -20.6298  -56.3113 H         1 UNK         0.3000 
    236 H236       -1.2299  -19.9872  -55.6393 H         1 UNK         0.0600 
    237 H237       -0.8677  -20.0063  -58.1137 H         1 UNK         0.0600 
    238 H238        0.6241  -20.3098  -57.2398 H         1 UNK         0.0600 
    239 H239       -0.2231  -21.6439  -58.0123 H         1 UNK         0.0600 
    240 H240       -2.2106  -22.1216  -54.1781 H         1 UNK         0.3000 
    241 H241       -1.6992  -23.4847  -52.5276 H         1 UNK         0.0600 
    242 H242       -0.9649  -26.0780  -55.3521 H         1 UNK         0.3800 
    243 H243       -1.4251  -24.4208  -55.6369 H         1 UNK         0.3800 
    244 H244        0.5792  -23.7586  -51.5764 H         1 UNK         0.0800 
    245 H245        1.2739  -22.9016  -52.9142 H         1 UNK         0.0800 
    246 H246        2.2556  -20.6666  -52.0524 H         1 UNK         0.0800 
    247 H247        1.0715  -20.3187  -53.2912 H         1 UNK         0.0800 
@<TRIPOS>BOND
     1    1    2 1    
     2    1  127 1    
     3    1  128 1    
     4    1  129 1    
     5    2    3 2    
     6    2    4 am   BACKBONE|DICT|INTERRES
     7    4    5 1    
     8    4  130 1    
     9    5    6 1    
    10    5   65 1    
    11    5  131 1    
    12    6    7 1    
    13    6  132 1    
    14    6  133 1    
    15    7    8 1    
    16    8    9 1    
    17    8  134 1    
    18    8  135 1    
    19    9   10 ar   
    20    9   14 ar   
    21   10   11 ar   
    22   10  136 1    
    23   11   12 ar   
    24   11  126 1    
    25   12   13 ar   
    26   12  137 1    
    27   13   14 ar   
    28   13   15 1    
    29   14  138 1    
    30   15   16 1    
    31   15  139 1    
    32   15  140 1    
    33   16   17 1    
    34   17   18 1    
    35   17  141 1    
    36   17  142 1    
    37   18   19 1    
    38   18   67 1    
    39   18  143 1    
    40   19   20 am   BACKBONE|DICT|INTERRES
    41   19  144 1    
    42   20   21 2    
    43   20   22 1    
    44   22   23 1    
    45   22   24 1    
    46   22  145 1    
    47   23  146 1    
    48   23  147 1    
    49   23  148 1    
    50   24   25 am   BACKBONE|DICT|INTERRES
    51   24  149 1    
    52   25   26 2    
    53   25   27 1    
    54   27   28 1    
    55   27   29 1    
    56   27  150 1    
    57   28  151 1    
    58   28  152 1    
    59   28  153 1    
    60   29   30 am   BACKBONE|DICT|INTERRES
    61   29  154 1    
    62   30   31 2    
    63   30   32 1    
    64   32   33 1    
    65   32   34 1    
    66   32  155 1    
    67   33  156 1    
    68   33  157 1    
    69   33  158 1    
    70   34   35 am   BACKBONE|DICT|INTERRES
    71   34  159 1    
    72   35   36 2    
    73   35   37 1    
    74   37   38 1    
    75   37   39 1    
    76   37  160 1    
    77   38  161 1    
    78   38  162 1    
    79   38  163 1    
    80   39   40 am   BACKBONE|DICT|INTERRES
    81   39  164 1    
    82   40   41 2    
    83   40   42 1    
    84   42   43 1    
    85   42   44 1    
    86   42  165 1    
    87   43  166 1    
    88   43  167 1    
    89   43  168 1    
    90   44   45 am   BACKBONE|DICT|INTERRES
    91   44  169 1    
    92   45   46 2    
    93   45   47 1    
    94   47   48 1    
    95   47   49 1    
    96   47  170 1    
    97   48  171 1    
    98   48  172 1    
    99   48  173 1    
   100   49   50 am   BACKBONE|DICT|INTERRES
   101   49  174 1    
   102   50   51 2    
   103   50   52 1    
   104   52   53 1    
   105   52   54 1    
   106   52  175 1    
   107   53  176 1    
   108   53  177 1    
   109   53  178 1    
   110   54   55 am   BACKBONE|DICT|INTERRES
   111   54  179 1    
   112   55   56 2    
   113   55   57 1    
   114   57   58 1    
   115   57   59 1    
   116   57  180 1    
   117   58  181 1    
   118   58  182 1    
   119   58  183 1    
   120   59   60 am   BACKBONE|DICT|INTERRES
   121   59  184 1    
   122   60   61 2    
   123   60   62 1    
   124   62   63 1    
   125   62   64 1    
   126   62  185 1    
   127   63  186 1    
   128   63  187 1    
   129   63  188 1    
   130   64   65 am   BACKBONE|DICT|INTERRES
   131   64  189 1    
   132   65   66 2    
   133   67   68 2    
   134   67   69 am   BACKBONE|DICT|INTERRES
   135   69   70 1    
   136   69  190 1    
   137   70   71 1    
   138   70   72 1    
   139   70  191 1    
   140   71  192 1    
   141   71  193 1    
   142   71  194 1    
   143   72   73 2    
   144   72   74 am   BACKBONE|DICT|INTERRES
   145   74   75 1    
   146   74  195 1    
   147   75   76 1    
   148   75   77 1    
   149   75  196 1    
   150   76  197 1    
   151   76  198 1    
   152   76  199 1    
   153   77   78 2    
   154   77   79 am   BACKBONE|DICT|INTERRES
   155   79   80 1    
   156   79  200 1    
   157   80   81 1    
   158   80   82 1    
   159   80  201 1    
   160   81  202 1    
   161   81  203 1    
   162   81  204 1    
   163   82   83 2    
   164   82   84 am   BACKBONE|DICT|INTERRES
   165   84   85 1    
   166   84  205 1    
   167   85   86 1    
   168   85   87 1    
   169   85  206 1    
   170   86  207 1    
   171   86  208 1    
   172   86  209 1    
   173   87   88 2    
   174   87   89 am   BACKBONE|DICT|INTERRES
   175   89   90 1    
   176   89  210 1    
   177   90   91 1    
   178   90   92 1    
   179   90  211 1    
   180   91  212 1    
   181   91  213 1    
   182   91  214 1    
   183   92   93 2    
   184   92   94 am   BACKBONE|DICT|INTERRES
   185   94   95 1    
   186   94  215 1    
   187   95   96 1    
   188   95   97 1    
   189   95  216 1    
   190   96  217 1    
   191   96  218 1    
   192   96  219 1    
   193   97   98 2    
   194   97   99 am   BACKBONE|DICT|INTERRES
   195   99  100 1    
   196   99  220 1    
   197  100  101 1    
   198  100  102 1    
   199  100  221 1    
   200  101  222 1    
   201  101  223 1    
   202  101  224 1    
   203  102  103 2    
   204  102  104 am   BACKBONE|DICT|INTERRES
   205  104  105 1    
   206  104  225 1    
   207  105  106 1    
   208  105  107 1    
   209  105  226 1    
   210  106  227 1    
   211  106  228 1    
   212  106  229 1    
   213  107  108 2    
   214  107  109 am   BACKBONE|DICT|INTERRES
   215  109  110 1    
   216  109  230 1    
   217  110  111 1    
   218  110  112 1    
   219  110  231 1    
   220  111  232 1    
   221  111  233 1    
   222  111  234 1    
   223  112  113 2    
   224  112  114 am   BACKBONE|DICT|INTERRES
   225  114  115 1    
   226  114  235 1    
   227  115  116 1    
   228  115  117 1    
   229  115  236 1    
   230  116  237 1    
   231  116  238 1    
   232  116  239 1    
   233  117  118 2    
   234  117  119 am   BACKBONE|DICT|INTERRES
   235  119  120 1    
   236  119  240 1    
   237  120  121 1    
   238  120  124 1    
   239  120  241 1    
   240  121  122 am   BACKBONE|DICT|INTERRES
   241  121  123 2    
   242  122  242 1    
   243  122  243 1    
   244  124  125 1    
   245  124  244 1    
   246  124  245 1    
   247  125  126 1    
   248  126  246 1    
   249  126  247 1    
@<TRIPOS>SUBSTRUCTURE
     1 UNK         1 GROUP             0       ****    0 ROOT    
