@<TRIPOS>MOLECULE
3R540
247   249    1
SMALL
USER_CHARGES


@<TRIPOS>ATOM
      1 CA         -4.2509  -11.7191  -48.9953 C.3       0 UNK        -0.1800 
      2 C          -3.5674  -13.0779  -48.9530 C.2       0 UNK         0.5000 
      3 O          -4.2348  -14.0927  -48.7520 O.2       0 UNK        -0.5000 
      4 N          -2.2385  -13.0999  -49.1264 N.am      1 UNK        -0.5000 
      5 CA         -1.3505  -14.2708  -49.0999 C.3       1 UNK         0.1400 
      6 C6         -1.7328  -15.3632  -50.1368 C.3       23 UNK        -0.0398 
      7 S7         -0.3101  -16.3707  -50.6700 S.3       23 UNK        -0.2404 
      8 C8         -0.5884  -17.8949  -49.7159 C.3       23 UNK        -0.0205 
      9 C9          0.3612  -18.9955  -50.1567 C.ar      23 UNK        -0.0193 
     10 C10         0.1052  -19.7010  -51.3349 C.ar      23 UNK        -0.1150 
     11 C11         0.9864  -20.6911  -51.7766 C.ar      23 UNK        -0.0193 
     12 C12         2.1179  -20.9906  -51.0169 C.ar      23 UNK        -0.1150 
     13 C13         2.3812  -20.2993  -49.8322 C.ar      23 UNK        -0.0193 
     14 C14         1.4998  -19.3004  -49.4047 C.ar      23 UNK        -0.1150 
     15 C15         3.6361  -20.6262  -49.0403 C.3       23 UNK        -0.0205 
     16 S16         3.4249  -22.1312  -48.0416 S.3       23 UNK        -0.2404 
     17 C17         2.4747  -21.4759  -46.6346 C.3       23 UNK        -0.0398 
     18 CA          1.3222  -22.4018  -46.1838 C.3       11 UNK         0.1400 
     19 N           0.9859  -22.1612  -44.7792 N.am      11 UNK        -0.5000 
     20 C           0.1800  -22.9270  -44.0336 C.2       10 UNK         0.5000 
     21 O          -0.3323  -23.9716  -44.4352 O.2       10 UNK        -0.5000 
     22 CA         -0.1421  -22.4079  -42.6182 C.3       10 UNK         0.1400 
     23 CB          0.9723  -22.7771  -41.6281 C.3       10 UNK        -0.1800 
     24 N          -0.3627  -20.9594  -42.5924 N.am      10 UNK        -0.5000 
     25 C          -1.3834  -20.3455  -43.2077 C.2       9 UNK         0.5000 
     26 O          -2.2802  -20.9464  -43.7972 O.2       9 UNK        -0.5000 
     27 CA         -1.3777  -18.8065  -43.2132 C.3       9 UNK         0.1400 
     28 CB         -1.9380  -18.2534  -41.8946 C.3       9 UNK        -0.1800 
     29 N          -0.0482  -18.2506  -43.4697 N.am      9 UNK        -0.5000 
     30 C           0.6397  -18.4161  -44.6086 C.2       8 UNK         0.5000 
     31 O           0.1918  -18.9920  -45.5963 O.2       8 UNK        -0.5000 
     32 CA          2.0908  -17.9096  -44.6383 C.3       8 UNK         0.1400 
     33 CB          2.1533  -16.4346  -45.0551 C.3       8 UNK        -0.1800 
     34 N           2.7630  -18.1025  -43.3539 N.am      8 UNK        -0.5000 
     35 C           3.1082  -19.3008  -42.8606 C.2       7 UNK         0.5000 
     36 O           2.9276  -20.3604  -43.4590 O.2       7 UNK        -0.5000 
     37 CA          3.7097  -19.3211  -41.4437 C.3       7 UNK         0.1400 
     38 CB          5.2153  -19.0220  -41.4899 C.3       7 UNK        -0.1800 
     39 N           3.0520  -18.3672  -40.5506 N.am      7 UNK        -0.5000 
     40 C           1.7784  -18.4659  -40.1429 C.2       6 UNK         0.5000 
     41 O           1.0496  -19.4208  -40.4129 O.2       6 UNK        -0.5000 
     42 CA          1.2131  -17.2667  -39.3539 C.3       6 UNK         0.1400 
     43 CB          1.4705  -17.4394  -37.8499 C.3       6 UNK        -0.1800 
     44 N           1.7627  -15.9798  -39.7995 N.am      6 UNK        -0.5000 
     45 C           1.5894  -15.4754  -41.0284 C.2       5 UNK         0.5000 
     46 O           0.9078  -16.0243  -41.8952 O.2       5 UNK        -0.5000 
     47 CA          2.3738  -14.2034  -41.3745 C.3       5 UNK         0.1400 
     48 CB          3.8593  -14.5618  -41.6003 C.3       5 UNK        -0.1800 
     49 N           1.8003  -13.6051  -42.5798 N.am      5 UNK        -0.5000 
     50 C           2.1486  -12.4291  -43.1165 C.2       4 UNK         0.5000 
     51 O           2.9815  -11.6703  -42.6185 O.2       4 UNK        -0.5000 
     52 CA          1.4567  -12.0178  -44.4311 C.3       4 UNK         0.1400 
     53 CB          2.2265  -12.5625  -45.6437 C.3       4 UNK        -0.1800 
     54 N           0.0548  -12.4273  -44.5292 N.am      4 UNK        -0.5000 
     55 C          -0.9358  -11.9310  -43.7732 C.2       3 UNK         0.5000 
     56 O          -0.7539  -11.1184  -42.8655 O.2       3 UNK        -0.5000 
     57 CA         -2.3780  -12.3758  -44.0953 C.3       3 UNK         0.1400 
     58 CB         -3.1660  -11.2200  -44.7335 C.3       3 UNK        -0.1800 
     59 N          -2.4676  -13.5343  -44.9840 N.am      3 UNK        -0.5000 
     60 C          -2.1632  -14.7934  -44.6456 C.2       2 UNK         0.5000 
     61 O          -1.7442  -15.1148  -43.5367 O.2       2 UNK        -0.5000 
     62 CA         -2.3614  -15.8689  -45.7308 C.3       2 UNK         0.1400 
     63 CB         -3.7281  -16.5467  -45.5486 C.3       2 UNK        -0.1800 
     64 N          -2.2807  -15.3412  -47.0944 N.am      2 UNK        -0.5000 
     65 C          -1.1859  -14.8272  -47.6696 C.2       1 UNK         0.5000 
     66 O          -0.1007  -14.7305  -47.0976 O.2       1 UNK        -0.5000 
     67 C           0.0780  -22.2984  -47.0968 C.2       11 UNK         0.5000 
     68 O          -0.1399  -23.1738  -47.9344 O.2       11 UNK        -0.5000 
     69 N          -0.7585  -21.2757  -46.8684 N.am      12 UNK        -0.5000 
     70 CA         -2.0506  -21.0849  -47.5256 C.3       12 UNK         0.1400 
     71 CB         -2.6465  -19.7294  -47.1203 C.3       12 UNK        -0.1800 
     72 C          -3.0427  -22.2206  -47.2204 C.2       12 UNK         0.5000 
     73 O          -3.7200  -22.6880  -48.1320 O.2       12 UNK        -0.5000 
     74 N          -3.0883  -22.6822  -45.9633 N.am      13 UNK        -0.5000 
     75 CA         -3.9047  -23.8221  -45.5387 C.3       13 UNK         0.1400 
     76 CB         -3.8639  -23.9517  -44.0088 C.3       13 UNK        -0.1800 
     77 C          -3.4945  -25.1441  -46.2178 C.2       13 UNK         0.5000 
     78 O          -4.3662  -25.9547  -46.5327 O.2       13 UNK        -0.5000 
     79 N          -2.1882  -25.3227  -46.4614 N.am      14 UNK        -0.5000 
     80 CA         -1.6366  -26.4449  -47.2207 C.3       14 UNK         0.1400 
     81 CB         -0.1246  -26.5474  -46.9674 C.3       14 UNK        -0.1800 
     82 C          -1.9444  -26.3461  -48.7284 C.2       14 UNK         0.5000 
     83 O          -2.2658  -27.3633  -49.3439 O.2       14 UNK        -0.5000 
     84 N          -1.8559  -25.1323  -49.2936 N.am      15 UNK        -0.5000 
     85 CA         -2.1901  -24.8357  -50.6909 C.3       15 UNK         0.1400 
     86 CB         -1.6691  -23.4377  -51.0572 C.3       15 UNK        -0.1800 
     87 C          -3.6973  -24.9599  -50.9948 C.2       15 UNK         0.5000 
     88 O          -4.0611  -25.3673  -52.0994 O.2       15 UNK        -0.5000 
     89 N          -4.5388  -24.6282  -50.0054 N.am      16 UNK        -0.5000 
     90 CA         -5.9970  -24.7499  -49.9865 C.3       16 UNK         0.1400 
     91 CB         -6.4056  -26.2379  -49.9155 C.3       16 UNK        -0.1800 
     92 C          -6.6528  -23.9688  -51.1422 C.2       16 UNK         0.5000 
     93 O          -6.6078  -22.7390  -51.1392 O.2       16 UNK        -0.5000 
     94 N          -7.2252  -24.6775  -52.1241 N.am      17 UNK        -0.5000 
     95 CA         -7.8588  -24.1028  -53.3138 C.3       17 UNK         0.1400 
     96 CB         -8.5476  -25.2269  -54.1025 C.3       17 UNK        -0.1800 
     97 C          -6.8900  -23.3205  -54.2250 C.2       17 UNK         0.5000 
     98 O          -7.3336  -22.4311  -54.9521 O.2       17 UNK        -0.5000 
     99 N          -5.5918  -23.6475  -54.1636 N.am      18 UNK        -0.5000 
    100 CA        -4.5347  -22.9914  -54.9323 C.3       18 UNK         0.1400 
    101 CB        -3.4326  -24.0207  -55.2333 C.3       18 UNK        -0.1800 
    102 C         -3.9389  -21.7613  -54.2202 C.2       18 UNK         0.5000 
    103 O         -3.0557  -21.1235  -54.7914 O.2       18 UNK        -0.5000 
    104 N         -4.3843  -21.4519  -52.9929 N.am      19 UNK        -0.5000 
    105 CA        -3.7795  -20.4353  -52.1273 C.3       19 UNK         0.1400 
    106 CB        -4.3544  -20.5666  -50.7135 C.3       19 UNK        -0.1800 
    107 C         -3.9278  -18.9799  -52.6054 C.2       19 UNK         0.5000 
    108 O         -3.1526  -18.1366  -52.1574 O.2       19 UNK        -0.5000 
    109 N         -4.9106  -18.7029  -53.4738 N.am      20 UNK        -0.5000 
    110 CA        -5.2683  -17.3789  -53.9949 C.3       20 UNK         0.1400 
    111 CB        -6.5440  -17.5170  -54.8438 C.3       20 UNK        -0.1800 
    112 C         -4.1207  -16.7094  -54.7823 C.2       20 UNK         0.5000 
    113 O         -4.0339  -16.8697  -56.0006 O.2       20 UNK        -0.5000 
    114 N         -3.2375  -16.0159  -54.0471 N.am      21 UNK        -0.5000 
    115 CA        -1.9678  -15.4159  -54.4837 C.3       21 UNK         0.1400 
    116 CB        -2.2149  -14.2754  -55.4927 C.3       21 UNK        -0.1800 
    117 C         -0.9412  -16.4552  -54.9928 C.2       21 UNK         0.5000 
    118 O         -0.0226  -16.0983  -55.7313 O.2       21 UNK        -0.5000 
    119 N         -1.1225  -17.7142  -54.5743 N.am      22 UNK        -0.5000 
    120 CA        -0.4340  -18.9253  -55.0321 C.3       22 UNK         0.1400 
    121 C         -0.6270  -19.1963  -56.5525 C.2       22 UNK         0.5000 
    122 N         -1.6308  -19.9809  -56.9168 N.am      22 UNK        -0.7600 
    123 O          0.1285  -18.7252  -57.3991 O.2       22 UNK        -0.5000 
    124 C124        1.0444  -18.9956  -54.5707 C.3       23 UNK        -0.0398 
    125 S125        1.6717  -20.7118  -54.4732 S.3       23 UNK        -0.2404 
    126 C126        0.7310  -21.4277  -53.0808 C.3       23 UNK        -0.0205 
    127 H127       -5.0045  -11.7033  -49.7826 H         1 UNK         0.0600 
    128 H128       -3.5418  -10.9133  -49.1865 H         1 UNK         0.0600 
    129 H129       -4.7450  -11.5189  -48.0445 H         1 UNK         0.0600 
    130 H130       -1.7619  -12.2198  -49.2689 H         1 UNK         0.3000 
    131 H131       -0.3755  -13.8741  -49.3885 H         1 UNK         0.0600 
    132 H132       -2.1185  -14.8852  -51.0377 H         1 UNK         0.0800 
    133 H133       -2.5431  -16.0029  -49.7833 H         1 UNK         0.0800 
    134 H134       -1.6175  -18.2326  -49.8476 H         1 UNK         0.0800 
    135 H135       -0.4578  -17.6818  -48.6540 H         1 UNK         0.0800 
    136 H136       -0.7627  -19.4485  -51.9251 H         1 UNK         0.1150 
    137 H137        2.8030  -21.7557  -51.3548 H         1 UNK         0.1150 
    138 H138        1.7027  -18.7524  -48.4953 H         1 UNK         0.1150 
    139 H139        4.4677  -20.7778  -49.7303 H         1 UNK         0.0800 
    140 H140        3.9237  -19.7902  -48.4007 H         1 UNK         0.0800 
    141 H141        2.1076  -20.4717  -46.8450 H         1 UNK         0.0800 
    142 H142        3.1972  -21.3614  -45.8265 H         1 UNK         0.0800 
    143 H143        1.6764  -23.4336  -46.2397 H         1 UNK         0.0600 
    144 H144        1.4138  -21.3502  -44.3451 H         1 UNK         0.3000 
    145 H145       -1.0626  -22.8934  -42.2879 H         1 UNK         0.0600 
    146 H146        0.7207  -22.4589  -40.6162 H         1 UNK         0.0600 
    147 H147        1.9224  -22.3148  -41.8959 H         1 UNK         0.0600 
    148 H148        1.1280  -23.8563  -41.6018 H         1 UNK         0.0600 
    149 H149        0.3061  -20.3984  -42.0754 H         1 UNK         0.3000 
    150 H150       -2.0311  -18.4788  -44.0219 H         1 UNK         0.0600 
    151 H151       -2.9714  -18.5707  -41.7507 H         1 UNK         0.0600 
    152 H152       -1.9275  -17.1641  -41.8825 H         1 UNK         0.0600 
    153 H153       -1.3687  -18.6000  -41.0334 H         1 UNK         0.0600 
    154 H154        0.3582  -17.6743  -42.7386 H         1 UNK         0.3000 
    155 H155        2.6328  -18.4891  -45.3885 H         1 UNK         0.0600 
    156 H156        1.8119  -16.3162  -46.0838 H         1 UNK         0.0600 
    157 H157        3.1707  -16.0467  -45.0049 H         1 UNK         0.0600 
    158 H158        1.5189  -15.8061  -44.4316 H         1 UNK         0.0600 
    159 H159        2.8853  -17.2842  -42.7781 H         1 UNK         0.3000 
    160 H160        3.5709  -20.3246  -41.0356 H         1 UNK         0.0600 
    161 H161        5.4176  -18.0192  -41.8683 H         1 UNK         0.0600 
    162 H162        5.7332  -19.7290  -42.1396 H         1 UNK         0.0600 
    163 H163        5.6638  -19.1042  -40.4997 H         1 UNK         0.0600 
    164 H164        3.5859  -17.5581  -40.2713 H         1 UNK         0.3000 
    165 H165        0.1334  -17.2448  -39.5155 H         1 UNK         0.0600 
    166 H166        1.0055  -16.6378  -37.2757 H         1 UNK         0.0600 
    167 H167        1.0533  -18.3804  -37.4886 H         1 UNK         0.0600 
    168 H168        2.5368  -17.4432  -37.6203 H         1 UNK         0.0600 
    169 H169        2.3390  -15.4806  -39.1369 H         1 UNK         0.3000 
    170 H170        2.2787  -13.4977  -40.5472 H         1 UNK         0.0600 
    171 H171        3.9874  -15.2147  -42.4645 H         1 UNK         0.0600 
    172 H172        4.4691  -13.6739  -41.7638 H         1 UNK         0.0600 
    173 H173        4.2822  -15.0740  -40.7355 H         1 UNK         0.0600 
    174 H174        1.0712  -14.1615  -43.0109 H         1 UNK         0.3000 
    175 H175        1.4854  -10.9273  -44.4827 H         1 UNK         0.0600 
    176 H176        2.1995  -13.6511  -45.6822 H         1 UNK         0.0600 
    177 H177        1.8083  -12.1866  -46.5777 H         1 UNK         0.0600 
    178 H178        3.2740  -12.2604  -45.6116 H         1 UNK         0.0600 
    179 H179       -0.1730  -13.1006  -45.2483 H         1 UNK         0.3000 
    180 H180       -2.8558  -12.6346  -43.1481 H         1 UNK         0.0600 
    181 H181       -4.2078  -11.4955  -44.8986 H         1 UNK         0.0600 
    182 H182       -2.7401  -10.9247  -45.6933 H         1 UNK         0.0600 
    183 H183       -3.1639  -10.3400  -44.0889 H         1 UNK         0.0600 
    184 H184       -2.8056  -13.3634  -45.9189 H         1 UNK         0.3000 
    185 H185       -1.5761  -16.6169  -45.6108 H         1 UNK         0.0600 
    186 H186       -4.5459  -15.8347  -45.6677 H         1 UNK         0.0600 
    187 H187       -3.8772  -17.3439  -46.2752 H         1 UNK         0.0600 
    188 H188       -3.8219  -16.9866  -44.5552 H         1 UNK         0.0600 
    189 H189       -3.1508  -15.2825  -47.6153 H         1 UNK         0.3000 
    190 H190       -0.4798  -20.5529  -46.2082 H         1 UNK         0.3000 
    191 H191       -1.8724  -21.0701  -48.6025 H         1 UNK         0.0600 
    192 H192       -1.9678  -18.9098  -47.3492 H         1 UNK         0.0600 
    193 H193       -2.8636  -19.6877  -46.0538 H         1 UNK         0.0600 
    194 H194       -3.5806  -19.5385  -47.6488 H         1 UNK         0.0600 
    195 H195       -2.5561  -22.2027  -45.2427 H         1 UNK         0.3000 
    196 H196       -4.9361  -23.6123  -45.8295 H         1 UNK         0.0600 
    197 H197       -4.2120  -23.0384  -43.5261 H         1 UNK         0.0600 
    198 H198       -2.8575  -24.1589  -43.6467 H         1 UNK         0.0600 
    199 H199       -4.5072  -24.7646  -43.6699 H         1 UNK         0.0600 
    200 H200       -1.5318  -24.6285  -46.1235 H         1 UNK         0.3000 
    201 H201       -2.0977  -27.3623  -46.8488 H         1 UNK         0.0600 
    202 H202        0.0897  -26.6617  -45.9046 H         1 UNK         0.0600 
    203 H203        0.4091  -25.6658  -47.3215 H         1 UNK         0.0600 
    204 H204        0.2974  -27.4125  -47.4802 H         1 UNK         0.0600 
    205 H205       -1.5126  -24.3592  -48.7313 H         1 UNK         0.3000 
    206 H206       -1.6712  -25.5615  -51.3203 H         1 UNK         0.0600 
    207 H207       -2.1172  -22.6654  -50.4337 H         1 UNK         0.0600 
    208 H208       -0.5878  -23.3756  -50.9323 H         1 UNK         0.0600 
    209 H209       -1.8929  -23.1955  -52.0966 H         1 UNK         0.0600 
    210 H210       -4.1387  -24.1721  -49.1889 H         1 UNK         0.3000 
    211 H211       -6.3318  -24.2709  -49.0652 H         1 UNK         0.0600 
    212 H212       -6.0567  -26.8065  -50.7782 H         1 UNK         0.0600 
    213 H213       -7.4892  -26.3475  -49.8561 H         1 UNK         0.0600 
    214 H214       -5.9875  -26.7083  -49.0251 H         1 UNK         0.0600 
    215 H215       -7.1941  -25.6852  -52.0692 H         1 UNK         0.3000 
    216 H216       -8.6253  -23.4018  -52.9769 H         1 UNK         0.0600 
    217 H217       -9.0567  -24.8320  -54.9828 H         1 UNK         0.0600 
    218 H218       -9.2982  -25.7332  -53.4952 H         1 UNK         0.0600 
    219 H219       -7.8310  -25.9744  -54.4453 H         1 UNK         0.0600 
    220 H220       -5.2947  -24.3704  -53.5161 H         1 UNK         0.3000 
    221 H221       -4.9389  -22.6476  -55.8866 H         1 UNK         0.0600 
    222 H222       -2.9365  -24.3598  -54.3236 H         1 UNK         0.0600 
    223 H223       -3.8375  -24.8962  -55.7412 H         1 UNK         0.0600 
    224 H224       -2.6662  -23.5963  -55.8832 H         1 UNK         0.0600 
    225 H225       -5.1323  -22.0013  -52.5863 H         1 UNK         0.3000 
    226 H226       -2.7120  -20.6528  -52.0748 H         1 UNK         0.0600 
    227 H227       -4.2617  -21.5870  -50.3489 H         1 UNK         0.0600 
    228 H228       -3.8264  -19.9174  -50.0152 H         1 UNK         0.0600 
    229 H229       -5.4107  -20.2974  -50.6810 H         1 UNK         0.0600 
    230 H230       -5.4745  -19.4748  -53.7975 H         1 UNK         0.3000 
    231 H231       -5.5071  -16.7386  -53.1432 H         1 UNK         0.0600 
    232 H232       -6.8439  -16.5536  -55.2582 H         1 UNK         0.0600 
    233 H233       -7.3776  -17.8860  -54.2459 H         1 UNK         0.0600 
    234 H234       -6.4012  -18.2042  -55.6788 H         1 UNK         0.0600 
    235 H235       -3.3677  -16.0457  -53.0438 H         1 UNK         0.3000 
    236 H236       -1.5226  -14.9731  -53.5916 H         1 UNK         0.0600 
    237 H237       -2.5849  -14.6512  -56.4470 H         1 UNK         0.0600 
    238 H238       -2.9414  -13.5593  -55.1087 H         1 UNK         0.0600 
    239 H239       -1.2951  -13.7253  -55.6944 H         1 UNK         0.0600 
    240 H240       -1.8954  -17.8707  -53.9401 H         1 UNK         0.3000 
    241 H241       -0.9680  -19.7103  -54.5043 H         1 UNK         0.0600 
    242 H242       -1.7816  -20.1805  -57.8924 H         1 UNK         0.3800 
    243 H243       -2.2364  -20.3991  -56.2114 H         1 UNK         0.3800 
    244 H244        1.1618  -18.5316  -53.5914 H         1 UNK         0.0800 
    245 H245        1.6878  -18.4200  -55.2379 H         1 UNK         0.0800 
    246 H246       -0.3349  -21.4521  -53.3080 H         1 UNK         0.0800 
    247 H247        1.0267  -22.4717  -52.9669 H         1 UNK         0.0800 
@<TRIPOS>BOND
     1    1    2 1    
     2    1  127 1    
     3    1  128 1    
     4    1  129 1    
     5    2    3 2    
     6    2    4 am   BACKBONE|DICT|INTERRES
     7    4    5 1    
     8    4  130 1    
     9    5    6 1    
    10    5   65 1    
    11    5  131 1    
    12    6    7 1    
    13    6  132 1    
    14    6  133 1    
    15    7    8 1    
    16    8    9 1    
    17    8  134 1    
    18    8  135 1    
    19    9   10 ar   
    20    9   14 ar   
    21   10   11 ar   
    22   10  136 1    
    23   11   12 ar   
    24   11  126 1    
    25   12   13 ar   
    26   12  137 1    
    27   13   14 ar   
    28   13   15 1    
    29   14  138 1    
    30   15   16 1    
    31   15  139 1    
    32   15  140 1    
    33   16   17 1    
    34   17   18 1    
    35   17  141 1    
    36   17  142 1    
    37   18   19 1    
    38   18   67 1    
    39   18  143 1    
    40   19   20 am   BACKBONE|DICT|INTERRES
    41   19  144 1    
    42   20   21 2    
    43   20   22 1    
    44   22   23 1    
    45   22   24 1    
    46   22  145 1    
    47   23  146 1    
    48   23  147 1    
    49   23  148 1    
    50   24   25 am   BACKBONE|DICT|INTERRES
    51   24  149 1    
    52   25   26 2    
    53   25   27 1    
    54   27   28 1    
    55   27   29 1    
    56   27  150 1    
    57   28  151 1    
    58   28  152 1    
    59   28  153 1    
    60   29   30 am   BACKBONE|DICT|INTERRES
    61   29  154 1    
    62   30   31 2    
    63   30   32 1    
    64   32   33 1    
    65   32   34 1    
    66   32  155 1    
    67   33  156 1    
    68   33  157 1    
    69   33  158 1    
    70   34   35 am   BACKBONE|DICT|INTERRES
    71   34  159 1    
    72   35   36 2    
    73   35   37 1    
    74   37   38 1    
    75   37   39 1    
    76   37  160 1    
    77   38  161 1    
    78   38  162 1    
    79   38  163 1    
    80   39   40 am   BACKBONE|DICT|INTERRES
    81   39  164 1    
    82   40   41 2    
    83   40   42 1    
    84   42   43 1    
    85   42   44 1    
    86   42  165 1    
    87   43  166 1    
    88   43  167 1    
    89   43  168 1    
    90   44   45 am   BACKBONE|DICT|INTERRES
    91   44  169 1    
    92   45   46 2    
    93   45   47 1    
    94   47   48 1    
    95   47   49 1    
    96   47  170 1    
    97   48  171 1    
    98   48  172 1    
    99   48  173 1    
   100   49   50 am   BACKBONE|DICT|INTERRES
   101   49  174 1    
   102   50   51 2    
   103   50   52 1    
   104   52   53 1    
   105   52   54 1    
   106   52  175 1    
   107   53  176 1    
   108   53  177 1    
   109   53  178 1    
   110   54   55 am   BACKBONE|DICT|INTERRES
   111   54  179 1    
   112   55   56 2    
   113   55   57 1    
   114   57   58 1    
   115   57   59 1    
   116   57  180 1    
   117   58  181 1    
   118   58  182 1    
   119   58  183 1    
   120   59   60 am   BACKBONE|DICT|INTERRES
   121   59  184 1    
   122   60   61 2    
   123   60   62 1    
   124   62   63 1    
   125   62   64 1    
   126   62  185 1    
   127   63  186 1    
   128   63  187 1    
   129   63  188 1    
   130   64   65 am   BACKBONE|DICT|INTERRES
   131   64  189 1    
   132   65   66 2    
   133   67   68 2    
   134   67   69 am   BACKBONE|DICT|INTERRES
   135   69   70 1    
   136   69  190 1    
   137   70   71 1    
   138   70   72 1    
   139   70  191 1    
   140   71  192 1    
   141   71  193 1    
   142   71  194 1    
   143   72   73 2    
   144   72   74 am   BACKBONE|DICT|INTERRES
   145   74   75 1    
   146   74  195 1    
   147   75   76 1    
   148   75   77 1    
   149   75  196 1    
   150   76  197 1    
   151   76  198 1    
   152   76  199 1    
   153   77   78 2    
   154   77   79 am   BACKBONE|DICT|INTERRES
   155   79   80 1    
   156   79  200 1    
   157   80   81 1    
   158   80   82 1    
   159   80  201 1    
   160   81  202 1    
   161   81  203 1    
   162   81  204 1    
   163   82   83 2    
   164   82   84 am   BACKBONE|DICT|INTERRES
   165   84   85 1    
   166   84  205 1    
   167   85   86 1    
   168   85   87 1    
   169   85  206 1    
   170   86  207 1    
   171   86  208 1    
   172   86  209 1    
   173   87   88 2    
   174   87   89 am   BACKBONE|DICT|INTERRES
   175   89   90 1    
   176   89  210 1    
   177   90   91 1    
   178   90   92 1    
   179   90  211 1    
   180   91  212 1    
   181   91  213 1    
   182   91  214 1    
   183   92   93 2    
   184   92   94 am   BACKBONE|DICT|INTERRES
   185   94   95 1    
   186   94  215 1    
   187   95   96 1    
   188   95   97 1    
   189   95  216 1    
   190   96  217 1    
   191   96  218 1    
   192   96  219 1    
   193   97   98 2    
   194   97   99 am   BACKBONE|DICT|INTERRES
   195   99  100 1    
   196   99  220 1    
   197  100  101 1    
   198  100  102 1    
   199  100  221 1    
   200  101  222 1    
   201  101  223 1    
   202  101  224 1    
   203  102  103 2    
   204  102  104 am   BACKBONE|DICT|INTERRES
   205  104  105 1    
   206  104  225 1    
   207  105  106 1    
   208  105  107 1    
   209  105  226 1    
   210  106  227 1    
   211  106  228 1    
   212  106  229 1    
   213  107  108 2    
   214  107  109 am   BACKBONE|DICT|INTERRES
   215  109  110 1    
   216  109  230 1    
   217  110  111 1    
   218  110  112 1    
   219  110  231 1    
   220  111  232 1    
   221  111  233 1    
   222  111  234 1    
   223  112  113 2    
   224  112  114 am   BACKBONE|DICT|INTERRES
   225  114  115 1    
   226  114  235 1    
   227  115  116 1    
   228  115  117 1    
   229  115  236 1    
   230  116  237 1    
   231  116  238 1    
   232  116  239 1    
   233  117  118 2    
   234  117  119 am   BACKBONE|DICT|INTERRES
   235  119  120 1    
   236  119  240 1    
   237  120  121 1    
   238  120  124 1    
   239  120  241 1    
   240  121  122 am   BACKBONE|DICT|INTERRES
   241  121  123 2    
   242  122  242 1    
   243  122  243 1    
   244  124  125 1    
   245  124  244 1    
   246  124  245 1    
   247  125  126 1    
   248  126  246 1    
   249  126  247 1    
@<TRIPOS>SUBSTRUCTURE
     1 UNK         1 GROUP             0       ****    0 ROOT    
