@<TRIPOS>MOLECULE
3R540
247   249    1
SMALL
USER_CHARGES


@<TRIPOS>ATOM
      1 CA          5.5743   -9.9253  -49.2637 C.3       0 UNK        -0.1800 
      2 C           4.6088  -10.8827  -48.5801 C.2       0 UNK         0.5000 
      3 O           4.0352  -10.5422  -47.5445 O.2       0 UNK        -0.5000 
      4 N           4.4232  -12.0780  -49.1527 N.am      1 UNK        -0.5000 
      5 CA          3.5171  -13.1259  -48.6736 C.3       1 UNK         0.1400 
      6 C6          3.9761  -14.5445  -49.1076 C.3       23 UNK        -0.0398 
      7 S7          4.3188  -14.7396  -50.8930 S.3       23 UNK        -0.2404 
      8 C8          4.9285  -16.4548  -50.9462 C.3       23 UNK        -0.0205 
      9 C9          3.8393  -17.4686  -50.6230 C.ar      23 UNK        -0.0193 
     10 C10         2.8778  -17.7973  -51.5845 C.ar      23 UNK        -0.1150 
     11 C11         1.8885  -18.7447  -51.3041 C.ar      23 UNK        -0.0193 
     12 C12         1.8679  -19.3630  -50.0522 C.ar      23 UNK        -0.1150 
     13 C13         2.8172  -19.0407  -49.0808 C.ar      23 UNK        -0.0193 
     14 C14         3.8025  -18.0930  -49.3715 C.ar      23 UNK        -0.1150 
     15 C15         2.7546  -19.6936  -47.7096 C.3       23 UNK        -0.0205 
     16 S16         3.8998  -21.0972  -47.5362 S.3       23 UNK        -0.2404 
     17 C17         3.2470  -22.3461  -48.7076 C.3       23 UNK        -0.0398 
     18 CA          2.1079  -23.2571  -48.1680 C.3       11 UNK         0.1400 
     19 N           2.3120  -23.6360  -46.7685 N.am      11 UNK        -0.5000 
     20 C           1.6303  -24.5652  -46.0883 C.2       10 UNK         0.5000 
     21 O           0.7439  -25.2641  -46.5782 O.2       10 UNK        -0.5000 
     22 CA          1.9679  -24.7081  -44.5907 C.3       10 UNK         0.1400 
     23 CB          2.9933  -25.8328  -44.3840 C.3       10 UNK        -0.1800 
     24 N           2.4616  -23.4872  -43.9364 N.am      10 UNK        -0.5000 
     25 C           1.8564  -22.2909  -43.9278 C.2       9 UNK         0.5000 
     26 O           0.8445  -22.0349  -44.5840 O.2       9 UNK        -0.5000 
     27 CA          2.5204  -21.2004  -43.0746 C.3       9 UNK         0.1400 
     28 CB          3.6038  -20.4721  -43.8824 C.3       9 UNK        -0.1800 
     29 N           1.5267  -20.2200  -42.6451 N.am      9 UNK        -0.5000 
     30 C           1.0736  -20.0772  -41.3921 C.2       8 UNK         0.5000 
     31 O           1.4543  -20.7731  -40.4494 O.2       8 UNK        -0.5000 
     32 CA          0.0377  -18.9655  -41.1216 C.3       8 UNK         0.1400 
     33 CB          0.7004  -17.7756  -40.4105 C.3       8 UNK        -0.1800 
     34 N          -0.6156  -18.4837  -42.3374 N.am      8 UNK        -0.5000 
     35 C          -1.6183  -19.1200  -42.9573 C.2       7 UNK         0.5000 
     36 O          -2.1701  -20.1186  -42.4960 O.2       7 UNK        -0.5000 
     37 CA         -2.0995  -18.5609  -44.3128 C.3       7 UNK         0.1400 
     38 CB         -3.4909  -17.9283  -44.1633 C.3       7 UNK        -0.1800 
     39 N          -1.2051  -17.5881  -44.9480 N.am      7 UNK        -0.5000 
     40 C           0.0610  -17.8177  -45.3263 C.2       6 UNK         0.5000 
     41 O           0.6512  -18.8798  -45.1383 O.2       6 UNK        -0.5000 
     42 CA          0.8079  -16.6476  -45.9844 C.3       6 UNK         0.1400 
     43 CB          0.4218  -16.5247  -47.4669 C.3       6 UNK        -0.1800 
     44 N           0.5569  -15.3751  -45.3123 N.am      6 UNK        -0.5000 
     45 C           0.8444  -15.0946  -44.0338 C.2       5 UNK         0.5000 
     46 O           1.3821  -15.8864  -43.2602 O.2       5 UNK        -0.5000 
     47 CA          0.4261  -13.7037  -43.5324 C.3       5 UNK         0.1400 
     48 CB          1.4358  -12.6324  -43.9759 C.3       5 UNK        -0.1800 
     49 N          -0.9086  -13.3509  -44.0154 N.am      5 UNK        -0.5000 
     50 C          -2.0498  -13.7787  -43.4590 C.2       4 UNK         0.5000 
     51 O          -2.0954  -14.4715  -42.4421 O.2       4 UNK        -0.5000 
     52 CA         -3.3651  -13.3666  -44.1487 C.3       4 UNK         0.1400 
     53 CB         -3.9093  -12.0688  -43.5328 C.3       4 UNK        -0.1800 
     54 N          -3.2418  -13.1908  -45.5972 N.am      4 UNK        -0.5000 
     55 C          -3.0560  -14.1927  -46.4667 C.2       3 UNK         0.5000 
     56 O          -2.9296  -15.3720  -46.1372 O.2       3 UNK        -0.5000 
     57 CA         -2.9474  -13.7996  -47.9532 C.3       3 UNK         0.1400 
     58 CB         -4.3340  -13.4539  -48.5194 C.3       3 UNK        -0.1800 
     59 N          -2.0276  -12.6917  -48.2467 N.am      3 UNK        -0.5000 
     60 C          -0.7764  -12.5571  -47.7878 C.2       2 UNK         0.5000 
     61 O          -0.2861  -13.2666  -46.9090 O.2       2 UNK        -0.5000 
     62 CA          0.0738  -11.4255  -48.3952 C.3       2 UNK         0.1400 
     63 CB         -0.1275  -10.1248  -47.6036 C.3       2 UNK        -0.1800 
     64 N           1.4974  -11.7695  -48.3816 N.am      2 UNK        -0.5000 
     65 C           2.0465  -12.8064  -49.0289 C.2       1 UNK         0.5000 
     66 O           1.4388  -13.4796  -49.8628 O.2       1 UNK        -0.5000 
     67 C           0.7064  -22.6810  -48.4792 C.2       11 UNK         0.5000 
     68 O           0.2965  -22.7493  -49.6381 O.2       11 UNK        -0.5000 
     69 N          -0.0046  -22.1444  -47.4761 N.am      12 UNK        -0.5000 
     70 CA         -1.3652  -21.6189  -47.6322 C.3       12 UNK         0.1400 
     71 CB         -1.3206  -20.1098  -47.9187 C.3       12 UNK        -0.1800 
     72 C          -2.3039  -21.9685  -46.4637 C.2       12 UNK         0.5000 
     73 O          -3.5025  -21.7157  -46.5761 O.2       12 UNK        -0.5000 
     74 N          -1.7858  -22.5590  -45.3766 N.am      13 UNK        -0.5000 
     75 CA         -2.5941  -23.1582  -44.3105 C.3       13 UNK         0.1400 
     76 CB         -1.7064  -23.4586  -43.0929 C.3       13 UNK        -0.1800 
     77 C          -3.3036  -24.4444  -44.7800 C.2       13 UNK         0.5000 
     78 O          -4.4051  -24.7386  -44.3137 O.2       13 UNK        -0.5000 
     79 N          -2.6626  -25.1790  -45.7007 N.am      14 UNK        -0.5000 
     80 CA         -3.2406  -26.3135  -46.4180 C.3       14 UNK         0.1400 
     81 CB         -2.0990  -27.1210  -47.0562 C.3       14 UNK        -0.1800 
     82 C          -4.2295  -25.8408  -47.5004 C.2       14 UNK         0.5000 
     83 O          -4.1514  -24.6977  -47.9496 O.2       14 UNK        -0.5000 
     84 N          -5.1163  -26.7453  -47.9353 N.am      15 UNK        -0.5000 
     85 CA         -6.1236  -26.4934  -48.9739 C.3       15 UNK         0.1400 
     86 CB         -7.1527  -27.6343  -48.9493 C.3       15 UNK        -0.1800 
     87 C          -5.5436  -26.3225  -50.3951 C.2       15 UNK         0.5000 
     88 O          -6.2465  -25.8271  -51.2786 O.2       15 UNK        -0.5000 
     89 N          -4.2864  -26.7444  -50.5944 N.am      16 UNK        -0.5000 
     90 CA         -3.5252  -26.6311  -51.8389 C.3       16 UNK         0.1400 
     91 CB         -2.1340  -27.2461  -51.6227 C.3       16 UNK        -0.1800 
     92 C          -3.3971  -25.1762  -52.3302 C.2       16 UNK         0.5000 
     93 O          -3.2912  -24.2595  -51.5134 O.2       16 UNK        -0.5000 
     94 N          -3.4257  -24.9992  -53.6594 N.am      17 UNK        -0.5000 
     95 CA         -3.3447  -23.7201  -54.3818 C.3       17 UNK         0.1400 
     96 CB         -1.9396  -23.1004  -54.2252 C.3       17 UNK        -0.1800 
     97 C          -4.4735  -22.7243  -54.0257 C.2       17 UNK         0.5000 
     98 O          -4.2880  -21.5165  -54.1671 O.2       17 UNK        -0.5000 
     99 N          -5.6197  -23.2541  -53.5706 N.am      18 UNK        -0.5000 
    100 CA        -6.7810  -22.5335  -53.0374 C.3       18 UNK         0.1400 
    101 CB        -7.4226  -21.6211  -54.1049 C.3       18 UNK        -0.1800 
    102 C         -6.4858  -21.8020  -51.7091 C.2       18 UNK         0.5000 
    103 O         -7.1227  -20.7892  -51.4114 O.2       18 UNK        -0.5000 
    104 N         -5.5476  -22.3445  -50.9178 N.am      19 UNK        -0.5000 
    105 CA        -5.1340  -21.8724  -49.5961 C.3       19 UNK         0.1400 
    106 CB        -6.2737  -22.0921  -48.5727 C.3       19 UNK        -0.1800 
    107 C         -4.5958  -20.4288  -49.6542 C.2       19 UNK         0.5000 
    108 O         -3.6564  -20.1676  -50.4041 O.2       19 UNK        -0.5000 
    109 N         -5.2026  -19.5121  -48.8890 N.am      20 UNK        -0.5000 
    110 CA        -4.8408  -18.0951  -48.8075 C.3       20 UNK         0.1400 
    111 CB        -5.6656  -17.4497  -47.6841 C.3       20 UNK        -0.1800 
    112 C         -5.0215  -17.3143  -50.1261 C.2       20 UNK         0.5000 
    113 O         -4.4154  -16.2551  -50.2834 O.2       20 UNK        -0.5000 
    114 N         -5.8335  -17.8412  -51.0539 N.am      21 UNK        -0.5000 
    115 CA        -6.1098  -17.2440  -52.3620 C.3       21 UNK         0.1400 
    116 CB        -7.5006  -17.7013  -52.8339 C.3       21 UNK        -0.1800 
    117 C         -5.0271  -17.5379  -53.4248 C.2       21 UNK         0.5000 
    118 O         -5.2406  -17.2121  -54.5937 O.2       21 UNK        -0.5000 
    119 N         -3.8969  -18.1396  -53.0275 N.am      22 UNK        -0.5000 
    120 CA        -2.7693  -18.4942  -53.9064 C.3       22 UNK         0.1400 
    121 C         -2.0184  -17.3056  -54.5817 C.2       22 UNK         0.5000 
    122 N         -2.1896  -16.0670  -54.1349 N.am      22 UNK        -0.7600 
    123 O         -1.2730  -17.5137  -55.5354 O.2       22 UNK        -0.5000 
    124 C124       -1.7907  -19.4697  -53.2042 C.3       23 UNK        -0.0398 
    125 S125       -0.8376  -18.7303  -51.8292 S.3       23 UNK        -0.2404 
    126 C126        0.8588  -19.1299  -52.3553 C.3       23 UNK        -0.0205 
    127 H127        6.3875   -9.6654  -48.5861 H         1 UNK         0.0600 
    128 H128        5.0567   -9.0082  -49.5448 H         1 UNK         0.0600 
    129 H129        6.0079  -10.3612  -50.1642 H         1 UNK         0.0600 
    130 H130        4.8996  -12.2944  -50.0175 H         1 UNK         0.3000 
    131 H131        3.5594  -13.1256  -47.5818 H         1 UNK         0.0600 
    132 H132        4.8891  -14.7996  -48.5679 H         1 UNK         0.0800 
    133 H133        3.2394  -15.2896  -48.8040 H         1 UNK         0.0800 
    134 H134        5.3209  -16.6565  -51.9440 H         1 UNK         0.0800 
    135 H135        5.7720  -16.5619  -50.2624 H         1 UNK         0.0800 
    136 H136        2.9057  -17.3163  -52.5522 H         1 UNK         0.1150 
    137 H137        1.1033  -20.0946  -49.8372 H         1 UNK         0.1150 
    138 H138        4.5403  -17.8429  -48.6220 H         1 UNK         0.1150 
    139 H139        3.0017  -18.9503  -46.9510 H         1 UNK         0.0800 
    140 H140        1.7408  -20.0182  -47.4818 H         1 UNK         0.0800 
    141 H141        2.9775  -21.8724  -49.6523 H         1 UNK         0.0800 
    142 H142        4.0953  -22.9842  -48.9581 H         1 UNK         0.0800 
    143 H143        2.1576  -24.1879  -48.7375 H         1 UNK         0.0600 
    144 H144        3.0032  -23.0925  -46.2715 H         1 UNK         0.3000 
    145 H145        1.0480  -24.9988  -44.0831 H         1 UNK         0.0600 
    146 H146        3.1563  -26.0299  -43.3243 H         1 UNK         0.0600 
    147 H147        2.6497  -26.7645  -44.8359 H         1 UNK         0.0600 
    148 H148        3.9562  -25.5857  -44.8329 H         1 UNK         0.0600 
    149 H149        3.3051  -23.5977  -43.3922 H         1 UNK         0.3000 
    150 H150        2.9930  -21.6756  -42.2127 H         1 UNK         0.0600 
    151 H151        4.3597  -21.1668  -44.2506 H         1 UNK         0.0600 
    152 H152        4.1151  -19.7283  -43.2714 H         1 UNK         0.0600 
    153 H153        3.1797  -19.9578  -44.7444 H         1 UNK         0.0600 
    154 H154        1.1072  -19.6774  -43.3954 H         1 UNK         0.3000 
    155 H155       -0.7210  -19.3769  -40.4526 H         1 UNK         0.0600 
    156 H156        1.1251  -18.0808  -39.4534 H         1 UNK         0.0600 
    157 H157       -0.0201  -16.9826  -40.2088 H         1 UNK         0.0600 
    158 H158        1.5095  -17.3515  -41.0059 H         1 UNK         0.0600 
    159 H159       -0.2061  -17.6720  -42.7807 H         1 UNK         0.3000 
    160 H160       -2.1850  -19.4117  -44.9897 H         1 UNK         0.0600 
    161 H161       -3.4590  -17.0336  -43.5402 H         1 UNK         0.0600 
    162 H162       -4.1962  -18.6250  -43.7083 H         1 UNK         0.0600 
    163 H163       -3.8982  -17.6471  -45.1330 H         1 UNK         0.0600 
    164 H164       -1.6183  -16.6899  -45.1767 H         1 UNK         0.3000 
    165 H165        1.8781  -16.8534  -45.9214 H         1 UNK         0.0600 
    166 H166        0.9926  -15.7394  -47.9615 H         1 UNK         0.0600 
    167 H167        0.6143  -17.4537  -48.0035 H         1 UNK         0.0600 
    168 H168       -0.6363  -16.2908  -47.5894 H         1 UNK         0.0600 
    169 H169        0.1404  -14.6398  -45.8822 H         1 UNK         0.3000 
    170 H170        0.4172  -13.7260  -42.4404 H         1 UNK         0.0600 
    171 H171        2.4332  -12.8593  -43.5977 H         1 UNK         0.0600 
    172 H172        1.5073  -12.5608  -45.0616 H         1 UNK         0.0600 
    173 H173        1.1593  -11.6496  -43.5941 H         1 UNK         0.0600 
    174 H174       -0.9527  -12.8644  -44.9014 H         1 UNK         0.3000 
    175 H175       -4.0923  -14.1607  -43.9656 H         1 UNK         0.0600 
    176 H176       -3.2347  -11.2287  -43.7029 H         1 UNK         0.0600 
    177 H177       -4.8817  -11.8102  -43.9524 H         1 UNK         0.0600 
    178 H178       -4.0394  -12.1725  -42.4547 H         1 UNK         0.0600 
    179 H179       -3.3097  -12.2484  -45.9522 H         1 UNK         0.3000 
    180 H180       -2.5735  -14.6749  -48.4883 H         1 UNK         0.0600 
    181 H181       -4.7267  -12.5301  -48.0933 H         1 UNK         0.0600 
    182 H182       -5.0556  -14.2433  -48.3095 H         1 UNK         0.0600 
    183 H183       -4.2976  -13.3357  -49.6026 H         1 UNK         0.0600 
    184 H184       -2.3468  -12.0393  -48.9480 H         1 UNK         0.3000 
    185 H185       -0.2313  -11.2676  -49.4314 H         1 UNK         0.0600 
    186 H186       -1.1740   -9.8174  -47.6125 H         1 UNK         0.0600 
    187 H187        0.1730  -10.2386  -46.5610 H         1 UNK         0.0600 
    188 H188        0.4539   -9.3083  -48.0324 H         1 UNK         0.0600 
    189 H189        2.0902  -11.2442  -47.7491 H         1 UNK         0.3000 
    190 H190        0.4056  -22.0927  -46.5490 H         1 UNK         0.3000 
    191 H191       -1.8381  -22.0963  -48.4935 H         1 UNK         0.0600 
    192 H192       -1.0547  -19.9202  -48.9578 H         1 UNK         0.0600 
    193 H193       -0.5898  -19.6088  -47.2942 H         1 UNK         0.0600 
    194 H194       -2.2844  -19.6333  -47.7437 H         1 UNK         0.0600 
    195 H195       -0.7795  -22.5994  -45.2514 H         1 UNK         0.3000 
    196 H196       -3.3561  -22.4365  -44.0087 H         1 UNK         0.0600 
    197 H197       -2.3060  -23.8182  -42.2560 H         1 UNK         0.0600 
    198 H198       -1.1780  -22.5683  -42.7533 H         1 UNK         0.0600 
    199 H199       -0.9638  -24.2234  -43.3147 H         1 UNK         0.0600 
    200 H200       -1.7743  -24.8433  -46.0449 H         1 UNK         0.3000 
    201 H201       -3.7717  -26.9491  -45.7065 H         1 UNK         0.0600 
    202 H202       -1.3828  -27.4533  -46.3043 H         1 UNK         0.0600 
    203 H203       -1.5547  -26.5317  -47.7959 H         1 UNK         0.0600 
    204 H204       -2.4772  -28.0119  -47.5588 H         1 UNK         0.0600 
    205 H205       -5.1148  -27.6700  -47.5288 H         1 UNK         0.3000 
    206 H206       -6.6417  -25.5654  -48.7252 H         1 UNK         0.0600 
    207 H207       -7.6326  -27.7127  -47.9736 H         1 UNK         0.0600 
    208 H208       -7.9415  -27.4664  -49.6839 H         1 UNK         0.0600 
    209 H209       -6.6920  -28.5964  -49.1769 H         1 UNK         0.0600 
    210 H210       -3.7885  -27.1118  -49.7988 H         1 UNK         0.3000 
    211 H211       -4.0516  -27.2127  -52.5984 H         1 UNK         0.0600 
    212 H212       -1.5407  -27.2045  -52.5371 H         1 UNK         0.0600 
    213 H213       -2.2050  -28.2940  -51.3303 H         1 UNK         0.0600 
    214 H214       -1.5784  -26.7170  -50.8469 H         1 UNK         0.0600 
    215 H215       -3.5248  -25.8158  -54.2470 H         1 UNK         0.3000 
    216 H216       -3.4814  -23.9581  -55.4375 H         1 UNK         0.0600 
    217 H217       -1.8183  -22.2330  -54.8749 H         1 UNK         0.0600 
    218 H218       -1.1613  -23.8145  -54.4937 H         1 UNK         0.0600 
    219 H219       -1.7538  -22.7718  -53.2020 H         1 UNK         0.0600 
    220 H220       -5.6629  -24.2600  -53.4807 H         1 UNK         0.3000 
    221 H221       -7.5140  -23.3022  -52.7888 H         1 UNK         0.0600 
    222 H222       -8.3758  -21.2230  -53.7553 H         1 UNK         0.0600 
    223 H223       -7.6201  -22.1694  -55.0259 H         1 UNK         0.0600 
    224 H224       -6.7870  -20.7700  -54.3500 H         1 UNK         0.0600 
    225 H225       -5.0093  -23.1278  -51.2728 H         1 UNK         0.3000 
    226 H226       -4.2888  -22.4935  -49.3002 H         1 UNK         0.0600 
    227 H227       -6.5706  -23.1399  -48.5473 H         1 UNK         0.0600 
    228 H228       -5.9561  -21.8324  -47.5628 H         1 UNK         0.0600 
    229 H229       -7.1623  -21.5046  -48.8048 H         1 UNK         0.0600 
    230 H230       -5.9750  -19.8123  -48.3129 H         1 UNK         0.3000 
    231 H231       -3.7855  -18.0329  -48.5367 H         1 UNK         0.0600 
    232 H232       -5.3290  -16.4319  -47.4881 H         1 UNK         0.0600 
    233 H233       -5.5693  -18.0051  -46.7517 H         1 UNK         0.0600 
    234 H234       -6.7255  -17.4051  -47.9378 H         1 UNK         0.0600 
    235 H235       -6.2588  -18.7435  -50.8756 H         1 UNK         0.3000 
    236 H236       -6.1464  -16.1590  -52.2449 H         1 UNK         0.0600 
    237 H237       -8.2613  -17.5019  -52.0791 H         1 UNK         0.0600 
    238 H238       -7.8004  -17.1749  -53.7408 H         1 UNK         0.0600 
    239 H239       -7.5189  -18.7674  -53.0562 H         1 UNK         0.0600 
    240 H240       -3.7975  -18.4057  -52.0567 H         1 UNK         0.3000 
    241 H241       -3.2120  -19.0498  -54.7351 H         1 UNK         0.0600 
    242 H242       -1.7036  -15.3050  -54.5800 H         1 UNK         0.3800 
    243 H243       -2.7883  -15.8905  -53.3442 H         1 UNK         0.3800 
    244 H244       -2.3432  -20.3189  -52.8012 H         1 UNK         0.0800 
    245 H245       -1.1074  -19.8949  -53.9406 H         1 UNK         0.0800 
    246 H246        0.9352  -20.2020  -52.5427 H         1 UNK         0.0800 
    247 H247        1.0648  -18.6291  -53.3027 H         1 UNK         0.0800 
@<TRIPOS>BOND
     1    1    2 1    
     2    1  127 1    
     3    1  128 1    
     4    1  129 1    
     5    2    3 2    
     6    2    4 am   BACKBONE|DICT|INTERRES
     7    4    5 1    
     8    4  130 1    
     9    5    6 1    
    10    5   65 1    
    11    5  131 1    
    12    6    7 1    
    13    6  132 1    
    14    6  133 1    
    15    7    8 1    
    16    8    9 1    
    17    8  134 1    
    18    8  135 1    
    19    9   10 ar   
    20    9   14 ar   
    21   10   11 ar   
    22   10  136 1    
    23   11   12 ar   
    24   11  126 1    
    25   12   13 ar   
    26   12  137 1    
    27   13   14 ar   
    28   13   15 1    
    29   14  138 1    
    30   15   16 1    
    31   15  139 1    
    32   15  140 1    
    33   16   17 1    
    34   17   18 1    
    35   17  141 1    
    36   17  142 1    
    37   18   19 1    
    38   18   67 1    
    39   18  143 1    
    40   19   20 am   BACKBONE|DICT|INTERRES
    41   19  144 1    
    42   20   21 2    
    43   20   22 1    
    44   22   23 1    
    45   22   24 1    
    46   22  145 1    
    47   23  146 1    
    48   23  147 1    
    49   23  148 1    
    50   24   25 am   BACKBONE|DICT|INTERRES
    51   24  149 1    
    52   25   26 2    
    53   25   27 1    
    54   27   28 1    
    55   27   29 1    
    56   27  150 1    
    57   28  151 1    
    58   28  152 1    
    59   28  153 1    
    60   29   30 am   BACKBONE|DICT|INTERRES
    61   29  154 1    
    62   30   31 2    
    63   30   32 1    
    64   32   33 1    
    65   32   34 1    
    66   32  155 1    
    67   33  156 1    
    68   33  157 1    
    69   33  158 1    
    70   34   35 am   BACKBONE|DICT|INTERRES
    71   34  159 1    
    72   35   36 2    
    73   35   37 1    
    74   37   38 1    
    75   37   39 1    
    76   37  160 1    
    77   38  161 1    
    78   38  162 1    
    79   38  163 1    
    80   39   40 am   BACKBONE|DICT|INTERRES
    81   39  164 1    
    82   40   41 2    
    83   40   42 1    
    84   42   43 1    
    85   42   44 1    
    86   42  165 1    
    87   43  166 1    
    88   43  167 1    
    89   43  168 1    
    90   44   45 am   BACKBONE|DICT|INTERRES
    91   44  169 1    
    92   45   46 2    
    93   45   47 1    
    94   47   48 1    
    95   47   49 1    
    96   47  170 1    
    97   48  171 1    
    98   48  172 1    
    99   48  173 1    
   100   49   50 am   BACKBONE|DICT|INTERRES
   101   49  174 1    
   102   50   51 2    
   103   50   52 1    
   104   52   53 1    
   105   52   54 1    
   106   52  175 1    
   107   53  176 1    
   108   53  177 1    
   109   53  178 1    
   110   54   55 am   BACKBONE|DICT|INTERRES
   111   54  179 1    
   112   55   56 2    
   113   55   57 1    
   114   57   58 1    
   115   57   59 1    
   116   57  180 1    
   117   58  181 1    
   118   58  182 1    
   119   58  183 1    
   120   59   60 am   BACKBONE|DICT|INTERRES
   121   59  184 1    
   122   60   61 2    
   123   60   62 1    
   124   62   63 1    
   125   62   64 1    
   126   62  185 1    
   127   63  186 1    
   128   63  187 1    
   129   63  188 1    
   130   64   65 am   BACKBONE|DICT|INTERRES
   131   64  189 1    
   132   65   66 2    
   133   67   68 2    
   134   67   69 am   BACKBONE|DICT|INTERRES
   135   69   70 1    
   136   69  190 1    
   137   70   71 1    
   138   70   72 1    
   139   70  191 1    
   140   71  192 1    
   141   71  193 1    
   142   71  194 1    
   143   72   73 2    
   144   72   74 am   BACKBONE|DICT|INTERRES
   145   74   75 1    
   146   74  195 1    
   147   75   76 1    
   148   75   77 1    
   149   75  196 1    
   150   76  197 1    
   151   76  198 1    
   152   76  199 1    
   153   77   78 2    
   154   77   79 am   BACKBONE|DICT|INTERRES
   155   79   80 1    
   156   79  200 1    
   157   80   81 1    
   158   80   82 1    
   159   80  201 1    
   160   81  202 1    
   161   81  203 1    
   162   81  204 1    
   163   82   83 2    
   164   82   84 am   BACKBONE|DICT|INTERRES
   165   84   85 1    
   166   84  205 1    
   167   85   86 1    
   168   85   87 1    
   169   85  206 1    
   170   86  207 1    
   171   86  208 1    
   172   86  209 1    
   173   87   88 2    
   174   87   89 am   BACKBONE|DICT|INTERRES
   175   89   90 1    
   176   89  210 1    
   177   90   91 1    
   178   90   92 1    
   179   90  211 1    
   180   91  212 1    
   181   91  213 1    
   182   91  214 1    
   183   92   93 2    
   184   92   94 am   BACKBONE|DICT|INTERRES
   185   94   95 1    
   186   94  215 1    
   187   95   96 1    
   188   95   97 1    
   189   95  216 1    
   190   96  217 1    
   191   96  218 1    
   192   96  219 1    
   193   97   98 2    
   194   97   99 am   BACKBONE|DICT|INTERRES
   195   99  100 1    
   196   99  220 1    
   197  100  101 1    
   198  100  102 1    
   199  100  221 1    
   200  101  222 1    
   201  101  223 1    
   202  101  224 1    
   203  102  103 2    
   204  102  104 am   BACKBONE|DICT|INTERRES
   205  104  105 1    
   206  104  225 1    
   207  105  106 1    
   208  105  107 1    
   209  105  226 1    
   210  106  227 1    
   211  106  228 1    
   212  106  229 1    
   213  107  108 2    
   214  107  109 am   BACKBONE|DICT|INTERRES
   215  109  110 1    
   216  109  230 1    
   217  110  111 1    
   218  110  112 1    
   219  110  231 1    
   220  111  232 1    
   221  111  233 1    
   222  111  234 1    
   223  112  113 2    
   224  112  114 am   BACKBONE|DICT|INTERRES
   225  114  115 1    
   226  114  235 1    
   227  115  116 1    
   228  115  117 1    
   229  115  236 1    
   230  116  237 1    
   231  116  238 1    
   232  116  239 1    
   233  117  118 2    
   234  117  119 am   BACKBONE|DICT|INTERRES
   235  119  120 1    
   236  119  240 1    
   237  120  121 1    
   238  120  124 1    
   239  120  241 1    
   240  121  122 am   BACKBONE|DICT|INTERRES
   241  121  123 2    
   242  122  242 1    
   243  122  243 1    
   244  124  125 1    
   245  124  244 1    
   246  124  245 1    
   247  125  126 1    
   248  126  246 1    
   249  126  247 1    
@<TRIPOS>SUBSTRUCTURE
     1 UNK         1 GROUP             0       ****    0 ROOT    
