@<TRIPOS>MOLECULE
3R540
247   249    1
SMALL
USER_CHARGES


@<TRIPOS>ATOM
      1 CA          7.6275  -15.6862  -47.2574 C.3       0 UNK        -0.1800 
      2 C           6.9025  -15.6473  -48.6020 C.2       0 UNK         0.5000 
      3 O           7.5389  -15.8409  -49.6362 O.2       0 UNK        -0.5000 
      4 N           5.5833  -15.4181  -48.6446 N.am      1 UNK        -0.5000 
      5 CA          4.7091  -15.0915  -47.5114 C.3       1 UNK         0.1400 
      6 C6          3.2242  -15.4003  -47.8207 C.3       23 UNK        -0.0398 
      7 S7          2.9537  -17.1850  -48.0882 S.3       23 UNK        -0.2404 
      8 C8          2.5295  -17.2458  -49.8634 C.3       23 UNK        -0.0205 
      9 C9          1.0862  -16.8849  -50.2234 C.ar      23 UNK        -0.0193 
     10 C10         0.6518  -17.1354  -51.5293 C.ar      23 UNK        -0.1150 
     11 C11        -0.6611  -16.8537  -51.9175 C.ar      23 UNK        -0.0193 
     12 C12        -1.5532  -16.3216  -50.9845 C.ar      23 UNK        -0.1150 
     13 C13        -1.1383  -16.0640  -49.6760 C.ar      23 UNK        -0.0193 
     14 C14         0.1829  -16.3288  -49.3069 C.ar      23 UNK        -0.1150 
     15 C15        -2.1252  -15.5186  -48.6568 C.3       23 UNK        -0.0205 
     16 S16        -3.1052  -16.8561  -47.9053 S.3       23 UNK        -0.2404 
     17 C17        -1.8933  -17.6306  -46.7792 C.3       23 UNK        -0.0398 
     18 CA         -1.1911  -18.8826  -47.3566 C.3       11 UNK         0.1400 
     19 N          -0.0668  -19.2921  -46.5147 N.am      11 UNK        -0.5000 
     20 C           0.8104  -20.2620  -46.8040 C.2       10 UNK         0.5000 
     21 O           0.8267  -20.8763  -47.8682 O.2       10 UNK        -0.5000 
     22 CA          1.7835  -20.6735  -45.6852 C.3       10 UNK         0.1400 
     23 CB          3.1010  -19.8900  -45.7492 C.3       10 UNK        -0.1800 
     24 N           1.1808  -20.5431  -44.3571 N.am      10 UNK        -0.5000 
     25 C           0.2214  -21.3586  -43.9011 C.2       9 UNK         0.5000 
     26 O          -0.2519  -22.2895  -44.5549 O.2       9 UNK        -0.5000 
     27 CA         -0.3019  -21.0761  -42.4844 C.3       9 UNK         0.1400 
     28 CB          0.7764  -21.3691  -41.4287 C.3       9 UNK        -0.1800 
     29 N          -0.7981  -19.7116  -42.3016 N.am      9 UNK        -0.5000 
     30 C          -1.8917  -19.2090  -42.8908 C.2       8 UNK         0.5000 
     31 O          -2.4944  -19.7690  -43.8050 O.2       8 UNK        -0.5000 
     32 CA         -2.4018  -17.8577  -42.3677 C.3       8 UNK         0.1400 
     33 CB         -2.6816  -17.9016  -40.8553 C.3       8 UNK        -0.1800 
     34 N          -1.4190  -16.8207  -42.6485 N.am      8 UNK        -0.5000 
     35 C          -1.5580  -15.8589  -43.5703 C.2       7 UNK         0.5000 
     36 O          -2.5962  -15.6608  -44.2008 O.2       7 UNK        -0.5000 
     37 CA         -0.3291  -14.9716  -43.8589 C.3       7 UNK         0.1400 
     38 CB         -0.5459  -13.5527  -43.3105 C.3       7 UNK        -0.1800 
     39 N           0.9246  -15.5163  -43.3295 N.am      7 UNK        -0.5000 
     40 C           1.5148  -16.6317  -43.7840 C.2       6 UNK         0.5000 
     41 O           1.0616  -17.3078  -44.7061 O.2       6 UNK        -0.5000 
     42 CA          2.7804  -17.1186  -43.0514 C.3       6 UNK         0.1400 
     43 CB          4.0398  -16.5563  -43.7258 C.3       6 UNK        -0.1800 
     44 N           2.8072  -16.7818  -41.6281 N.am      6 UNK        -0.5000 
     45 C           1.9036  -17.1648  -40.7136 C.2       5 UNK         0.5000 
     46 O           0.9498  -17.9033  -40.9636 O.2       5 UNK        -0.5000 
     47 CA          2.0615  -16.5760  -39.2963 C.3       5 UNK         0.1400 
     48 CB          2.8288  -17.5539  -38.3948 C.3       5 UNK        -0.1800 
     49 N           2.7268  -15.2656  -39.2674 N.am      5 UNK        -0.5000 
     50 C           2.2812  -14.1688  -39.8969 C.2       4 UNK         0.5000 
     51 O           1.2424  -14.1555  -40.5616 O.2       4 UNK        -0.5000 
     52 CA          3.1427  -12.8952  -39.8174 C.3       4 UNK         0.1400 
     53 CB          4.6522  -13.1741  -39.6703 C.3       4 UNK        -0.1800 
     54 N           2.9078  -12.1293  -41.0346 N.am      4 UNK        -0.5000 
     55 C           2.8607  -10.8038  -41.1607 C.2       3 UNK         0.5000 
     56 O           3.1096  -10.0197  -40.2427 O.2       3 UNK        -0.5000 
     57 CA          2.4744  -10.2840  -42.5641 C.3       3 UNK         0.1400 
     58 CB          2.2949   -8.7554  -42.6000 C.3       3 UNK        -0.1800 
     59 N           3.4414  -10.6656  -43.5981 N.am      3 UNK        -0.5000 
     60 C           3.6145  -11.8902  -44.1119 C.2       2 UNK         0.5000 
     61 O           2.9709  -12.8847  -43.7614 O.2       2 UNK        -0.5000 
     62 CA          4.7040  -12.0269  -45.1846 C.3       2 UNK         0.1400 
     63 CB          6.1099  -11.8903  -44.5726 C.3       2 UNK        -0.1800 
     64 N           4.5811  -13.3353  -45.8175 N.am      2 UNK        -0.5000 
     65 C           4.8908  -13.6198  -47.0850 C.2       1 UNK         0.5000 
     66 O           5.3043  -12.7838  -47.8926 O.2       1 UNK        -0.5000 
     67 C          -2.1695  -20.0476  -47.6098 C.2       11 UNK         0.5000 
     68 O          -2.4808  -20.3306  -48.7660 O.2       11 UNK        -0.5000 
     69 N          -2.5891  -20.7436  -46.5418 N.am      12 UNK        -0.5000 
     70 CA         -3.4492  -21.9259  -46.6221 C.3       12 UNK         0.1400 
     71 CB         -3.8712  -22.3644  -45.2127 C.3       12 UNK        -0.1800 
     72 C          -2.7983  -23.0948  -47.3821 C.2       12 UNK         0.5000 
     73 O          -3.4947  -23.7872  -48.1249 O.2       12 UNK        -0.5000 
     74 N          -1.4806  -23.2737  -47.2117 N.am      13 UNK        -0.5000 
     75 CA         -0.6819  -24.2588  -47.9399 C.3       13 UNK         0.1400 
     76 CB          0.7044  -24.3904  -47.2917 C.3       13 UNK        -0.1800 
     77 C          -0.5676  -23.9296  -49.4406 C.2       13 UNK         0.5000 
     78 O          -0.7919  -24.8135  -50.2670 O.2       13 UNK        -0.5000 
     79 N          -0.2634  -22.6650  -49.7686 N.am      14 UNK        -0.5000 
     80 CA         -0.1688  -22.1469  -51.1375 C.3       14 UNK         0.1400 
     81 CB          0.3883  -20.7148  -51.1093 C.3       14 UNK        -0.1800 
     82 C          -1.5128  -22.1896  -51.8864 C.2       14 UNK         0.5000 
     83 O          -1.5480  -22.5439  -53.0656 O.2       14 UNK        -0.5000 
     84 N          -2.5995  -21.8690  -51.1730 N.am      15 UNK        -0.5000 
     85 CA         -3.9718  -21.9584  -51.6631 C.3       15 UNK         0.1400 
     86 CB         -4.8786  -21.1102  -50.7598 C.3       15 UNK        -0.1800 
     87 C          -4.5007  -23.4028  -51.7454 C.2       15 UNK         0.5000 
     88 O          -5.5446  -23.6153  -52.3655 O.2       15 UNK        -0.5000 
     89 N          -3.8080  -24.3526  -51.1006 N.am      16 UNK        -0.5000 
     90 CA         -4.1605  -25.7655  -50.9321 C.3       16 UNK         0.1400 
     91 CB         -4.0584  -26.5151  -52.2754 C.3       16 UNK        -0.1800 
     92 C          -5.5344  -25.9296  -50.2535 C.2       16 UNK         0.5000 
     93 O          -6.4055  -26.6252  -50.7745 O.2       16 UNK        -0.5000 
     94 N          -5.7281  -25.2093  -49.1386 N.am      17 UNK        -0.5000 
     95 CA         -6.9870  -25.0682  -48.3930 C.3       17 UNK         0.1400 
     96 CB         -7.3653  -26.3951  -47.7032 C.3       17 UNK        -0.1800 
     97 C          -8.1311  -24.4870  -49.2574 C.2       17 UNK         0.5000 
     98 O          -9.2899  -24.8742  -49.1018 O.2       17 UNK        -0.5000 
     99 N          -7.7568  -23.5772  -50.1691 N.am      18 UNK        -0.5000 
    100 CA        -8.5748  -22.9046  -51.1837 C.3       18 UNK         0.1400 
    101 CB        -9.7432  -22.1234  -50.5476 C.3       18 UNK        -0.1800 
    102 C         -9.0257  -23.8104  -52.3496 C.2       18 UNK         0.5000 
    103 O         -9.8520  -23.3751  -53.1531 O.2       18 UNK        -0.5000 
    104 N         -8.4688  -25.0263  -52.4647 N.am      19 UNK        -0.5000 
    105 CA        -8.7278  -25.9306  -53.5880 C.3       19 UNK         0.1400 
    106 CB        -8.3575  -27.3697  -53.2002 C.3       19 UNK        -0.1800 
    107 C         -7.9754  -25.5087  -54.8635 C.2       19 UNK         0.5000 
    108 O         -8.5053  -25.6890  -55.9608 O.2       19 UNK        -0.5000 
    109 N         -6.7658  -24.9551  -54.6999 N.am      20 UNK        -0.5000 
    110 CA        -5.9387  -24.4376  -55.7913 C.3       20 UNK         0.1400 
    111 CB        -4.4716  -24.8301  -55.5548 C.3       20 UNK        -0.1800 
    112 C         -6.0646  -22.9114  -55.9097 C.2       20 UNK         0.5000 
    113 O         -5.9990  -22.3842  -57.0208 O.2       20 UNK        -0.5000 
    114 N         -6.2157  -22.2297  -54.7623 N.am      21 UNK        -0.5000 
    115 CA        -6.3675  -20.7772  -54.6006 C.3       21 UNK         0.1400 
    116 CB        -7.7563  -20.3327  -55.1018 C.3       21 UNK        -0.1800 
    117 C         -5.2116  -19.9584  -55.2222 C.2       21 UNK         0.5000 
    118 O         -5.4322  -18.8440  -55.6985 O.2       21 UNK        -0.5000 
    119 N         -4.0068  -20.5472  -55.2224 N.am      22 UNK        -0.5000 
    120 CA        -2.7796  -20.0495  -55.8685 C.3       22 UNK         0.1400 
    121 C         -2.8187  -20.0749  -57.4297 C.2       22 UNK         0.5000 
    122 N         -3.7744  -20.7397  -58.0699 N.am      22 UNK        -0.7600 
    123 O         -1.9451  -19.5095  -58.0821 O.2       22 UNK        -0.5000 
    124 C124       -2.2879  -18.6828  -55.3109 C.3       23 UNK        -0.0398 
    125 S125       -1.9663  -18.7047  -53.5149 S.3       23 UNK        -0.2404 
    126 C126       -1.1121  -17.1080  -53.3467 C.3       23 UNK        -0.0205 
    127 H127        7.5636  -14.7249  -46.7483 H         1 UNK         0.0600 
    128 H128        8.6840  -15.9139  -47.4008 H         1 UNK         0.0600 
    129 H129        7.2092  -16.4581  -46.6115 H         1 UNK         0.0600 
    130 H130        5.1376  -15.3791  -49.5486 H         1 UNK         0.3000 
    131 H131        5.0020  -15.7135  -46.6648 H         1 UNK         0.0600 
    132 H132        2.5854  -15.1034  -46.9866 H         1 UNK         0.0800 
    133 H133        2.8783  -14.8320  -48.6860 H         1 UNK         0.0800 
    134 H134        2.7200  -18.2647  -50.2040 H         1 UNK         0.0800 
    135 H135        3.2117  -16.6042  -50.4221 H         1 UNK         0.0800 
    136 H136        1.3392  -17.5588  -52.2483 H         1 UNK         0.1150 
    137 H137       -2.5745  -16.1177  -51.2747 H         1 UNK         0.1150 
    138 H138        0.4832  -16.1270  -48.2901 H         1 UNK         0.1150 
    139 H139       -1.6111  -14.9497  -47.8806 H         1 UNK         0.0800 
    140 H140       -2.8040  -14.8184  -49.1459 H         1 UNK         0.0800 
    141 H141       -2.4086  -17.8803  -45.8509 H         1 UNK         0.0800 
    142 H142       -1.1473  -16.8830  -46.5080 H         1 UNK         0.0800 
    143 H143       -0.7665  -18.6226  -48.3263 H         1 UNK         0.0600 
    144 H144        0.0656  -18.7816  -45.6487 H         1 UNK         0.3000 
    145 H145        2.0273  -21.7267  -45.8389 H         1 UNK         0.0600 
    146 H146        3.8002  -20.2262  -44.9837 H         1 UNK         0.0600 
    147 H147        3.5857  -20.0283  -46.7165 H         1 UNK         0.0600 
    148 H148        2.9448  -18.8221  -45.6161 H         1 UNK         0.0600 
    149 H149        1.4808  -19.7704  -43.7836 H         1 UNK         0.3000 
    150 H150       -1.1368  -21.7572  -42.3056 H         1 UNK         0.0600 
    151 H151        1.1657  -22.3823  -41.5369 H         1 UNK         0.0600 
    152 H152        0.3714  -21.2832  -40.4203 H         1 UNK         0.0600 
    153 H153        1.6195  -20.6816  -41.5071 H         1 UNK         0.0600 
    154 H154       -0.3033  -19.1428  -41.6195 H         1 UNK         0.3000 
    155 H155       -3.3462  -17.6461  -42.8735 H         1 UNK         0.0600 
    156 H156       -1.7738  -18.0571  -40.2715 H         1 UNK         0.0600 
    157 H157       -3.3745  -18.7074  -40.6095 H         1 UNK         0.0600 
    158 H158       -3.1349  -16.9697  -40.5172 H         1 UNK         0.0600 
    159 H159       -0.5218  -16.9216  -42.1902 H         1 UNK         0.3000 
    160 H160       -0.2286  -14.9014  -44.9441 H         1 UNK         0.0600 
    161 H161       -0.7001  -13.5570  -42.2315 H         1 UNK         0.0600 
    162 H162       -1.4245  -13.0911  -43.7625 H         1 UNK         0.0600 
    163 H163        0.3047  -12.9081  -43.5281 H         1 UNK         0.0600 
    164 H164        1.3190  -15.0346  -42.5304 H         1 UNK         0.3000 
    165 H165        2.8073  -18.2066  -43.1297 H         1 UNK         0.0600 
    166 H166        4.9438  -16.9817  -43.2896 H         1 UNK         0.0600 
    167 H167        4.0514  -16.7963  -44.7890 H         1 UNK         0.0600 
    168 H168        4.0980  -15.4721  -43.6275 H         1 UNK         0.0600 
    169 H169        3.5533  -16.1744  -41.3243 H         1 UNK         0.3000 
    170 H170        1.0575  -16.4474  -38.8868 H         1 UNK         0.0600 
    171 H171        2.3454  -18.5319  -38.3790 H         1 UNK         0.0600 
    172 H172        3.8535  -17.6997  -38.7390 H         1 UNK         0.0600 
    173 H173        2.8668  -17.1957  -37.3659 H         1 UNK         0.0600 
    174 H174        3.5884  -15.2092  -38.7438 H         1 UNK         0.3000 
    175 H175        2.7954  -12.3255  -38.9534 H         1 UNK         0.0600 
    176 H176        5.0245  -13.8092  -40.4752 H         1 UNK         0.0600 
    177 H177        5.2244  -12.2463  -39.6914 H         1 UNK         0.0600 
    178 H178        4.8790  -13.6627  -38.7224 H         1 UNK         0.0600 
    179 H179        2.6851  -12.6818  -41.8583 H         1 UNK         0.3000 
    180 H180        1.5111  -10.7328  -42.8154 H         1 UNK         0.0600 
    181 H181        1.5542   -8.4308  -41.8680 H         1 UNK         0.0600 
    182 H182        1.9481   -8.4220  -43.5782 H         1 UNK         0.0600 
    183 H183        3.2272   -8.2343  -42.3787 H         1 UNK         0.0600 
    184 H184        4.0408   -9.9219  -43.9253 H         1 UNK         0.3000 
    185 H185        4.5457  -11.2394  -45.9246 H         1 UNK         0.0600 
    186 H186        6.2463  -10.9152  -44.1038 H         1 UNK         0.0600 
    187 H187        6.2906  -12.6499  -43.8108 H         1 UNK         0.0600 
    188 H188        6.8831  -11.9916  -45.3345 H         1 UNK         0.0600 
    189 H189        4.1567  -14.0333  -45.2210 H         1 UNK         0.3000 
    190 H190       -2.3203  -20.4452  -45.6081 H         1 UNK         0.3000 
    191 H191       -4.3498  -21.6418  -47.1701 H         1 UNK         0.0600 
    192 H192       -3.0087  -22.6109  -44.5926 H         1 UNK         0.0600 
    193 H193       -4.5124  -23.2459  -45.2519 H         1 UNK         0.0600 
    194 H194       -4.4318  -21.5777  -44.7077 H         1 UNK         0.0600 
    195 H195       -0.9942  -22.6888  -46.5421 H         1 UNK         0.3000 
    196 H196       -1.1844  -25.2243  -47.8495 H         1 UNK         0.0600 
    197 H197        1.2848  -25.1777  -47.7741 H         1 UNK         0.0600 
    198 H198        0.6236  -24.6455  -46.2348 H         1 UNK         0.0600 
    199 H199        1.2787  -23.4682  -47.3701 H         1 UNK         0.0600 
    200 H200       -0.0515  -22.0025  -49.0249 H         1 UNK         0.3000 
    201 H201        0.5360  -22.7764  -51.6841 H         1 UNK         0.0600 
    202 H202        1.3763  -20.6827  -50.6501 H         1 UNK         0.0600 
    203 H203       -0.2611  -20.0403  -50.5492 H         1 UNK         0.0600 
    204 H204        0.4845  -20.3119  -52.1182 H         1 UNK         0.0600 
    205 H205       -2.4772  -21.5058  -50.2297 H         1 UNK         0.3000 
    206 H206       -4.0030  -21.5372  -52.6671 H         1 UNK         0.0600 
    207 H207       -4.5337  -20.0765  -50.7192 H         1 UNK         0.0600 
    208 H208       -5.9031  -21.0910  -51.1287 H         1 UNK         0.0600 
    209 H209       -4.9010  -21.4942  -49.7392 H         1 UNK         0.0600 
    210 H210       -2.9703  -24.0639  -50.6123 H         1 UNK         0.3000 
    211 H211       -3.4211  -26.1917  -50.2526 H         1 UNK         0.0600 
    212 H212       -4.8273  -26.1958  -52.9774 H         1 UNK         0.0600 
    213 H213       -4.1786  -27.5891  -52.1304 H         1 UNK         0.0600 
    214 H214       -3.0873  -26.3553  -52.7439 H         1 UNK         0.0600 
    215 H215       -4.9408  -24.6646  -48.7871 H         1 UNK         0.3000 
    216 H216       -6.7956  -24.3331  -47.6100 H         1 UNK         0.0600 
    217 H217       -8.2198  -26.2609  -47.0391 H         1 UNK         0.0600 
    218 H218       -6.5414  -26.7725  -47.0976 H         1 UNK         0.0600 
    219 H219       -7.6316  -27.1669  -48.4259 H         1 UNK         0.0600 
    220 H220       -6.7672  -23.3898  -50.2366 H         1 UNK         0.3000 
    221 H221       -7.9175  -22.1667  -51.6436 H         1 UNK         0.0600 
    222 H222      -10.5104  -22.7887  -50.1514 H         1 UNK         0.0600 
    223 H223       -9.3961  -21.4861  -49.7344 H         1 UNK         0.0600 
    224 H224      -10.2251  -21.4758  -51.2810 H         1 UNK         0.0600 
    225 H225       -7.7941  -25.3370  -51.7749 H         1 UNK         0.3000 
    226 H226       -9.7977  -25.9119  -53.8068 H         1 UNK         0.0600 
    227 H227       -8.8402  -27.6676  -52.2692 H         1 UNK         0.0600 
    228 H228       -8.6748  -28.0718  -53.9720 H         1 UNK         0.0600 
    229 H229       -7.2811  -27.4909  -53.0761 H         1 UNK         0.0600 
    230 H230       -6.4217  -24.8040  -53.7581 H         1 UNK         0.3000 
    231 H231       -6.2508  -24.8725  -56.7431 H         1 UNK         0.0600 
    232 H232       -4.3586  -25.9129  -55.5004 H         1 UNK         0.0600 
    233 H233       -4.0775  -24.4054  -54.6312 H         1 UNK         0.0600 
    234 H234       -3.8385  -24.4792  -56.3708 H         1 UNK         0.0600 
    235 H235       -6.1933  -22.7645  -53.8992 H         1 UNK         0.3000 
    236 H236       -6.3300  -20.5821  -53.5286 H         1 UNK         0.0600 
    237 H237       -7.8515  -20.4511  -56.1817 H         1 UNK         0.0600 
    238 H238       -8.5488  -20.9140  -54.6299 H         1 UNK         0.0600 
    239 H239       -7.9421  -19.2838  -54.8685 H         1 UNK         0.0600 
    240 H240       -3.9329  -21.4726  -54.8288 H         1 UNK         0.3000 
    241 H241       -2.0147  -20.7838  -55.6130 H         1 UNK         0.0600 
    242 H242       -3.7710  -20.7508  -59.0774 H         1 UNK         0.3800 
    243 H243       -4.5142  -21.2248  -57.5720 H         1 UNK         0.3800 
    244 H244       -3.0034  -17.8905  -55.5328 H         1 UNK         0.0800 
    245 H245       -1.3575  -18.3935  -55.8022 H         1 UNK         0.0800 
    246 H246       -1.7783  -16.3066  -53.6700 H         1 UNK         0.0800 
    247 H247       -0.2526  -17.0834  -54.0184 H         1 UNK         0.0800 
@<TRIPOS>BOND
     1    1    2 1    
     2    1  127 1    
     3    1  128 1    
     4    1  129 1    
     5    2    3 2    
     6    2    4 am   BACKBONE|DICT|INTERRES
     7    4    5 1    
     8    4  130 1    
     9    5    6 1    
    10    5   65 1    
    11    5  131 1    
    12    6    7 1    
    13    6  132 1    
    14    6  133 1    
    15    7    8 1    
    16    8    9 1    
    17    8  134 1    
    18    8  135 1    
    19    9   10 ar   
    20    9   14 ar   
    21   10   11 ar   
    22   10  136 1    
    23   11   12 ar   
    24   11  126 1    
    25   12   13 ar   
    26   12  137 1    
    27   13   14 ar   
    28   13   15 1    
    29   14  138 1    
    30   15   16 1    
    31   15  139 1    
    32   15  140 1    
    33   16   17 1    
    34   17   18 1    
    35   17  141 1    
    36   17  142 1    
    37   18   19 1    
    38   18   67 1    
    39   18  143 1    
    40   19   20 am   BACKBONE|DICT|INTERRES
    41   19  144 1    
    42   20   21 2    
    43   20   22 1    
    44   22   23 1    
    45   22   24 1    
    46   22  145 1    
    47   23  146 1    
    48   23  147 1    
    49   23  148 1    
    50   24   25 am   BACKBONE|DICT|INTERRES
    51   24  149 1    
    52   25   26 2    
    53   25   27 1    
    54   27   28 1    
    55   27   29 1    
    56   27  150 1    
    57   28  151 1    
    58   28  152 1    
    59   28  153 1    
    60   29   30 am   BACKBONE|DICT|INTERRES
    61   29  154 1    
    62   30   31 2    
    63   30   32 1    
    64   32   33 1    
    65   32   34 1    
    66   32  155 1    
    67   33  156 1    
    68   33  157 1    
    69   33  158 1    
    70   34   35 am   BACKBONE|DICT|INTERRES
    71   34  159 1    
    72   35   36 2    
    73   35   37 1    
    74   37   38 1    
    75   37   39 1    
    76   37  160 1    
    77   38  161 1    
    78   38  162 1    
    79   38  163 1    
    80   39   40 am   BACKBONE|DICT|INTERRES
    81   39  164 1    
    82   40   41 2    
    83   40   42 1    
    84   42   43 1    
    85   42   44 1    
    86   42  165 1    
    87   43  166 1    
    88   43  167 1    
    89   43  168 1    
    90   44   45 am   BACKBONE|DICT|INTERRES
    91   44  169 1    
    92   45   46 2    
    93   45   47 1    
    94   47   48 1    
    95   47   49 1    
    96   47  170 1    
    97   48  171 1    
    98   48  172 1    
    99   48  173 1    
   100   49   50 am   BACKBONE|DICT|INTERRES
   101   49  174 1    
   102   50   51 2    
   103   50   52 1    
   104   52   53 1    
   105   52   54 1    
   106   52  175 1    
   107   53  176 1    
   108   53  177 1    
   109   53  178 1    
   110   54   55 am   BACKBONE|DICT|INTERRES
   111   54  179 1    
   112   55   56 2    
   113   55   57 1    
   114   57   58 1    
   115   57   59 1    
   116   57  180 1    
   117   58  181 1    
   118   58  182 1    
   119   58  183 1    
   120   59   60 am   BACKBONE|DICT|INTERRES
   121   59  184 1    
   122   60   61 2    
   123   60   62 1    
   124   62   63 1    
   125   62   64 1    
   126   62  185 1    
   127   63  186 1    
   128   63  187 1    
   129   63  188 1    
   130   64   65 am   BACKBONE|DICT|INTERRES
   131   64  189 1    
   132   65   66 2    
   133   67   68 2    
   134   67   69 am   BACKBONE|DICT|INTERRES
   135   69   70 1    
   136   69  190 1    
   137   70   71 1    
   138   70   72 1    
   139   70  191 1    
   140   71  192 1    
   141   71  193 1    
   142   71  194 1    
   143   72   73 2    
   144   72   74 am   BACKBONE|DICT|INTERRES
   145   74   75 1    
   146   74  195 1    
   147   75   76 1    
   148   75   77 1    
   149   75  196 1    
   150   76  197 1    
   151   76  198 1    
   152   76  199 1    
   153   77   78 2    
   154   77   79 am   BACKBONE|DICT|INTERRES
   155   79   80 1    
   156   79  200 1    
   157   80   81 1    
   158   80   82 1    
   159   80  201 1    
   160   81  202 1    
   161   81  203 1    
   162   81  204 1    
   163   82   83 2    
   164   82   84 am   BACKBONE|DICT|INTERRES
   165   84   85 1    
   166   84  205 1    
   167   85   86 1    
   168   85   87 1    
   169   85  206 1    
   170   86  207 1    
   171   86  208 1    
   172   86  209 1    
   173   87   88 2    
   174   87   89 am   BACKBONE|DICT|INTERRES
   175   89   90 1    
   176   89  210 1    
   177   90   91 1    
   178   90   92 1    
   179   90  211 1    
   180   91  212 1    
   181   91  213 1    
   182   91  214 1    
   183   92   93 2    
   184   92   94 am   BACKBONE|DICT|INTERRES
   185   94   95 1    
   186   94  215 1    
   187   95   96 1    
   188   95   97 1    
   189   95  216 1    
   190   96  217 1    
   191   96  218 1    
   192   96  219 1    
   193   97   98 2    
   194   97   99 am   BACKBONE|DICT|INTERRES
   195   99  100 1    
   196   99  220 1    
   197  100  101 1    
   198  100  102 1    
   199  100  221 1    
   200  101  222 1    
   201  101  223 1    
   202  101  224 1    
   203  102  103 2    
   204  102  104 am   BACKBONE|DICT|INTERRES
   205  104  105 1    
   206  104  225 1    
   207  105  106 1    
   208  105  107 1    
   209  105  226 1    
   210  106  227 1    
   211  106  228 1    
   212  106  229 1    
   213  107  108 2    
   214  107  109 am   BACKBONE|DICT|INTERRES
   215  109  110 1    
   216  109  230 1    
   217  110  111 1    
   218  110  112 1    
   219  110  231 1    
   220  111  232 1    
   221  111  233 1    
   222  111  234 1    
   223  112  113 2    
   224  112  114 am   BACKBONE|DICT|INTERRES
   225  114  115 1    
   226  114  235 1    
   227  115  116 1    
   228  115  117 1    
   229  115  236 1    
   230  116  237 1    
   231  116  238 1    
   232  116  239 1    
   233  117  118 2    
   234  117  119 am   BACKBONE|DICT|INTERRES
   235  119  120 1    
   236  119  240 1    
   237  120  121 1    
   238  120  124 1    
   239  120  241 1    
   240  121  122 am   BACKBONE|DICT|INTERRES
   241  121  123 2    
   242  122  242 1    
   243  122  243 1    
   244  124  125 1    
   245  124  244 1    
   246  124  245 1    
   247  125  126 1    
   248  126  246 1    
   249  126  247 1    
@<TRIPOS>SUBSTRUCTURE
     1 UNK         1 GROUP             0       ****    0 ROOT    
