@<TRIPOS>MOLECULE
3R540
247   249    1
SMALL
USER_CHARGES


@<TRIPOS>ATOM
      1 CA          3.5636  -16.2794  -48.6409 C.3       0 UNK        -0.1800 
      2 C           3.2149  -15.0478  -47.8182 C.2       0 UNK         0.5000 
      3 O           3.7010  -14.8984  -46.6983 O.2       0 UNK        -0.5000 
      4 N           2.3933  -14.1480  -48.3726 N.am      1 UNK        -0.5000 
      5 CA          1.8867  -12.9262  -47.7295 C.3       1 UNK         0.1400 
      6 C6          0.5403  -12.4657  -48.3486 C.3       23 UNK        -0.0398 
      7 S7         -0.7814  -13.6993  -48.1029 S.3       23 UNK        -0.2404 
      8 C8         -0.9003  -14.4827  -49.7375 C.3       23 UNK        -0.0205 
      9 C9         -1.2533  -15.9528  -49.5913 C.ar      23 UNK        -0.0193 
     10 C10        -2.5872  -16.3546  -49.4688 C.ar      23 UNK        -0.1150 
     11 C11        -2.9134  -17.7068  -49.3187 C.ar      23 UNK        -0.0193 
     12 C12        -1.8851  -18.6552  -49.2936 C.ar      23 UNK        -0.1150 
     13 C13        -0.5499  -18.2653  -49.4158 C.ar      23 UNK        -0.0193 
     14 C14        -0.2391  -16.9129  -49.5635 C.ar      23 UNK        -0.1150 
     15 C15         0.5522  -19.3077  -49.3850 C.3       23 UNK        -0.0205 
     16 S16         1.1295  -19.5897  -47.6839 S.3       23 UNK        -0.2404 
     17 C17         2.0145  -21.1729  -47.8866 C.3       23 UNK        -0.0398 
     18 CA          1.2521  -22.4324  -47.3997 C.3       11 UNK         0.1400 
     19 N           1.1373  -22.5266  -45.9395 N.am      11 UNK        -0.5000 
     20 C           0.9286  -23.6917  -45.3056 C.2       10 UNK         0.5000 
     21 O           0.8043  -24.7682  -45.8906 O.2       10 UNK        -0.5000 
     22 CA          0.8023  -23.6604  -43.7721 C.3       10 UNK         0.1400 
     23 CB          2.1908  -23.6459  -43.1158 C.3       10 UNK        -0.1800 
     24 N           0.0133  -22.5404  -43.2610 N.am      10 UNK        -0.5000 
     25 C          -1.2648  -22.2859  -43.5702 C.2       9 UNK         0.5000 
     26 O          -1.9180  -22.9541  -44.3722 O.2       9 UNK        -0.5000 
     27 CA         -1.9311  -21.0711  -42.8927 C.3       9 UNK         0.1400 
     28 CB         -1.1734  -20.5436  -41.6531 C.3       9 UNK        -0.1800 
     29 N          -2.1718  -19.9847  -43.8461 N.am      9 UNK        -0.5000 
     30 C          -1.2568  -19.3584  -44.6012 C.2       8 UNK         0.5000 
     31 O          -0.0601  -19.6513  -44.5994 O.2       8 UNK        -0.5000 
     32 CA         -1.7609  -18.2409  -45.5424 C.3       8 UNK         0.1400 
     33 CB         -3.2389  -17.8426  -45.3319 C.3       8 UNK        -0.1800 
     34 N          -0.9128  -17.0470  -45.5203 N.am      8 UNK        -0.5000 
     35 C          -0.5745  -16.3122  -44.4511 C.2       7 UNK         0.5000 
     36 O          -0.9445  -16.5418  -43.2968 O.2       7 UNK        -0.5000 
     37 CA          0.2765  -15.0621  -44.7424 C.3       7 UNK         0.1400 
     38 CB         -0.5862  -13.7957  -44.6082 C.3       7 UNK        -0.1800 
     39 N           1.4365  -14.9166  -43.8673 N.am      7 UNK        -0.5000 
     40 C           2.4131  -15.8125  -43.6690 C.2       6 UNK         0.5000 
     41 O           2.4561  -16.9224  -44.1992 O.2       6 UNK        -0.5000 
     42 CA          3.5470  -15.3894  -42.7167 C.3       6 UNK         0.1400 
     43 CB          4.6982  -14.7363  -43.4990 C.3       6 UNK        -0.1800 
     44 N           3.0867  -14.4565  -41.6868 N.am      6 UNK        -0.5000 
     45 C           2.5627  -14.8217  -40.5086 C.2       5 UNK         0.5000 
     46 O           2.4253  -15.9936  -40.1562 O.2       5 UNK        -0.5000 
     47 CA          2.1372  -13.6920  -39.5492 C.3       5 UNK         0.1400 
     48 CB          3.2608  -13.3937  -38.5443 C.3       5 UNK        -0.1800 
     49 N           1.7865  -12.4536  -40.2460 N.am      5 UNK        -0.5000 
     50 C           0.6235  -12.2417  -40.8769 C.2       4 UNK         0.5000 
     51 O          -0.3077  -13.0461  -40.8820 O.2       4 UNK        -0.5000 
     52 CA          0.4862  -10.9159  -41.6538 C.3       4 UNK         0.1400 
     53 CB         -0.1793   -9.8450  -40.7763 C.3       4 UNK        -0.1800 
     54 N           1.7564  -10.3924  -42.1718 N.am      4 UNK        -0.5000 
     55 C           2.5247  -11.0219  -43.0687 C.2       3 UNK         0.5000 
     56 O           2.2645  -12.1397  -43.5231 O.2       3 UNK        -0.5000 
     57 CA          3.8181  -10.3170  -43.4960 C.3       3 UNK         0.1400 
     58 CB          4.9192  -10.5025  -42.4369 C.3       3 UNK        -0.1800 
     59 N           4.2381  -10.9116  -44.7563 N.am      3 UNK        -0.5000 
     60 C           5.0343  -10.3683  -45.6818 C.2       2 UNK         0.5000 
     61 O           5.5778   -9.2698  -45.5609 O.2       2 UNK        -0.5000 
     62 CA          5.2512  -11.1936  -46.9661 C.3       2 UNK         0.1400 
     63 CB          6.5635  -11.9875  -46.8779 C.3       2 UNK        -0.1800 
     64 N           4.1527  -12.1287  -47.2187 N.am      2 UNK        -0.5000 
     65 C           2.9452  -11.7976  -47.6924 C.2       1 UNK         0.5000 
     66 O           2.6606  -10.6615  -48.0753 O.2       1 UNK        -0.5000 
     67 C          -0.1123  -22.6271  -48.0938 C.2       11 UNK         0.5000 
     68 O          -0.1610  -23.2293  -49.1651 O.2       11 UNK        -0.5000 
     69 N          -1.1962  -22.1597  -47.4548 N.am      12 UNK        -0.5000 
     70 CA         -2.5704  -22.3559  -47.9166 C.3       12 UNK         0.1400 
     71 CB         -3.5298  -21.4555  -47.1241 C.3       12 UNK        -0.1800 
     72 C          -2.9916  -23.8300  -47.8206 C.2       12 UNK         0.5000 
     73 O          -3.6021  -24.3444  -48.7562 O.2       12 UNK        -0.5000 
     74 N          -2.6140  -24.4919  -46.7177 N.am      13 UNK        -0.5000 
     75 CA         -2.8088  -25.9235  -46.4951 C.3       13 UNK         0.1400 
     76 CB         -2.4187  -26.2802  -45.0529 C.3       13 UNK        -0.1800 
     77 C          -2.0351  -26.7864  -47.5081 C.2       13 UNK         0.5000 
     78 O          -2.6134  -27.7159  -48.0709 O.2       13 UNK        -0.5000 
     79 N          -0.7652  -26.4362  -47.7633 N.am      14 UNK        -0.5000 
     80 CA          0.0937  -27.0850  -48.7595 C.3       14 UNK         0.1400 
     81 CB          1.5242  -26.5398  -48.6367 C.3       14 UNK        -0.1800 
     82 C          -0.4256  -26.9248  -50.2019 C.2       14 UNK         0.5000 
     83 O          -0.3448  -27.8686  -50.9884 O.2       14 UNK        -0.5000 
     84 N          -0.9819  -25.7459  -50.5085 N.am      15 UNK        -0.5000 
     85 CA         -1.6354  -25.4221  -51.7775 C.3       15 UNK         0.1400 
     86 CB         -1.6981  -23.8926  -51.9059 C.3       15 UNK        -0.1800 
     87 C          -3.0505  -26.0205  -51.9217 C.2       15 UNK         0.5000 
     88 O          -3.6407  -25.9050  -52.9982 O.2       15 UNK        -0.5000 
     89 N          -3.5898  -26.5928  -50.8327 N.am      16 UNK        -0.5000 
     90 CA         -4.9598  -27.0930  -50.6697 C.3       16 UNK         0.1400 
     91 CB         -5.1658  -28.3757  -51.5007 C.3       16 UNK        -0.1800 
     92 C          -6.0185  -26.0081  -50.9641 C.2       16 UNK         0.5000 
     93 O          -7.0594  -26.3017  -51.5557 O.2       16 UNK        -0.5000 
     94 N          -5.6917  -24.7586  -50.5992 N.am      17 UNK        -0.5000 
     95 CA         -6.3474  -23.4836  -50.9106 C.3       17 UNK         0.1400 
     96 CB         -7.7652  -23.4204  -50.3116 C.3       17 UNK        -0.1800 
     97 C          -6.3618  -23.1235  -52.4109 C.2       17 UNK         0.5000 
     98 O          -6.0453  -21.9873  -52.7635 O.2       17 UNK        -0.5000 
     99 N          -6.7347  -24.0874  -53.2593 N.am      18 UNK        -0.5000 
    100 CA        -6.9841  -23.9489  -54.6907 C.3       18 UNK         0.1400 
    101 CB        -7.5017  -25.2869  -55.2397 C.3       18 UNK        -0.1800 
    102 C         -5.7788  -23.4608  -55.5096 C.2       18 UNK         0.5000 
    103 O         -5.9509  -22.5755  -56.3477 O.2       18 UNK        -0.5000 
    104 N         -4.5840  -24.0181  -55.2587 N.am      19 UNK        -0.5000 
    105 CA        -3.3762  -23.6981  -56.0317 C.3       19 UNK         0.1400 
    106 CB        -2.3111  -24.7833  -55.8136 C.3       19 UNK        -0.1800 
    107 C         -2.8090  -22.2957  -55.7344 C.2       19 UNK         0.5000 
    108 O         -2.1076  -21.7363  -56.5779 O.2       19 UNK        -0.5000 
    109 N         -3.1382  -21.7498  -54.5573 N.am      20 UNK        -0.5000 
    110 CA        -2.7917  -20.3934  -54.1299 C.3       20 UNK         0.1400 
    111 CB        -2.3711  -20.4429  -52.6521 C.3       20 UNK        -0.1800 
    112 C         -3.9483  -19.3969  -54.3585 C.2       20 UNK         0.5000 
    113 O         -3.7551  -18.1982  -54.1531 O.2       20 UNK        -0.5000 
    114 N         -5.1157  -19.9033  -54.7881 N.am      21 UNK        -0.5000 
    115 CA        -6.3753  -19.1926  -55.0293 C.3       21 UNK         0.1400 
    116 CB        -6.2426  -18.2447  -56.2394 C.3       21 UNK        -0.1800 
    117 C         -6.9293  -18.4973  -53.7664 C.2       21 UNK         0.5000 
    118 O         -7.4408  -17.3783  -53.8481 O.2       21 UNK        -0.5000 
    119 N         -6.8036  -19.1704  -52.6167 N.am      22 UNK        -0.5000 
    120 CA        -7.2617  -18.6871  -51.3062 C.3       22 UNK         0.1400 
    121 C         -8.8103  -18.6760  -51.1864 C.2       22 UNK         0.5000 
    122 N         -9.3799  -17.6866  -50.5116 N.am      22 UNK        -0.7600 
    123 O         -9.4975  -19.5785  -51.6601 O.2       22 UNK        -0.5000 
    124 C124       -6.6379  -19.4919  -50.1378 C.3       23 UNK        -0.0398 
    125 S125       -4.8183  -19.5431  -50.2081 S.3       23 UNK        -0.2404 
    126 C126       -4.3716  -18.1250  -49.1567 C.3       23 UNK        -0.0205 
    127 H127        4.6439  -16.4218  -48.6641 H         1 UNK         0.0600 
    128 H128        3.1117  -17.1652  -48.1947 H         1 UNK         0.0600 
    129 H129        3.2116  -16.1944  -49.6689 H         1 UNK         0.0600 
    130 H130        2.0712  -14.3003  -49.3162 H         1 UNK         0.3000 
    131 H131        1.6907  -13.1597  -46.6814 H         1 UNK         0.0600 
    132 H132        0.6527  -12.2343  -49.4090 H         1 UNK         0.0800 
    133 H133        0.1979  -11.5449  -47.8729 H         1 UNK         0.0800 
    134 H134        0.0399  -14.3815  -50.2805 H         1 UNK         0.0800 
    135 H135       -1.6561  -13.9675  -50.3322 H         1 UNK         0.0800 
    136 H136       -3.3695  -15.6088  -49.4799 H         1 UNK         0.1150 
    137 H137       -2.1216  -19.7021  -49.1782 H         1 UNK         0.1150 
    138 H138        0.7932  -16.6086  -49.6515 H         1 UNK         0.1150 
    139 H139        0.1832  -20.2389  -49.8176 H         1 UNK         0.0800 
    140 H140        1.3923  -18.9912  -50.0051 H         1 UNK         0.0800 
    141 H141        2.2910  -21.2941  -48.9354 H         1 UNK         0.0800 
    142 H142        2.9611  -21.0946  -47.3504 H         1 UNK         0.0800 
    143 H143        1.8669  -23.2781  -47.7163 H         1 UNK         0.0600 
    144 H144        1.1790  -21.6634  -45.4122 H         1 UNK         0.3000 
    145 H145        0.2952  -24.5788  -43.4692 H         1 UNK         0.0600 
    146 H146        2.1159  -23.7316  -42.0316 H         1 UNK         0.0600 
    147 H147        2.7969  -24.4829  -43.4653 H         1 UNK         0.0600 
    148 H148        2.7347  -22.7284  -43.3439 H         1 UNK         0.0600 
    149 H149        0.4822  -21.9103  -42.6269 H         1 UNK         0.3000 
    150 H150       -2.9110  -21.4131  -42.5566 H         1 UNK         0.0600 
    151 H151       -1.0197  -21.3351  -40.9185 H         1 UNK         0.0600 
    152 H152       -1.7430  -19.7561  -41.1594 H         1 UNK         0.0600 
    153 H153       -0.1976  -20.1277  -41.9065 H         1 UNK         0.0600 
    154 H154       -3.1341  -19.6912  -43.9322 H         1 UNK         0.3000 
    155 H155       -1.6716  -18.6485  -46.5480 H         1 UNK         0.0600 
    156 H156       -3.5347  -17.0682  -46.0401 H         1 UNK         0.0600 
    157 H157       -3.4170  -17.4552  -44.3280 H         1 UNK         0.0600 
    158 H158       -3.9097  -18.6873  -45.4911 H         1 UNK         0.0600 
    159 H159       -0.5304  -16.7856  -46.4180 H         1 UNK         0.3000 
    160 H160        0.6511  -15.1268  -45.7653 H         1 UNK         0.0600 
    161 H161       -0.9013  -13.6354  -43.5766 H         1 UNK         0.0600 
    162 H162       -1.4900  -13.8681  -45.2139 H         1 UNK         0.0600 
    163 H163       -0.0452  -12.9074  -44.9339 H         1 UNK         0.0600 
    164 H164        1.5403  -14.0102  -43.4275 H         1 UNK         0.3000 
    165 H165        3.9363  -16.2916  -42.2400 H         1 UNK         0.0600 
    166 H166        4.3722  -13.8390  -44.0250 H         1 UNK         0.0600 
    167 H167        5.5201  -14.4596  -42.8387 H         1 UNK         0.0600 
    168 H168        5.0974  -15.4230  -44.2465 H         1 UNK         0.0600 
    169 H169        3.1103  -13.4757  -41.9260 H         1 UNK         0.3000 
    170 H170        1.2660  -14.0414  -38.9906 H         1 UNK         0.0600 
    171 H171        3.5328  -14.2901  -37.9853 H         1 UNK         0.0600 
    172 H172        4.1613  -13.0314  -39.0419 H         1 UNK         0.0600 
    173 H173        2.9514  -12.6414  -37.8186 H         1 UNK         0.0600 
    174 H174        2.4887  -11.7293  -40.2745 H         1 UNK         0.3000 
    175 H175       -0.1653  -11.1087  -42.5090 H         1 UNK         0.0600 
    176 H176        0.4407   -9.5865  -39.9170 H         1 UNK         0.0600 
    177 H177       -0.3684   -8.9325  -41.3419 H         1 UNK         0.0600 
    178 H178       -1.1401  -10.1937  -40.3950 H         1 UNK         0.0600 
    179 H179        2.0394   -9.4840  -41.8329 H         1 UNK         0.3000 
    180 H180        3.6101   -9.2554  -43.6435 H         1 UNK         0.0600 
    181 H181        5.1439  -11.5571  -42.2715 H         1 UNK         0.0600 
    182 H182        4.6217  -10.0738  -41.4793 H         1 UNK         0.0600 
    183 H183        5.8435  -10.0087  -42.7372 H         1 UNK         0.0600 
    184 H184        3.7902  -11.7980  -44.9515 H         1 UNK         0.3000 
    185 H185        5.3233  -10.4978  -47.8047 H         1 UNK         0.0600 
    186 H186        7.4121  -11.3232  -46.7092 H         1 UNK         0.0600 
    187 H187        6.5425  -12.7093  -46.0601 H         1 UNK         0.0600 
    188 H188        6.7567  -12.5331  -47.8018 H         1 UNK         0.0600 
    189 H189        4.2906  -13.0956  -46.9359 H         1 UNK         0.3000 
    190 H190       -1.0699  -21.7247  -46.5530 H         1 UNK         0.3000 
    191 H191       -2.6219  -22.0631  -48.9675 H         1 UNK         0.0600 
    192 H192       -4.5504  -21.5574  -47.4955 H         1 UNK         0.0600 
    193 H193       -3.2573  -20.4064  -47.2199 H         1 UNK         0.0600 
    194 H194       -3.5418  -21.7033  -46.0630 H         1 UNK         0.0600 
    195 H195       -2.1682  -23.9715  -45.9669 H         1 UNK         0.3000 
    196 H196       -3.8724  -26.1364  -46.6209 H         1 UNK         0.0600 
    197 H197       -2.5843  -27.3397  -44.8543 H         1 UNK         0.0600 
    198 H198       -3.0137  -25.7167  -44.3339 H         1 UNK         0.0600 
    199 H199       -1.3681  -26.0687  -44.8536 H         1 UNK         0.0600 
    200 H200       -0.3439  -25.6898  -47.2183 H         1 UNK         0.3000 
    201 H201        0.1164  -28.1529  -48.5328 H         1 UNK         0.0600 
    202 H202        1.9275  -26.7106  -47.6384 H         1 UNK         0.0600 
    203 H203        1.5642  -25.4687  -48.8357 H         1 UNK         0.0600 
    204 H204        2.1919  -27.0309  -49.3457 H         1 UNK         0.0600 
    205 H205       -0.9422  -24.9971  -49.8246 H         1 UNK         0.3000 
    206 H206       -1.0290  -25.8139  -52.5964 H         1 UNK         0.0600 
    207 H207       -0.7001  -23.4543  -51.9018 H         1 UNK         0.0600 
    208 H208       -2.1778  -23.5932  -52.8346 H         1 UNK         0.0600 
    209 H209       -2.2655  -23.4432  -51.0904 H         1 UNK         0.0600 
    210 H210       -3.0260  -26.6163  -49.9926 H         1 UNK         0.3000 
    211 H211       -5.0706  -27.3535  -49.6163 H         1 UNK         0.0600 
    212 H212       -5.1198  -28.1757  -52.5717 H         1 UNK         0.0600 
    213 H213       -6.1374  -28.8252  -51.2927 H         1 UNK         0.0600 
    214 H214       -4.4068  -29.1219  -51.2658 H         1 UNK         0.0600 
    215 H215       -4.8223  -24.6578  -50.0770 H         1 UNK         0.3000 
    216 H216       -5.7462  -22.7190  -50.4159 H         1 UNK         0.0600 
    217 H217       -8.4170  -24.1941  -50.7172 H         1 UNK         0.0600 
    218 H218       -8.2405  -22.4623  -50.5237 H         1 UNK         0.0600 
    219 H219       -7.7383  -23.5391  -49.2285 H         1 UNK         0.0600 
    220 H220       -6.9508  -24.9921  -52.8477 H         1 UNK         0.3000 
    221 H221       -7.7769  -23.2072  -54.8067 H         1 UNK         0.0600 
    222 H222       -6.7735  -26.0869  -55.0989 H         1 UNK         0.0600 
    223 H223       -8.4254  -25.5852  -54.7435 H         1 UNK         0.0600 
    224 H224       -7.7143  -25.2178  -56.3074 H         1 UNK         0.0600 
    225 H225       -4.4956  -24.7223  -54.5324 H         1 UNK         0.3000 
    226 H226       -3.6444  -23.7153  -57.0904 H         1 UNK         0.0600 
    227 H227       -2.7043  -25.7746  -56.0393 H         1 UNK         0.0600 
    228 H228       -1.4513  -24.6189  -56.4642 H         1 UNK         0.0600 
    229 H229       -1.9432  -24.7947  -54.7896 H         1 UNK         0.0600 
    230 H230       -3.7416  -22.2740  -53.9390 H         1 UNK         0.3000 
    231 H231       -1.9408  -20.0221  -54.7045 H         1 UNK         0.0600 
    232 H232       -3.1158  -20.9538  -52.0427 H         1 UNK         0.0600 
    233 H233       -1.4264  -20.9727  -52.5325 H         1 UNK         0.0600 
    234 H234       -2.2329  -19.4422  -52.2402 H         1 UNK         0.0600 
    235 H235       -5.1634  -20.9033  -54.9274 H         1 UNK         0.3000 
    236 H236       -7.1053  -19.9592  -55.2929 H         1 UNK         0.0600 
    237 H237       -5.8707  -18.7757  -57.1157 H         1 UNK         0.0600 
    238 H238       -7.2086  -17.8154  -56.5075 H         1 UNK         0.0600 
    239 H239       -5.5627  -17.4174  -56.0341 H         1 UNK         0.0600 
    240 H240       -6.3985  -20.1022  -52.6370 H         1 UNK         0.3000 
    241 H241       -6.9156  -17.6557  -51.2123 H         1 UNK         0.0600 
    242 H242       -8.8388  -16.9363  -50.1100 H         1 UNK         0.3800 
    243 H243      -10.3835  -17.6766  -50.4138 H         1 UNK         0.3800 
    244 H244       -6.9448  -19.0789  -49.1753 H         1 UNK         0.0800 
    245 H245       -6.9979  -20.5198  -50.1529 H         1 UNK         0.0800 
    246 H246       -4.5585  -18.3781  -48.1129 H         1 UNK         0.0800 
    247 H247       -5.0291  -17.2890  -49.3997 H         1 UNK         0.0800 
@<TRIPOS>BOND
     1    1    2 1    
     2    1  127 1    
     3    1  128 1    
     4    1  129 1    
     5    2    3 2    
     6    2    4 am   BACKBONE|DICT|INTERRES
     7    4    5 1    
     8    4  130 1    
     9    5    6 1    
    10    5   65 1    
    11    5  131 1    
    12    6    7 1    
    13    6  132 1    
    14    6  133 1    
    15    7    8 1    
    16    8    9 1    
    17    8  134 1    
    18    8  135 1    
    19    9   10 ar   
    20    9   14 ar   
    21   10   11 ar   
    22   10  136 1    
    23   11   12 ar   
    24   11  126 1    
    25   12   13 ar   
    26   12  137 1    
    27   13   14 ar   
    28   13   15 1    
    29   14  138 1    
    30   15   16 1    
    31   15  139 1    
    32   15  140 1    
    33   16   17 1    
    34   17   18 1    
    35   17  141 1    
    36   17  142 1    
    37   18   19 1    
    38   18   67 1    
    39   18  143 1    
    40   19   20 am   BACKBONE|DICT|INTERRES
    41   19  144 1    
    42   20   21 2    
    43   20   22 1    
    44   22   23 1    
    45   22   24 1    
    46   22  145 1    
    47   23  146 1    
    48   23  147 1    
    49   23  148 1    
    50   24   25 am   BACKBONE|DICT|INTERRES
    51   24  149 1    
    52   25   26 2    
    53   25   27 1    
    54   27   28 1    
    55   27   29 1    
    56   27  150 1    
    57   28  151 1    
    58   28  152 1    
    59   28  153 1    
    60   29   30 am   BACKBONE|DICT|INTERRES
    61   29  154 1    
    62   30   31 2    
    63   30   32 1    
    64   32   33 1    
    65   32   34 1    
    66   32  155 1    
    67   33  156 1    
    68   33  157 1    
    69   33  158 1    
    70   34   35 am   BACKBONE|DICT|INTERRES
    71   34  159 1    
    72   35   36 2    
    73   35   37 1    
    74   37   38 1    
    75   37   39 1    
    76   37  160 1    
    77   38  161 1    
    78   38  162 1    
    79   38  163 1    
    80   39   40 am   BACKBONE|DICT|INTERRES
    81   39  164 1    
    82   40   41 2    
    83   40   42 1    
    84   42   43 1    
    85   42   44 1    
    86   42  165 1    
    87   43  166 1    
    88   43  167 1    
    89   43  168 1    
    90   44   45 am   BACKBONE|DICT|INTERRES
    91   44  169 1    
    92   45   46 2    
    93   45   47 1    
    94   47   48 1    
    95   47   49 1    
    96   47  170 1    
    97   48  171 1    
    98   48  172 1    
    99   48  173 1    
   100   49   50 am   BACKBONE|DICT|INTERRES
   101   49  174 1    
   102   50   51 2    
   103   50   52 1    
   104   52   53 1    
   105   52   54 1    
   106   52  175 1    
   107   53  176 1    
   108   53  177 1    
   109   53  178 1    
   110   54   55 am   BACKBONE|DICT|INTERRES
   111   54  179 1    
   112   55   56 2    
   113   55   57 1    
   114   57   58 1    
   115   57   59 1    
   116   57  180 1    
   117   58  181 1    
   118   58  182 1    
   119   58  183 1    
   120   59   60 am   BACKBONE|DICT|INTERRES
   121   59  184 1    
   122   60   61 2    
   123   60   62 1    
   124   62   63 1    
   125   62   64 1    
   126   62  185 1    
   127   63  186 1    
   128   63  187 1    
   129   63  188 1    
   130   64   65 am   BACKBONE|DICT|INTERRES
   131   64  189 1    
   132   65   66 2    
   133   67   68 2    
   134   67   69 am   BACKBONE|DICT|INTERRES
   135   69   70 1    
   136   69  190 1    
   137   70   71 1    
   138   70   72 1    
   139   70  191 1    
   140   71  192 1    
   141   71  193 1    
   142   71  194 1    
   143   72   73 2    
   144   72   74 am   BACKBONE|DICT|INTERRES
   145   74   75 1    
   146   74  195 1    
   147   75   76 1    
   148   75   77 1    
   149   75  196 1    
   150   76  197 1    
   151   76  198 1    
   152   76  199 1    
   153   77   78 2    
   154   77   79 am   BACKBONE|DICT|INTERRES
   155   79   80 1    
   156   79  200 1    
   157   80   81 1    
   158   80   82 1    
   159   80  201 1    
   160   81  202 1    
   161   81  203 1    
   162   81  204 1    
   163   82   83 2    
   164   82   84 am   BACKBONE|DICT|INTERRES
   165   84   85 1    
   166   84  205 1    
   167   85   86 1    
   168   85   87 1    
   169   85  206 1    
   170   86  207 1    
   171   86  208 1    
   172   86  209 1    
   173   87   88 2    
   174   87   89 am   BACKBONE|DICT|INTERRES
   175   89   90 1    
   176   89  210 1    
   177   90   91 1    
   178   90   92 1    
   179   90  211 1    
   180   91  212 1    
   181   91  213 1    
   182   91  214 1    
   183   92   93 2    
   184   92   94 am   BACKBONE|DICT|INTERRES
   185   94   95 1    
   186   94  215 1    
   187   95   96 1    
   188   95   97 1    
   189   95  216 1    
   190   96  217 1    
   191   96  218 1    
   192   96  219 1    
   193   97   98 2    
   194   97   99 am   BACKBONE|DICT|INTERRES
   195   99  100 1    
   196   99  220 1    
   197  100  101 1    
   198  100  102 1    
   199  100  221 1    
   200  101  222 1    
   201  101  223 1    
   202  101  224 1    
   203  102  103 2    
   204  102  104 am   BACKBONE|DICT|INTERRES
   205  104  105 1    
   206  104  225 1    
   207  105  106 1    
   208  105  107 1    
   209  105  226 1    
   210  106  227 1    
   211  106  228 1    
   212  106  229 1    
   213  107  108 2    
   214  107  109 am   BACKBONE|DICT|INTERRES
   215  109  110 1    
   216  109  230 1    
   217  110  111 1    
   218  110  112 1    
   219  110  231 1    
   220  111  232 1    
   221  111  233 1    
   222  111  234 1    
   223  112  113 2    
   224  112  114 am   BACKBONE|DICT|INTERRES
   225  114  115 1    
   226  114  235 1    
   227  115  116 1    
   228  115  117 1    
   229  115  236 1    
   230  116  237 1    
   231  116  238 1    
   232  116  239 1    
   233  117  118 2    
   234  117  119 am   BACKBONE|DICT|INTERRES
   235  119  120 1    
   236  119  240 1    
   237  120  121 1    
   238  120  124 1    
   239  120  241 1    
   240  121  122 am   BACKBONE|DICT|INTERRES
   241  121  123 2    
   242  122  242 1    
   243  122  243 1    
   244  124  125 1    
   245  124  244 1    
   246  124  245 1    
   247  125  126 1    
   248  126  246 1    
   249  126  247 1    
@<TRIPOS>SUBSTRUCTURE
     1 UNK         1 GROUP             0       ****    0 ROOT    
