@<TRIPOS>MOLECULE
3R540
247   249    1
SMALL
USER_CHARGES


@<TRIPOS>ATOM
      1 CA          4.5410  -11.7920  -48.2910 C.3       0 UNK        -0.1800 
      2 C           4.7467  -12.6990  -47.0859 C.2       0 UNK         0.5000 
      3 O           5.8859  -13.0119  -46.7380 O.2       0 UNK        -0.5000 
      4 N           3.6480  -13.1204  -46.4543 N.am      1 UNK        -0.5000 
      5 CA          3.6297  -13.9248  -45.2314 C.3       1 UNK         0.1400 
      6 C6          2.3287  -14.7622  -45.1504 C.3       23 UNK        -0.0398 
      7 S7          2.2917  -16.1126  -46.3693 S.3       23 UNK        -0.2404 
      8 C8          1.3362  -15.3712  -47.7391 C.3       23 UNK        -0.0205 
      9 C9          0.9871  -16.3456  -48.8656 C.ar      23 UNK        -0.0193 
     10 C10        -0.1005  -16.0583  -49.6978 C.ar      23 UNK        -0.1150 
     11 C11        -0.4433  -16.9122  -50.7513 C.ar      23 UNK        -0.0193 
     12 C12         0.3087  -18.0715  -50.9642 C.ar      23 UNK        -0.1150 
     13 C13         1.3995  -18.3750  -50.1459 C.ar      23 UNK        -0.0193 
     14 C14         1.7357  -17.5052  -49.1075 C.ar      23 UNK        -0.1150 
     15 C15         2.2391  -19.6247  -50.3875 C.3       23 UNK        -0.0205 
     16 S16         1.2539  -21.1552  -50.4474 S.3       23 UNK        -0.2404 
     17 C17         0.3539  -21.0846  -48.8643 C.3       23 UNK        -0.0398 
     18 CA          0.0326  -22.5032  -48.3464 C.3       11 UNK         0.1400 
     19 N           1.1867  -23.1629  -47.7344 N.am      11 UNK        -0.5000 
     20 C           1.2739  -24.4896  -47.5665 C.2       10 UNK         0.5000 
     21 O           0.4134  -25.2797  -47.9515 O.2       10 UNK        -0.5000 
     22 CA          2.5017  -25.0271  -46.8095 C.3       10 UNK         0.1400 
     23 CB          3.6379  -25.3506  -47.7909 C.3       10 UNK        -0.1800 
     24 N           3.0008  -24.1156  -45.7787 N.am      10 UNK        -0.5000 
     25 C           2.3120  -23.7144  -44.7017 C.2       9 UNK         0.5000 
     26 O           1.1573  -24.0755  -44.4639 O.2       9 UNK        -0.5000 
     27 CA          3.0176  -22.7382  -43.7326 C.3       9 UNK         0.1400 
     28 CB          4.4573  -22.3638  -44.1531 C.3       9 UNK        -0.1800 
     29 N           2.2453  -21.5150  -43.4841 N.am      9 UNK        -0.5000 
     30 C           1.7669  -20.6611  -44.3993 C.2       8 UNK         0.5000 
     31 O           1.8336  -20.8427  -45.6195 O.2       8 UNK        -0.5000 
     32 CA          1.1066  -19.3859  -43.8506 C.3       8 UNK         0.1400 
     33 CB          2.1621  -18.3913  -43.3386 C.3       8 UNK        -0.1800 
     34 N           0.3357  -18.7591  -44.9181 N.am      8 UNK        -0.5000 
     35 C          -0.8592  -18.1758  -44.7899 C.2       7 UNK         0.5000 
     36 O          -1.4727  -18.0795  -43.7244 O.2       7 UNK        -0.5000 
     37 CA         -1.4937  -17.6740  -46.1011 C.3       7 UNK         0.1400 
     38 CB         -2.2722  -18.8087  -46.7820 C.3       7 UNK        -0.1800 
     39 N          -2.3982  -16.5366  -45.9362 N.am      7 UNK        -0.5000 
     40 C          -2.0583  -15.3308  -45.4670 C.2       6 UNK         0.5000 
     41 O          -0.9496  -15.0457  -45.0129 O.2       6 UNK        -0.5000 
     42 CA         -3.1453  -14.2462  -45.5473 C.3       6 UNK         0.1400 
     43 CB         -3.7736  -13.9754  -44.1738 C.3       6 UNK        -0.1800 
     44 N          -2.5869  -13.0085  -46.0903 N.am      6 UNK        -0.5000 
     45 C          -2.3064  -12.8304  -47.3901 C.2       5 UNK         0.5000 
     46 O          -2.5540  -13.6689  -48.2576 O.2       5 UNK        -0.5000 
     47 CA         -1.6613  -11.4972  -47.8114 C.3       5 UNK         0.1400 
     48 CB         -2.7207  -10.5514  -48.3982 C.3       5 UNK        -0.1800 
     49 N          -0.9768  -10.8140  -46.7160 N.am      5 UNK        -0.5000 
     50 C           0.2443  -11.1267  -46.2674 C.2       4 UNK         0.5000 
     51 O           0.9422  -12.0235  -46.7444 O.2       4 UNK        -0.5000 
     52 CA          0.7967  -10.2855  -45.1012 C.3       4 UNK         0.1400 
     53 CB          0.1009   -8.9173  -44.9180 C.3       4 UNK        -0.1800 
     54 N           0.8072  -11.0369  -43.8453 N.am      4 UNK        -0.5000 
     55 C          -0.2407  -11.5479  -43.1801 C.2       3 UNK         0.5000 
     56 O          -1.4045  -11.4522  -43.5746 O.2       3 UNK        -0.5000 
     57 CA          0.0643  -12.2805  -41.8520 C.3       3 UNK         0.1400 
     58 CB         -0.9212  -13.4274  -41.5730 C.3       3 UNK        -0.1800 
     59 N           1.4226  -12.8241  -41.8335 N.am      3 UNK        -0.5000 
     60 C           2.4867  -12.2738  -41.2327 C.2       2 UNK         0.5000 
     61 O           2.4342  -11.2650  -40.5293 O.2       2 UNK        -0.5000 
     62 CA          3.8514  -12.9430  -41.5105 C.3       2 UNK         0.1400 
     63 CB          4.1927  -13.9496  -40.4015 C.3       2 UNK        -0.1800 
     64 N           3.9071  -13.6240  -42.8112 N.am      2 UNK        -0.5000 
     65 C           3.7613  -13.0106  -43.9950 C.2       1 UNK         0.5000 
     66 O           3.6647  -11.7852  -44.1058 O.2       1 UNK        -0.5000 
     67 C          -1.1806  -22.5038  -47.3994 C.2       11 UNK         0.5000 
     68 O          -2.2992  -22.6909  -47.8731 O.2       11 UNK        -0.5000 
     69 N          -0.9621  -22.3538  -46.0837 N.am      12 UNK        -0.5000 
     70 CA         -2.0259  -22.4835  -45.0817 C.3       12 UNK         0.1400 
     71 CB         -1.5424  -22.0415  -43.6949 C.3       12 UNK        -0.1800 
     72 C          -2.6099  -23.9054  -45.0417 C.2       12 UNK         0.5000 
     73 O          -3.8329  -24.0569  -45.0189 O.2       12 UNK        -0.5000 
     74 N          -1.7216  -24.9085  -45.1104 N.am      13 UNK        -0.5000 
     75 CA         -2.0654  -26.3266  -45.2325 C.3       13 UNK         0.1400 
     76 CB         -0.7889  -27.1737  -45.1259 C.3       13 UNK        -0.1800 
     77 C          -2.8400  -26.6549  -46.5255 C.2       13 UNK         0.5000 
     78 O          -3.7332  -27.5018  -46.4956 O.2       13 UNK        -0.5000 
     79 N          -2.5437  -25.9375  -47.6187 N.am      14 UNK        -0.5000 
     80 CA         -3.2470  -25.9851  -48.9049 C.3       14 UNK         0.1400 
     81 CB         -2.2989  -25.4924  -50.0128 C.3       14 UNK        -0.1800 
     82 C          -4.5848  -25.2079  -48.8876 C.2       14 UNK         0.5000 
     83 O          -4.8860  -24.4730  -49.8326 O.2       14 UNK        -0.5000 
     84 N          -5.3672  -25.4007  -47.8162 N.am      15 UNK        -0.5000 
     85 CA         -6.7027  -24.8565  -47.5619 C.3       15 UNK         0.1400 
     86 CB         -7.7251  -25.5077  -48.5177 C.3       15 UNK        -0.1800 
     87 C          -6.7434  -23.3159  -47.5984 C.2       15 UNK         0.5000 
     88 O          -7.5760  -22.7427  -48.3004 O.2       15 UNK        -0.5000 
     89 N          -5.8197  -22.6688  -46.8700 N.am      16 UNK        -0.5000 
     90 CA         -5.6249  -21.2100  -46.8301 C.3       16 UNK         0.1400 
     91 CB         -6.7998  -20.5164  -46.1104 C.3       16 UNK        -0.1800 
     92 C          -5.3336  -20.6210  -48.2289 C.2       16 UNK         0.5000 
     93 O          -5.9087  -19.6052  -48.6216 O.2       16 UNK        -0.5000 
     94 N          -4.4580  -21.3230  -48.9567 N.am      17 UNK        -0.5000 
     95 CA         -4.0126  -21.1183  -50.3323 C.3       17 UNK         0.1400 
     96 CB         -3.3041  -19.7624  -50.5022 C.3       17 UNK        -0.1800 
     97 C          -5.0891  -21.3432  -51.4102 C.2       17 UNK         0.5000 
     98 O          -4.8077  -21.0739  -52.5778 O.2       17 UNK        -0.5000 
     99 N          -6.2728  -21.8616  -51.0507 N.am      18 UNK        -0.5000 
    100 CA        -7.3500  -22.1517  -51.9999 C.3       18 UNK         0.1400 
    101 CB        -8.6641  -22.4115  -51.2508 C.3       18 UNK        -0.1800 
    102 C         -7.0207  -23.3288  -52.9344 C.2       18 UNK         0.5000 
    103 O         -7.3946  -23.2848  -54.1068 O.2       18 UNK        -0.5000 
    104 N         -6.3073  -24.3417  -52.4195 N.am      19 UNK        -0.5000 
    105 CA        -5.8482  -25.4871  -53.2093 C.3       19 UNK         0.1400 
    106 CB        -5.6401  -26.7003  -52.2904 C.3       19 UNK        -0.1800 
    107 C         -4.5654  -25.1635  -53.9979 C.2       19 UNK         0.5000 
    108 O         -4.3491  -25.7380  -55.0653 O.2       19 UNK        -0.5000 
    109 N         -3.7482  -24.2403  -53.4706 N.am      20 UNK        -0.5000 
    110 CA        -2.5318  -23.7409  -54.1170 C.3       20 UNK         0.1400 
    111 CB        -1.6098  -23.1326  -53.0466 C.3       20 UNK        -0.1800 
    112 C         -2.8184  -22.6979  -55.2151 C.2       20 UNK         0.5000 
    113 O         -1.9588  -22.4683  -56.0667 O.2       20 UNK        -0.5000 
    114 N         -3.9857  -22.0399  -55.1363 N.am      21 UNK        -0.5000 
    115 CA        -4.4441  -20.9085  -55.9543 C.3       21 UNK         0.1400 
    116 CB        -4.6982  -21.3590  -57.4072 C.3       21 UNK        -0.1800 
    117 C         -3.5138  -19.6763  -55.8628 C.2       21 UNK         0.5000 
    118 O         -3.4516  -18.8771  -56.7986 O.2       21 UNK        -0.5000 
    119 N         -2.7840  -19.5674  -54.7432 N.am      22 UNK        -0.5000 
    120 CA        -1.6658  -18.6373  -54.5176 C.3       22 UNK         0.1400 
    121 C         -0.4462  -18.8458  -55.4767 C.2       22 UNK         0.5000 
    122 N         -0.2866  -20.0057  -56.1058 N.am      22 UNK        -0.7600 
    123 O          0.3871  -17.9606  -55.6456 O.2       22 UNK        -0.5000 
    124 C124       -2.1436  -17.1607  -54.3919 C.3       23 UNK        -0.0398 
    125 S125       -1.0679  -16.1271  -53.3321 S.3       23 UNK        -0.2404 
    126 C126       -1.6225  -16.5870  -51.6588 C.3       23 UNK        -0.0205 
    127 H127        5.0342  -10.8337  -48.1281 H         1 UNK         0.0600 
    128 H128        4.9672  -12.2503  -49.1834 H         1 UNK         0.0600 
    129 H129        3.4832  -11.6027  -48.4777 H         1 UNK         0.0600 
    130 H130        2.7388  -12.7709  -46.7443 H         1 UNK         0.3000 
    131 H131        4.4854  -14.6035  -45.2294 H         1 UNK         0.0600 
    132 H132        1.4496  -14.1284  -45.2675 H         1 UNK         0.0800 
    133 H133        2.2211  -15.2394  -44.1758 H         1 UNK         0.0800 
    134 H134        1.9047  -14.5433  -48.1631 H         1 UNK         0.0800 
    135 H135        0.4188  -14.9425  -47.3340 H         1 UNK         0.0800 
    136 H136       -0.6794  -15.1612  -49.5278 H         1 UNK         0.1150 
    137 H137        0.0549  -18.7386  -51.7735 H         1 UNK         0.1150 
    138 H138        2.5934  -17.7383  -48.4942 H         1 UNK         0.1150 
    139 H139        2.7722  -19.5122  -51.3323 H         1 UNK         0.0800 
    140 H140        3.0020  -19.7358  -49.6153 H         1 UNK         0.0800 
    141 H141        0.9256  -20.5186  -48.1275 H         1 UNK         0.0800 
    142 H142       -0.5562  -20.5148  -49.0501 H         1 UNK         0.0800 
    143 H143       -0.2693  -23.1009  -49.2092 H         1 UNK         0.0600 
    144 H144        1.9083  -22.5657  -47.3534 H         1 UNK         0.3000 
    145 H145        2.2026  -25.9538  -46.3156 H         1 UNK         0.0600 
    146 H146        4.4821  -25.8133  -47.2795 H         1 UNK         0.0600 
    147 H147        3.3028  -26.0488  -48.5592 H         1 UNK         0.0600 
    148 H148        4.0000  -24.4548  -48.2970 H         1 UNK         0.0600 
    149 H149        3.9378  -23.7620  -45.9059 H         1 UNK         0.3000 
    150 H150        3.0797  -23.2621  -42.7778 H         1 UNK         0.0600 
    151 H151        5.0903  -23.2477  -44.2415 H         1 UNK         0.0600 
    152 H152        4.9220  -21.7175  -43.4083 H         1 UNK         0.0600 
    153 H153        4.4814  -21.8330  -45.1058 H         1 UNK         0.0600 
    154 H154        2.1011  -21.2958  -42.5086 H         1 UNK         0.3000 
    155 H155        0.4518  -19.6662  -43.0238 H         1 UNK         0.0600 
    156 H156        2.7300  -18.8110  -42.5077 H         1 UNK         0.0600 
    157 H157        1.6955  -17.4731  -42.9812 H         1 UNK         0.0600 
    158 H158        2.8738  -18.1234  -44.1202 H         1 UNK         0.0600 
    159 H159        0.7513  -18.8604  -45.8347 H         1 UNK         0.3000 
    160 H160       -0.6921  -17.3549  -46.7688 H         1 UNK         0.0600 
    161 H161       -3.0748  -19.1815  -46.1451 H         1 UNK         0.0600 
    162 H162       -1.6167  -19.6470  -47.0102 H         1 UNK         0.0600 
    163 H163       -2.7147  -18.4756  -47.7203 H         1 UNK         0.0600 
    164 H164       -3.3428  -16.6767  -46.2612 H         1 UNK         0.3000 
    165 H165       -3.9406  -14.5883  -46.2133 H         1 UNK         0.0600 
    166 H166       -3.0398  -13.5962  -43.4663 H         1 UNK         0.0600 
    167 H167       -4.5774  -13.2427  -44.2455 H         1 UNK         0.0600 
    168 H168       -4.1975  -14.8870  -43.7510 H         1 UNK         0.0600 
    169 H169       -2.2844  -12.3140  -45.4176 H         1 UNK         0.3000 
    170 H170       -0.9338  -11.7191  -48.5955 H         1 UNK         0.0600 
    171 H171       -3.2348  -11.0151  -49.2412 H         1 UNK         0.0600 
    172 H172       -3.4769  -10.2853  -47.6586 H         1 UNK         0.0600 
    173 H173       -2.2677   -9.6294  -48.7633 H         1 UNK         0.0600 
    174 H174       -1.4857  -10.0762  -46.2509 H         1 UNK         0.3000 
    175 H175        1.8408  -10.0849  -45.3460 H         1 UNK         0.0600 
    176 H176       -0.9416   -9.0134  -44.6137 H         1 UNK         0.0600 
    177 H177        0.6094   -8.3252  -44.1570 H         1 UNK         0.0600 
    178 H178        0.1256   -8.3382  -45.8420 H         1 UNK         0.0600 
    179 H179        1.7348  -11.2177  -43.4806 H         1 UNK         0.3000 
    180 H180       -0.0512  -11.5437  -41.0549 H         1 UNK         0.0600 
    181 H181       -1.9394  -13.0515  -41.4693 H         1 UNK         0.0600 
    182 H182       -0.9151  -14.1672  -42.3741 H         1 UNK         0.0600 
    183 H183       -0.6750  -13.9402  -40.6431 H         1 UNK         0.0600 
    184 H184        1.5698  -13.6533  -42.3884 H         1 UNK         0.3000 
    185 H185        4.6104  -12.1578  -41.5084 H         1 UNK         0.0600 
    186 H186        4.1839  -13.4692  -39.4222 H         1 UNK         0.0600 
    187 H187        3.4776  -14.7726  -40.3697 H         1 UNK         0.0600 
    188 H188        5.1871  -14.3729  -40.5446 H         1 UNK         0.0600 
    189 H189        4.0122  -14.6282  -42.7831 H         1 UNK         0.3000 
    190 H190       -0.0129  -22.2468  -45.7509 H         1 UNK         0.3000 
    191 H191       -2.8320  -21.8092  -45.3683 H         1 UNK         0.0600 
    192 H192       -2.3119  -22.2138  -42.9412 H         1 UNK         0.0600 
    193 H193       -1.3266  -20.9760  -43.6849 H         1 UNK         0.0600 
    194 H194       -0.6498  -22.5776  -43.3763 H         1 UNK         0.0600 
    195 H195       -0.7338  -24.6769  -45.0895 H         1 UNK         0.3000 
    196 H196       -2.7116  -26.5801  -44.3897 H         1 UNK         0.0600 
    197 H197       -1.0257  -28.2382  -45.1452 H         1 UNK         0.0600 
    198 H198       -0.2589  -26.9745  -44.1942 H         1 UNK         0.0600 
    199 H199       -0.1033  -26.9768  -45.9494 H         1 UNK         0.0600 
    200 H200       -1.7779  -25.2786  -47.5602 H         1 UNK         0.3000 
    201 H201       -3.4912  -27.0265  -49.1227 H         1 UNK         0.0600 
    202 H202       -1.3530  -26.0337  -49.9959 H         1 UNK         0.0600 
    203 H203       -2.0807  -24.4305  -49.9097 H         1 UNK         0.0600 
    204 H204       -2.7344  -25.6396  -51.0007 H         1 UNK         0.0600 
    205 H205       -5.0113  -26.0323  -47.1073 H         1 UNK         0.3000 
    206 H206       -6.9684  -25.1455  -46.5442 H         1 UNK         0.0600 
    207 H207       -7.7133  -26.5936  -48.4250 H         1 UNK         0.0600 
    208 H208       -8.7394  -25.1750  -48.2942 H         1 UNK         0.0600 
    209 H209       -7.5210  -25.2607  -49.5599 H         1 UNK         0.0600 
    210 H210       -5.1615  -23.2223  -46.3293 H         1 UNK         0.3000 
    211 H211       -4.7325  -21.0302  -46.2341 H         1 UNK         0.0600 
    212 H212       -7.7307  -20.6050  -46.6710 H         1 UNK         0.0600 
    213 H213       -6.6004  -19.4527  -45.9759 H         1 UNK         0.0600 
    214 H214       -6.9622  -20.9433  -45.1208 H         1 UNK         0.0600 
    215 H215       -4.0086  -22.1146  -48.5039 H         1 UNK         0.3000 
    216 H216       -3.2669  -21.8961  -50.4994 H         1 UNK         0.0600 
    217 H217       -4.0026  -18.9282  -50.4319 H         1 UNK         0.0600 
    218 H218       -2.8156  -19.7035  -51.4748 H         1 UNK         0.0600 
    219 H219       -2.5325  -19.6186  -49.7494 H         1 UNK         0.0600 
    220 H220       -6.4434  -22.0872  -50.0777 H         1 UNK         0.3000 
    221 H221       -7.4925  -21.2652  -52.6217 H         1 UNK         0.0600 
    222 H222       -8.6179  -23.3271  -50.6611 H         1 UNK         0.0600 
    223 H223       -8.9063  -21.5887  -50.5780 H         1 UNK         0.0600 
    224 H224       -9.4948  -22.5170  -51.9495 H         1 UNK         0.0600 
    225 H225       -6.0022  -24.2983  -51.4505 H         1 UNK         0.3000 
    226 H226       -6.6233  -25.7520  -53.9319 H         1 UNK         0.0600 
    227 H227       -6.5410  -26.9222  -51.7180 H         1 UNK         0.0600 
    228 H228       -5.3965  -27.5896  -52.8729 H         1 UNK         0.0600 
    229 H229       -4.8260  -26.5423  -51.5858 H         1 UNK         0.0600 
    230 H230       -4.0043  -23.8263  -52.5870 H         1 UNK         0.3000 
    231 H231       -2.0084  -24.5785  -54.5829 H         1 UNK         0.0600 
    232 H232       -2.0733  -22.2815  -52.5482 H         1 UNK         0.0600 
    233 H233       -1.3449  -23.8670  -52.2867 H         1 UNK         0.0600 
    234 H234       -0.6771  -22.7800  -53.4892 H         1 UNK         0.0600 
    235 H235       -4.5732  -22.2387  -54.3361 H         1 UNK         0.3000 
    236 H236       -5.4000  -20.5973  -55.5307 H         1 UNK         0.0600 
    237 H237       -5.3580  -22.2260  -57.4401 H         1 UNK         0.0600 
    238 H238       -5.1758  -20.5674  -57.9855 H         1 UNK         0.0600 
    239 H239       -3.7713  -21.6228  -57.9173 H         1 UNK         0.0600 
    240 H240       -2.9495  -20.2513  -54.0182 H         1 UNK         0.3000 
    241 H241       -1.2866  -18.9365  -53.5427 H         1 UNK         0.0600 
    242 H242        0.5079  -20.1237  -56.7140 H         1 UNK         0.3800 
    243 H243       -0.9535  -20.7646  -56.0107 H         1 UNK         0.3800 
    244 H244       -3.1511  -17.1222  -53.9751 H         1 UNK         0.0800 
    245 H245       -2.2174  -16.6990  -55.3777 H         1 UNK         0.0800 
    246 H246       -2.2148  -15.7688  -51.2459 H         1 UNK         0.0800 
    247 H247       -2.2871  -17.4473  -51.7041 H         1 UNK         0.0800 
@<TRIPOS>BOND
     1    1    2 1    
     2    1  127 1    
     3    1  128 1    
     4    1  129 1    
     5    2    3 2    
     6    2    4 am   BACKBONE|DICT|INTERRES
     7    4    5 1    
     8    4  130 1    
     9    5    6 1    
    10    5   65 1    
    11    5  131 1    
    12    6    7 1    
    13    6  132 1    
    14    6  133 1    
    15    7    8 1    
    16    8    9 1    
    17    8  134 1    
    18    8  135 1    
    19    9   10 ar   
    20    9   14 ar   
    21   10   11 ar   
    22   10  136 1    
    23   11   12 ar   
    24   11  126 1    
    25   12   13 ar   
    26   12  137 1    
    27   13   14 ar   
    28   13   15 1    
    29   14  138 1    
    30   15   16 1    
    31   15  139 1    
    32   15  140 1    
    33   16   17 1    
    34   17   18 1    
    35   17  141 1    
    36   17  142 1    
    37   18   19 1    
    38   18   67 1    
    39   18  143 1    
    40   19   20 am   BACKBONE|DICT|INTERRES
    41   19  144 1    
    42   20   21 2    
    43   20   22 1    
    44   22   23 1    
    45   22   24 1    
    46   22  145 1    
    47   23  146 1    
    48   23  147 1    
    49   23  148 1    
    50   24   25 am   BACKBONE|DICT|INTERRES
    51   24  149 1    
    52   25   26 2    
    53   25   27 1    
    54   27   28 1    
    55   27   29 1    
    56   27  150 1    
    57   28  151 1    
    58   28  152 1    
    59   28  153 1    
    60   29   30 am   BACKBONE|DICT|INTERRES
    61   29  154 1    
    62   30   31 2    
    63   30   32 1    
    64   32   33 1    
    65   32   34 1    
    66   32  155 1    
    67   33  156 1    
    68   33  157 1    
    69   33  158 1    
    70   34   35 am   BACKBONE|DICT|INTERRES
    71   34  159 1    
    72   35   36 2    
    73   35   37 1    
    74   37   38 1    
    75   37   39 1    
    76   37  160 1    
    77   38  161 1    
    78   38  162 1    
    79   38  163 1    
    80   39   40 am   BACKBONE|DICT|INTERRES
    81   39  164 1    
    82   40   41 2    
    83   40   42 1    
    84   42   43 1    
    85   42   44 1    
    86   42  165 1    
    87   43  166 1    
    88   43  167 1    
    89   43  168 1    
    90   44   45 am   BACKBONE|DICT|INTERRES
    91   44  169 1    
    92   45   46 2    
    93   45   47 1    
    94   47   48 1    
    95   47   49 1    
    96   47  170 1    
    97   48  171 1    
    98   48  172 1    
    99   48  173 1    
   100   49   50 am   BACKBONE|DICT|INTERRES
   101   49  174 1    
   102   50   51 2    
   103   50   52 1    
   104   52   53 1    
   105   52   54 1    
   106   52  175 1    
   107   53  176 1    
   108   53  177 1    
   109   53  178 1    
   110   54   55 am   BACKBONE|DICT|INTERRES
   111   54  179 1    
   112   55   56 2    
   113   55   57 1    
   114   57   58 1    
   115   57   59 1    
   116   57  180 1    
   117   58  181 1    
   118   58  182 1    
   119   58  183 1    
   120   59   60 am   BACKBONE|DICT|INTERRES
   121   59  184 1    
   122   60   61 2    
   123   60   62 1    
   124   62   63 1    
   125   62   64 1    
   126   62  185 1    
   127   63  186 1    
   128   63  187 1    
   129   63  188 1    
   130   64   65 am   BACKBONE|DICT|INTERRES
   131   64  189 1    
   132   65   66 2    
   133   67   68 2    
   134   67   69 am   BACKBONE|DICT|INTERRES
   135   69   70 1    
   136   69  190 1    
   137   70   71 1    
   138   70   72 1    
   139   70  191 1    
   140   71  192 1    
   141   71  193 1    
   142   71  194 1    
   143   72   73 2    
   144   72   74 am   BACKBONE|DICT|INTERRES
   145   74   75 1    
   146   74  195 1    
   147   75   76 1    
   148   75   77 1    
   149   75  196 1    
   150   76  197 1    
   151   76  198 1    
   152   76  199 1    
   153   77   78 2    
   154   77   79 am   BACKBONE|DICT|INTERRES
   155   79   80 1    
   156   79  200 1    
   157   80   81 1    
   158   80   82 1    
   159   80  201 1    
   160   81  202 1    
   161   81  203 1    
   162   81  204 1    
   163   82   83 2    
   164   82   84 am   BACKBONE|DICT|INTERRES
   165   84   85 1    
   166   84  205 1    
   167   85   86 1    
   168   85   87 1    
   169   85  206 1    
   170   86  207 1    
   171   86  208 1    
   172   86  209 1    
   173   87   88 2    
   174   87   89 am   BACKBONE|DICT|INTERRES
   175   89   90 1    
   176   89  210 1    
   177   90   91 1    
   178   90   92 1    
   179   90  211 1    
   180   91  212 1    
   181   91  213 1    
   182   91  214 1    
   183   92   93 2    
   184   92   94 am   BACKBONE|DICT|INTERRES
   185   94   95 1    
   186   94  215 1    
   187   95   96 1    
   188   95   97 1    
   189   95  216 1    
   190   96  217 1    
   191   96  218 1    
   192   96  219 1    
   193   97   98 2    
   194   97   99 am   BACKBONE|DICT|INTERRES
   195   99  100 1    
   196   99  220 1    
   197  100  101 1    
   198  100  102 1    
   199  100  221 1    
   200  101  222 1    
   201  101  223 1    
   202  101  224 1    
   203  102  103 2    
   204  102  104 am   BACKBONE|DICT|INTERRES
   205  104  105 1    
   206  104  225 1    
   207  105  106 1    
   208  105  107 1    
   209  105  226 1    
   210  106  227 1    
   211  106  228 1    
   212  106  229 1    
   213  107  108 2    
   214  107  109 am   BACKBONE|DICT|INTERRES
   215  109  110 1    
   216  109  230 1    
   217  110  111 1    
   218  110  112 1    
   219  110  231 1    
   220  111  232 1    
   221  111  233 1    
   222  111  234 1    
   223  112  113 2    
   224  112  114 am   BACKBONE|DICT|INTERRES
   225  114  115 1    
   226  114  235 1    
   227  115  116 1    
   228  115  117 1    
   229  115  236 1    
   230  116  237 1    
   231  116  238 1    
   232  116  239 1    
   233  117  118 2    
   234  117  119 am   BACKBONE|DICT|INTERRES
   235  119  120 1    
   236  119  240 1    
   237  120  121 1    
   238  120  124 1    
   239  120  241 1    
   240  121  122 am   BACKBONE|DICT|INTERRES
   241  121  123 2    
   242  122  242 1    
   243  122  243 1    
   244  124  125 1    
   245  124  244 1    
   246  124  245 1    
   247  125  126 1    
   248  126  246 1    
   249  126  247 1    
@<TRIPOS>SUBSTRUCTURE
     1 UNK         1 GROUP             0       ****    0 ROOT    
