@<TRIPOS>MOLECULE
3R540
247   249    1
SMALL
USER_CHARGES


@<TRIPOS>ATOM
      1 CA         -3.2025  -12.0307  -48.4603 C.3       0 UNK        -0.1800 
      2 C          -2.3030  -13.0863  -47.8341 C.2       0 UNK         0.5000 
      3 O          -2.7838  -14.1574  -47.4658 O.2       0 UNK        -0.5000 
      4 N          -1.0068  -12.7767  -47.6893 N.am      1 UNK        -0.5000 
      5 CA          0.0875  -13.6261  -47.1824 C.3       1 UNK         0.1400 
      6 C6          0.2948  -14.9378  -47.9854 C.3       23 UNK        -0.0398 
      7 S7          0.6607  -14.5980  -49.7408 S.3       23 UNK        -0.2404 
      8 C8          1.9439  -15.8422  -50.1098 C.3       23 UNK        -0.0205 
      9 C9          1.4281  -17.2791  -50.1690 C.ar      23 UNK        -0.0193 
     10 C10         0.1869  -17.5852  -50.7361 C.ar      23 UNK        -0.1150 
     11 C11        -0.2662  -18.9085  -50.8189 C.ar      23 UNK        -0.0193 
     12 C12         0.5697  -19.9349  -50.3671 C.ar      23 UNK        -0.1150 
     13 C13         1.8225  -19.6509  -49.8095 C.ar      23 UNK        -0.0193 
     14 C14         2.2358  -18.3198  -49.7054 C.ar      23 UNK        -0.1150 
     15 C15         2.7776  -20.7594  -49.3719 C.3       23 UNK        -0.0205 
     16 S16         1.9901  -22.1529  -48.5017 S.3       23 UNK        -0.2404 
     17 C17         1.3649  -21.3552  -46.9870 C.3       23 UNK        -0.0398 
     18 CA         -0.0399  -21.8782  -46.6054 C.3       11 UNK         0.1400 
     19 N          -0.3122  -21.7265  -45.1739 N.am      11 UNK        -0.5000 
     20 C          -1.3583  -22.2708  -44.5361 C.2       10 UNK         0.5000 
     21 O          -2.1842  -23.0015  -45.0798 O.2       10 UNK        -0.5000 
     22 CA         -1.5506  -21.8877  -43.0580 C.3       10 UNK         0.1400 
     23 CB         -0.6389  -22.7211  -42.1456 C.3       10 UNK        -0.1800 
     24 N          -1.3206  -20.4627  -42.8238 N.am      10 UNK        -0.5000 
     25 C          -2.0552  -19.4808  -43.3647 C.2       9 UNK         0.5000 
     26 O          -3.0529  -19.6765  -44.0589 O.2       9 UNK        -0.5000 
     27 CA         -1.5603  -18.0427  -43.1362 C.3       9 UNK         0.1400 
     28 CB         -1.9772  -17.5366  -41.7459 C.3       9 UNK        -0.1800 
     29 N          -0.1095  -17.9194  -43.3013 N.am      9 UNK        -0.5000 
     30 C           0.5444  -18.1217  -44.4553 C.2       8 UNK         0.5000 
     31 O          -0.0163  -18.3601  -45.5224 O.2       8 UNK        -0.5000 
     32 CA          2.0823  -18.1268  -44.4034 C.3       8 UNK         0.1400 
     33 CB          2.6578  -16.7152  -44.5772 C.3       8 UNK        -0.1800 
     34 N           2.5824  -18.7175  -43.1633 N.am      8 UNK        -0.5000 
     35 C           2.5149  -20.0248  -42.8750 C.2       7 UNK         0.5000 
     36 O           2.0677  -20.8700  -43.6494 O.2       7 UNK        -0.5000 
     37 CA          2.9797  -20.4473  -41.4691 C.3       7 UNK         0.1400 
     38 CB          4.5034  -20.6359  -41.4366 C.3       7 UNK        -0.1800 
     39 N           2.5881  -19.4808  -40.4417 N.am      7 UNK        -0.5000 
     40 C           1.3208  -19.2296  -40.0822 C.2       6 UNK         0.5000 
     41 O           0.3543  -19.8458  -40.5288 O.2       6 UNK        -0.5000 
     42 CA          1.0933  -18.0583  -39.1057 C.3       6 UNK         0.1400 
     43 CB          1.1285  -18.5529  -37.6525 C.3       6 UNK        -0.1800 
     44 N           2.0689  -16.9768  -39.2765 N.am      6 UNK        -0.5000 
     45 C           2.1845  -16.2302  -40.3825 C.2       5 UNK         0.5000 
     46 O           1.4453  -16.3415  -41.3635 O.2       5 UNK        -0.5000 
     47 CA          3.3804  -15.2720  -40.4320 C.3       5 UNK         0.1400 
     48 CB          4.6629  -16.0683  -40.7570 C.3       5 UNK        -0.1800 
     49 N           3.1423  -14.2518  -41.4498 N.am      5 UNK        -0.5000 
     50 C           3.9014  -13.1690  -41.6588 C.2       4 UNK         0.5000 
     51 O           4.8781  -12.8721  -40.9694 O.2       4 UNK        -0.5000 
     52 CA          3.5088  -12.2597  -42.8354 C.3       4 UNK         0.1400 
     53 CB          4.0292  -12.8368  -44.1613 C.3       4 UNK        -0.1800 
     54 N           2.0651  -12.0379  -42.9242 N.am      4 UNK        -0.5000 
     55 C           1.3836  -11.2209  -42.1052 C.2       3 UNK         0.5000 
     56 O           1.9066  -10.6023  -41.1772 O.2       3 UNK        -0.5000 
     57 CA         -0.1250  -11.0284  -42.3668 C.3       3 UNK         0.1400 
     58 CB         -0.3768   -9.6973  -43.0922 C.3       3 UNK        -0.1800 
     59 N          -0.7245  -12.1070  -43.1494 N.am      3 UNK        -0.5000 
     60 C          -0.9533  -13.3438  -42.6920 C.2       2 UNK         0.5000 
     61 O          -0.7564  -13.6847  -41.5259 O.2       2 UNK        -0.5000 
     62 CA         -1.4714  -14.3796  -43.7085 C.3       2 UNK         0.1400 
     63 CB         -2.9853  -14.5847  -43.5438 C.3       2 UNK        -0.1800 
     64 N          -1.1922  -14.0726  -45.1141 N.am      2 UNK        -0.5000 
     65 C           0.0157  -13.9046  -45.6653 C.2       1 UNK         0.5000 
     66 O           1.0566  -13.9158  -45.0106 O.2       1 UNK        -0.5000 
     67 C          -1.1515  -21.2584  -47.4806 C.2       11 UNK         0.5000 
     68 O          -1.5855  -21.8910  -48.4429 O.2       11 UNK        -0.5000 
     69 N          -1.6320  -20.0643  -47.1036 N.am      12 UNK        -0.5000 
     70 CA         -2.7501  -19.3771  -47.7495 C.3       12 UNK         0.1400 
     71 CB         -2.9142  -17.9666  -47.1642 C.3       12 UNK        -0.1800 
     72 C          -4.0635  -20.1753  -47.6692 C.2       12 UNK         0.5000 
     73 O          -4.7664  -20.2879  -48.6732 O.2       12 UNK        -0.5000 
     74 N          -4.3451  -20.7537  -46.4932 N.am      13 UNK        -0.5000 
     75 CA         -5.4895  -21.6341  -46.2541 C.3       13 UNK         0.1400 
     76 CB         -5.6338  -21.8831  -44.7451 C.3       13 UNK        -0.1800 
     77 C          -5.3959  -22.9668  -47.0237 C.2       13 UNK         0.5000 
     78 O          -6.4062  -23.4360  -47.5488 O.2       13 UNK        -0.5000 
     79 N          -4.1885  -23.5445  -47.0892 N.am      14 UNK        -0.5000 
     80 CA         -3.8896  -24.7875  -47.8048 C.3       14 UNK         0.1400 
     81 CB         -2.5472  -25.3423  -47.3029 C.3       14 UNK        -0.1800 
     82 C          -3.8547  -24.6335  -49.3379 C.2       14 UNK         0.5000 
     83 O          -3.9064  -25.6444  -50.0398 O.2       14 UNK        -0.5000 
     84 N          -3.7261  -23.3932  -49.8300 N.am      15 UNK        -0.5000 
     85 CA         -3.5999  -22.9556  -51.2262 C.3       15 UNK         0.1400 
     86 CB         -4.7724  -23.4645  -52.0861 C.3       15 UNK        -0.1800 
     87 C          -2.2289  -23.2846  -51.8525 C.2       15 UNK         0.5000 
     88 O          -1.6372  -22.4213  -52.5025 O.2       15 UNK        -0.5000 
     89 N          -1.7308  -24.5036  -51.6048 N.am      16 UNK        -0.5000 
     90 CA         -0.4066  -25.0181  -51.9553 C.3       16 UNK         0.1400 
     91 CB          0.6682  -24.3364  -51.0800 C.3       16 UNK        -0.1800 
     92 C          -0.1313  -24.9454  -53.4720 C.2       16 UNK         0.5000 
     93 O          -0.8580  -25.5743  -54.2427 O.2       16 UNK        -0.5000 
     94 N           0.9079  -24.1995  -53.8734 N.am      17 UNK        -0.5000 
     95 CA          1.3358  -24.0205  -55.2626 C.3       17 UNK         0.1400 
     96 CB          2.6981  -23.3106  -55.2778 C.3       17 UNK        -0.1800 
     97 C           0.3195  -23.2547  -56.1314 C.2       17 UNK         0.5000 
     98 O           0.2550  -23.4954  -57.3374 O.2       17 UNK        -0.5000 
     99 N          -0.4735  -22.3743  -55.5083 N.am      18 UNK        -0.5000 
    100 CA        -1.5864  -21.6623  -56.1299 C.3       18 UNK         0.1400 
    101 CB        -1.5535  -20.1911  -55.6851 C.3       18 UNK        -0.1800 
    102 C         -2.8866  -22.3822  -55.7404 C.2       18 UNK         0.5000 
    103 O         -3.7247  -21.8216  -55.0338 O.2       18 UNK        -0.5000 
    104 N         -3.0002  -23.6415  -56.1863 N.am      19 UNK        -0.5000 
    105 CA        -4.0179  -24.6239  -55.7989 C.3       19 UNK         0.1400 
    106 CB        -3.7417  -25.9390  -56.5428 C.3       19 UNK        -0.1800 
    107 C         -5.4810  -24.1882  -56.0095 C.2       19 UNK         0.5000 
    108 O         -6.3665  -24.7061  -55.3281 O.2       19 UNK        -0.5000 
    109 N         -5.7145  -23.2207  -56.9056 N.am      20 UNK        -0.5000 
    110 CA        -7.0009  -22.5696  -57.1647 C.3       20 UNK         0.1400 
    111 CB        -6.9416  -21.9097  -58.5544 C.3       20 UNK        -0.1800 
    112 C         -7.4081  -21.5765  -56.0481 C.2       20 UNK         0.5000 
    113 O         -7.7759  -20.4374  -56.3386 O.2       20 UNK        -0.5000 
    114 N         -7.3448  -22.0402  -54.7923 N.am      21 UNK        -0.5000 
    115 CA        -7.7197  -21.3543  -53.5527 C.3       21 UNK         0.1400 
    116 CB        -9.2418  -21.0990  -53.5158 C.3       21 UNK        -0.1800 
    117 C         -6.8876  -20.0895  -53.2438 C.2       21 UNK         0.5000 
    118 O         -7.4221  -19.1408  -52.6658 O.2       21 UNK        -0.5000 
    119 N         -5.5923  -20.1045  -53.5934 N.am      22 UNK        -0.5000 
    120 CA        -4.6368  -19.0068  -53.3684 C.3       22 UNK         0.1400 
    121 C         -4.9570  -17.7329  -54.2169 C.2       22 UNK         0.5000 
    122 N         -4.4976  -16.5547  -53.8189 N.am      22 UNK        -0.7600 
    123 O         -5.5777  -17.8049  -55.2750 O.2       22 UNK        -0.5000 
    124 C124       -4.4066  -18.7566  -51.8464 C.3       23 UNK        -0.0398 
    125 S125       -2.8462  -17.9082  -51.4269 S.3       23 UNK        -0.2404 
    126 C126       -1.6289  -19.2727  -51.4143 C.3       23 UNK        -0.0205 
    127 H127       -3.9942  -11.7519  -47.7649 H         1 UNK         0.0600 
    128 H128       -3.6652  -12.4237  -49.3656 H         1 UNK         0.0600 
    129 H129       -2.6485  -11.1298  -48.7251 H         1 UNK         0.0600 
    130 H130       -0.7061  -11.8621  -47.9960 H         1 UNK         0.3000 
    131 H131        0.9896  -13.0266  -47.3176 H         1 UNK         0.0600 
    132 H132       -0.5848  -15.5797  -47.9307 H         1 UNK         0.0800 
    133 H133        1.1170  -15.5166  -47.5612 H         1 UNK         0.0800 
    134 H134        2.7461  -15.7493  -49.3760 H         1 UNK         0.0800 
    135 H135        2.3856  -15.6021  -51.0776 H         1 UNK         0.0800 
    136 H136       -0.4216  -16.7804  -51.1193 H         1 UNK         0.1150 
    137 H137        0.2416  -20.9614  -50.4563 H         1 UNK         0.1150 
    138 H138        3.2080  -18.0934  -49.2902 H         1 UNK         0.1150 
    139 H139        3.2770  -21.1477  -50.2603 H         1 UNK         0.0800 
    140 H140        3.5632  -20.3578  -48.7298 H         1 UNK         0.0800 
    141 H141        1.3702  -20.2684  -47.0861 H         1 UNK         0.0800 
    142 H142        2.0806  -21.5889  -46.1984 H         1 UNK         0.0800 
    143 H143       -0.0542  -22.9541  -46.7927 H         1 UNK         0.0600 
    144 H144        0.3547  -21.1812  -44.6376 H         1 UNK         0.3000 
    145 H145       -2.5867  -22.1053  -42.7907 H         1 UNK         0.0600 
    146 H146       -0.8164  -22.4901  -41.0951 H         1 UNK         0.0600 
    147 H147        0.4159  -22.5419  -42.3525 H         1 UNK         0.0600 
    148 H148       -0.8232  -23.7876  -42.2807 H         1 UNK         0.0600 
    149 H149       -0.5553  -20.2172  -42.2024 H         1 UNK         0.3000 
    150 H150       -2.0325  -17.4108  -43.8897 H         1 UNK         0.0600 
    151 H151       -3.0622  -17.4520  -41.6775 H         1 UNK         0.0600 
    152 H152       -1.5581  -16.5542  -41.5297 H         1 UNK         0.0600 
    153 H153       -1.6567  -18.2119  -40.9538 H         1 UNK         0.0600 
    154 H154        0.4278  -17.6565  -42.4819 H         1 UNK         0.3000 
    155 H155        2.4396  -18.7353  -45.2371 H         1 UNK         0.0600 
    156 H156        3.7471  -16.7230  -44.5428 H         1 UNK         0.0600 
    157 H157        2.3678  -16.2966  -45.5410 H         1 UNK         0.0600 
    158 H158        2.3031  -16.0327  -43.8060 H         1 UNK         0.0600 
    159 H159        2.9119  -18.0780  -42.4568 H         1 UNK         0.3000 
    160 H160        2.5098  -21.4049  -41.2351 H         1 UNK         0.0600 
    161 H161        4.8341  -21.0044  -40.4654 H         1 UNK         0.0600 
    162 H162        5.0313  -19.7032  -41.6397 H         1 UNK         0.0600 
    163 H163        4.8220  -21.3633  -42.1845 H         1 UNK         0.0600 
    164 H164        3.3263  -18.9422  -40.0144 H         1 UNK         0.3000 
    165 H165        0.1005  -17.6496  -39.3038 H         1 UNK         0.0600 
    166 H166        0.8928  -17.7480  -36.9561 H         1 UNK         0.0600 
    167 H167        0.3949  -19.3444  -37.4923 H         1 UNK         0.0600 
    168 H168        2.1072  -18.9534  -37.3855 H         1 UNK         0.0600 
    169 H169        2.7163  -16.8312  -38.5149 H         1 UNK         0.3000 
    170 H170        3.4784  -14.7856  -39.4595 H         1 UNK         0.0600 
    171 H171        4.6157  -16.5158  -41.7506 H         1 UNK         0.0600 
    172 H172        5.5503  -15.4371  -40.7205 H         1 UNK         0.0600 
    173 H173        4.8240  -16.8743  -40.0402 H         1 UNK         0.0600 
    174 H174        2.3259  -14.4172  -42.0259 H         1 UNK         0.3000 
    175 H175        3.9934  -11.2924  -42.6849 H         1 UNK         0.0600 
    176 H176        3.6268  -13.8308  -44.3571 H         1 UNK         0.0600 
    177 H177        3.7652  -12.1964  -45.0030 H         1 UNK         0.0600 
    178 H178        5.1162  -12.9241  -44.1463 H         1 UNK         0.0600 
    179 H179        1.5723  -12.5484  -43.6501 H         1 UNK         0.3000 
    180 H180       -0.6241  -10.9881  -41.3962 H         1 UNK         0.0600 
    181 H181       -1.4436   -9.5143  -43.2227 H         1 UNK         0.0600 
    182 H182        0.0908   -9.6813  -44.0774 H         1 UNK         0.0600 
    183 H183        0.0276   -8.8590  -42.5233 H         1 UNK         0.0600 
    184 H184       -0.9186  -11.9141  -44.1207 H         1 UNK         0.3000 
    185 H185       -0.9571  -15.3119  -43.4825 H         1 UNK         0.0600 
    186 H186       -3.5392  -13.6779  -43.7897 H         1 UNK         0.0600 
    187 H187       -3.3508  -15.3831  -44.1898 H         1 UNK         0.0600 
    188 H188       -3.2376  -14.8544  -42.5176 H         1 UNK         0.0600 
    189 H189       -1.9856  -14.0715  -45.7494 H         1 UNK         0.3000 
    190 H190       -1.1762  -19.5682  -46.3419 H         1 UNK         0.3000 
    191 H191       -2.4957  -19.2661  -48.8006 H         1 UNK         0.0600 
    192 H192       -1.9966  -17.3887  -47.2696 H         1 UNK         0.0600 
    193 H193       -3.1739  -17.9907  -46.1066 H         1 UNK         0.0600 
    194 H194       -3.7015  -17.4191  -47.6838 H         1 UNK         0.0600 
    195 H195       -3.7351  -20.5698  -45.7020 H         1 UNK         0.3000 
    196 H196       -6.3868  -21.1158  -46.5982 H         1 UNK         0.0600 
    197 H197       -5.7710  -20.9472  -44.2030 H         1 UNK         0.0600 
    198 H198       -4.7560  -22.3811  -44.3325 H         1 UNK         0.0600 
    199 H199       -6.4990  -22.5126  -44.5337 H         1 UNK         0.0600 
    200 H200       -3.4213  -23.1309  -46.5663 H         1 UNK         0.3000 
    201 H201       -4.6682  -25.5152  -47.5678 H         1 UNK         0.0600 
    202 H202       -2.5722  -25.5253  -46.2286 H         1 UNK         0.0600 
    203 H203       -1.7281  -24.6520  -47.5075 H         1 UNK         0.0600 
    204 H204       -2.3068  -26.2896  -47.7872 H         1 UNK         0.0600 
    205 H205       -3.5780  -22.6584  -49.1486 H         1 UNK         0.3000 
    206 H206       -3.6734  -21.8697  -51.1902 H         1 UNK         0.0600 
    207 H207       -4.7039  -24.5340  -52.2851 H         1 UNK         0.0600 
    208 H208       -5.7279  -23.2754  -51.5977 H         1 UNK         0.0600 
    209 H209       -4.7968  -22.9595  -53.0487 H         1 UNK         0.0600 
    210 H210       -2.3341  -25.1418  -51.0956 H         1 UNK         0.3000 
    211 H211       -0.4131  -26.0785  -51.7001 H         1 UNK         0.0600 
    212 H212        0.7307  -23.2633  -51.2637 H         1 UNK         0.0600 
    213 H213        1.6554  -24.7663  -51.2536 H         1 UNK         0.0600 
    214 H214        0.4450  -24.4708  -50.0213 H         1 UNK         0.0600 
    215 H215        1.4414  -23.7083  -53.1712 H         1 UNK         0.3000 
    216 H216        1.4620  -25.0113  -55.7039 H         1 UNK         0.0600 
    217 H217        3.0613  -23.1837  -56.2986 H         1 UNK         0.0600 
    218 H218        3.4495  -23.8857  -54.7365 H         1 UNK         0.0600 
    219 H219        2.6406  -22.3202  -54.8243 H         1 UNK         0.0600 
    220 H220       -0.4202  -22.3074  -54.4988 H         1 UNK         0.3000 
    221 H221       -1.5085  -21.6829  -57.2188 H         1 UNK         0.0600 
    222 H222       -1.5928  -20.1045  -54.6016 H         1 UNK         0.0600 
    223 H223       -0.6426  -19.6985  -56.0253 H         1 UNK         0.0600 
    224 H224       -2.3983  -19.6361  -56.0951 H         1 UNK         0.0600 
    225 H225       -2.2427  -24.0014  -56.7498 H         1 UNK         0.3000 
    226 H226       -3.8896  -24.8069  -54.7305 H         1 UNK         0.0600 
    227 H227       -2.7474  -26.3217  -56.3108 H         1 UNK         0.0600 
    228 H228       -4.4583  -26.7101  -56.2566 H         1 UNK         0.0600 
    229 H229       -3.8099  -25.8108  -57.6238 H         1 UNK         0.0600 
    230 H230       -4.9162  -22.8305  -57.3837 H         1 UNK         0.3000 
    231 H231       -7.7743  -23.3396  -57.1984 H         1 UNK         0.0600 
    232 H232       -7.9028  -21.4684  -58.8212 H         1 UNK         0.0600 
    233 H233       -6.6973  -22.6386  -59.3273 H         1 UNK         0.0600 
    234 H234       -6.1931  -21.1172  -58.5908 H         1 UNK         0.0600 
    235 H235       -7.0285  -22.9996  -54.6860 H         1 UNK         0.3000 
    236 H236       -7.4957  -22.0550  -52.7482 H         1 UNK         0.0600 
    237 H237       -9.5452  -20.3555  -54.2534 H         1 UNK         0.0600 
    238 H238       -9.8004  -22.0142  -53.7119 H         1 UNK         0.0600 
    239 H239       -9.5552  -20.7347  -52.5368 H         1 UNK         0.0600 
    240 H240       -5.2210  -20.8911  -54.1175 H         1 UNK         0.3000 
    241 H241       -3.6998  -19.3803  -53.7776 H         1 UNK         0.0600 
    242 H242       -3.9484  -16.4782  -52.9746 H         1 UNK         0.3800 
    243 H243       -4.6852  -15.7348  -54.3741 H         1 UNK         0.3800 
    244 H244       -4.4223  -19.7014  -51.3048 H         1 UNK         0.0800 
    245 H245       -5.2302  -18.1750  -51.4298 H         1 UNK         0.0800 
    246 H246       -2.0450  -20.1166  -50.8636 H         1 UNK         0.0800 
    247 H247       -1.4753  -19.6199  -52.4337 H         1 UNK         0.0800 
@<TRIPOS>BOND
     1    1    2 1    
     2    1  127 1    
     3    1  128 1    
     4    1  129 1    
     5    2    3 2    
     6    2    4 am   BACKBONE|DICT|INTERRES
     7    4    5 1    
     8    4  130 1    
     9    5    6 1    
    10    5   65 1    
    11    5  131 1    
    12    6    7 1    
    13    6  132 1    
    14    6  133 1    
    15    7    8 1    
    16    8    9 1    
    17    8  134 1    
    18    8  135 1    
    19    9   10 ar   
    20    9   14 ar   
    21   10   11 ar   
    22   10  136 1    
    23   11   12 ar   
    24   11  126 1    
    25   12   13 ar   
    26   12  137 1    
    27   13   14 ar   
    28   13   15 1    
    29   14  138 1    
    30   15   16 1    
    31   15  139 1    
    32   15  140 1    
    33   16   17 1    
    34   17   18 1    
    35   17  141 1    
    36   17  142 1    
    37   18   19 1    
    38   18   67 1    
    39   18  143 1    
    40   19   20 am   BACKBONE|DICT|INTERRES
    41   19  144 1    
    42   20   21 2    
    43   20   22 1    
    44   22   23 1    
    45   22   24 1    
    46   22  145 1    
    47   23  146 1    
    48   23  147 1    
    49   23  148 1    
    50   24   25 am   BACKBONE|DICT|INTERRES
    51   24  149 1    
    52   25   26 2    
    53   25   27 1    
    54   27   28 1    
    55   27   29 1    
    56   27  150 1    
    57   28  151 1    
    58   28  152 1    
    59   28  153 1    
    60   29   30 am   BACKBONE|DICT|INTERRES
    61   29  154 1    
    62   30   31 2    
    63   30   32 1    
    64   32   33 1    
    65   32   34 1    
    66   32  155 1    
    67   33  156 1    
    68   33  157 1    
    69   33  158 1    
    70   34   35 am   BACKBONE|DICT|INTERRES
    71   34  159 1    
    72   35   36 2    
    73   35   37 1    
    74   37   38 1    
    75   37   39 1    
    76   37  160 1    
    77   38  161 1    
    78   38  162 1    
    79   38  163 1    
    80   39   40 am   BACKBONE|DICT|INTERRES
    81   39  164 1    
    82   40   41 2    
    83   40   42 1    
    84   42   43 1    
    85   42   44 1    
    86   42  165 1    
    87   43  166 1    
    88   43  167 1    
    89   43  168 1    
    90   44   45 am   BACKBONE|DICT|INTERRES
    91   44  169 1    
    92   45   46 2    
    93   45   47 1    
    94   47   48 1    
    95   47   49 1    
    96   47  170 1    
    97   48  171 1    
    98   48  172 1    
    99   48  173 1    
   100   49   50 am   BACKBONE|DICT|INTERRES
   101   49  174 1    
   102   50   51 2    
   103   50   52 1    
   104   52   53 1    
   105   52   54 1    
   106   52  175 1    
   107   53  176 1    
   108   53  177 1    
   109   53  178 1    
   110   54   55 am   BACKBONE|DICT|INTERRES
   111   54  179 1    
   112   55   56 2    
   113   55   57 1    
   114   57   58 1    
   115   57   59 1    
   116   57  180 1    
   117   58  181 1    
   118   58  182 1    
   119   58  183 1    
   120   59   60 am   BACKBONE|DICT|INTERRES
   121   59  184 1    
   122   60   61 2    
   123   60   62 1    
   124   62   63 1    
   125   62   64 1    
   126   62  185 1    
   127   63  186 1    
   128   63  187 1    
   129   63  188 1    
   130   64   65 am   BACKBONE|DICT|INTERRES
   131   64  189 1    
   132   65   66 2    
   133   67   68 2    
   134   67   69 am   BACKBONE|DICT|INTERRES
   135   69   70 1    
   136   69  190 1    
   137   70   71 1    
   138   70   72 1    
   139   70  191 1    
   140   71  192 1    
   141   71  193 1    
   142   71  194 1    
   143   72   73 2    
   144   72   74 am   BACKBONE|DICT|INTERRES
   145   74   75 1    
   146   74  195 1    
   147   75   76 1    
   148   75   77 1    
   149   75  196 1    
   150   76  197 1    
   151   76  198 1    
   152   76  199 1    
   153   77   78 2    
   154   77   79 am   BACKBONE|DICT|INTERRES
   155   79   80 1    
   156   79  200 1    
   157   80   81 1    
   158   80   82 1    
   159   80  201 1    
   160   81  202 1    
   161   81  203 1    
   162   81  204 1    
   163   82   83 2    
   164   82   84 am   BACKBONE|DICT|INTERRES
   165   84   85 1    
   166   84  205 1    
   167   85   86 1    
   168   85   87 1    
   169   85  206 1    
   170   86  207 1    
   171   86  208 1    
   172   86  209 1    
   173   87   88 2    
   174   87   89 am   BACKBONE|DICT|INTERRES
   175   89   90 1    
   176   89  210 1    
   177   90   91 1    
   178   90   92 1    
   179   90  211 1    
   180   91  212 1    
   181   91  213 1    
   182   91  214 1    
   183   92   93 2    
   184   92   94 am   BACKBONE|DICT|INTERRES
   185   94   95 1    
   186   94  215 1    
   187   95   96 1    
   188   95   97 1    
   189   95  216 1    
   190   96  217 1    
   191   96  218 1    
   192   96  219 1    
   193   97   98 2    
   194   97   99 am   BACKBONE|DICT|INTERRES
   195   99  100 1    
   196   99  220 1    
   197  100  101 1    
   198  100  102 1    
   199  100  221 1    
   200  101  222 1    
   201  101  223 1    
   202  101  224 1    
   203  102  103 2    
   204  102  104 am   BACKBONE|DICT|INTERRES
   205  104  105 1    
   206  104  225 1    
   207  105  106 1    
   208  105  107 1    
   209  105  226 1    
   210  106  227 1    
   211  106  228 1    
   212  106  229 1    
   213  107  108 2    
   214  107  109 am   BACKBONE|DICT|INTERRES
   215  109  110 1    
   216  109  230 1    
   217  110  111 1    
   218  110  112 1    
   219  110  231 1    
   220  111  232 1    
   221  111  233 1    
   222  111  234 1    
   223  112  113 2    
   224  112  114 am   BACKBONE|DICT|INTERRES
   225  114  115 1    
   226  114  235 1    
   227  115  116 1    
   228  115  117 1    
   229  115  236 1    
   230  116  237 1    
   231  116  238 1    
   232  116  239 1    
   233  117  118 2    
   234  117  119 am   BACKBONE|DICT|INTERRES
   235  119  120 1    
   236  119  240 1    
   237  120  121 1    
   238  120  124 1    
   239  120  241 1    
   240  121  122 am   BACKBONE|DICT|INTERRES
   241  121  123 2    
   242  122  242 1    
   243  122  243 1    
   244  124  125 1    
   245  124  244 1    
   246  124  245 1    
   247  125  126 1    
   248  126  246 1    
   249  126  247 1    
@<TRIPOS>SUBSTRUCTURE
     1 UNK         1 GROUP             0       ****    0 ROOT    
