@<TRIPOS>MOLECULE
3R540
247   249    1
SMALL
USER_CHARGES


@<TRIPOS>ATOM
      1 CA         -2.6285  -15.1419  -44.9451 C.3       0 UNK        -0.1800 
      2 C          -3.2363  -13.7676  -45.1680 C.2       0 UNK         0.5000 
      3 O          -3.4041  -13.0137  -44.2093 O.2       0 UNK        -0.5000 
      4 N          -3.5649  -13.4346  -46.4241 N.am      1 UNK        -0.5000 
      5 CA         -4.0597  -12.1064  -46.8149 C.3       1 UNK         0.1400 
      6 C6         -4.7818  -12.1070  -48.1837 C.3       23 UNK        -0.0398 
      7 S7         -6.1778  -13.2829  -48.2448 S.3       23 UNK        -0.2404 
      8 C8         -5.7395  -14.3215  -49.6751 C.3       23 UNK        -0.0205 
      9 C9         -4.5428  -15.2189  -49.3969 C.ar      23 UNK        -0.0193 
     10 C10        -3.2746  -14.8736  -49.8721 C.ar      23 UNK        -0.1150 
     11 C11        -2.1762  -15.7106  -49.6517 C.ar      23 UNK        -0.0193 
     12 C12        -2.3553  -16.8949  -48.9313 C.ar      23 UNK        -0.1150 
     13 C13        -3.6185  -17.2513  -48.4481 C.ar      23 UNK        -0.0193 
     14 C14        -4.7088  -16.4105  -48.6864 C.ar      23 UNK        -0.1150 
     15 C15        -3.8081  -18.5559  -47.6917 C.3       23 UNK        -0.0205 
     16 S16        -3.9085  -18.2610  -45.8971 S.3       23 UNK        -0.2404 
     17 C17        -3.8454  -19.9002  -45.0869 C.3       23 UNK        -0.0398 
     18 CA         -3.2955  -21.0939  -45.9062 C.3       11 UNK         0.1400 
     19 N          -1.8948  -20.9117  -46.3104 N.am      11 UNK        -0.5000 
     20 C          -1.2571  -21.6934  -47.1933 C.2       10 UNK         0.5000 
     21 O          -1.7862  -22.6597  -47.7394 O.2       10 UNK        -0.5000 
     22 CA          0.2262  -21.3882  -47.4682 C.3       10 UNK         0.1400 
     23 CB          0.3802  -20.3264  -48.5697 C.3       10 UNK        -0.1800 
     24 N           0.9534  -20.9757  -46.2664 N.am      10 UNK        -0.5000 
     25 C           1.1584  -21.7627  -45.1997 C.2       9 UNK         0.5000 
     26 O           0.7994  -22.9383  -45.1451 O.2       9 UNK        -0.5000 
     27 CA          1.8383  -21.1263  -43.9728 C.3       9 UNK         0.1400 
     28 CB          3.3660  -21.1368  -44.1281 C.3       9 UNK        -0.1800 
     29 N           1.3803  -19.7607  -43.7190 N.am      9 UNK        -0.5000 
     30 C           0.1281  -19.4266  -43.3745 C.2       8 UNK         0.5000 
     31 O          -0.7647  -20.2462  -43.1565 O.2       8 UNK        -0.5000 
     32 CA         -0.1921  -17.9203  -43.3193 C.3       8 UNK         0.1400 
     33 CB          0.2119  -17.3157  -41.9667 C.3       8 UNK        -0.1800 
     34 N           0.4492  -17.1720  -44.4024 N.am      8 UNK        -0.5000 
     35 C           0.1755  -17.3534  -45.7019 C.2       7 UNK         0.5000 
     36 O          -0.6585  -18.1544  -46.1168 O.2       7 UNK        -0.5000 
     37 CA          1.0210  -16.5546  -46.7050 C.3       7 UNK         0.1400 
     38 CB          0.5273  -15.1059  -46.8220 C.3       7 UNK        -0.1800 
     39 N           2.4375  -16.5720  -46.3421 N.am      7 UNK        -0.5000 
     40 C           3.2176  -17.6589  -46.4491 C.2       6 UNK         0.5000 
     41 O           2.8272  -18.7325  -46.9054 O.2       6 UNK        -0.5000 
     42 CA          4.6629  -17.5481  -45.9266 C.3       6 UNK         0.1400 
     43 CB          5.6016  -17.0684  -47.0434 C.3       6 UNK        -0.1800 
     44 N           4.7951  -16.6571  -44.7746 N.am      6 UNK        -0.5000 
     45 C           4.1922  -16.8305  -43.5898 C.2       5 UNK         0.5000 
     46 O           3.4990  -17.8092  -43.3143 O.2       5 UNK        -0.5000 
     47 CA          4.3480  -15.6945  -42.5597 C.3       5 UNK         0.1400 
     48 CB          5.4741  -16.0201  -41.5678 C.3       5 UNK        -0.1800 
     49 N           4.6018  -14.3817  -43.1660 N.am      5 UNK        -0.5000 
     50 C           3.7502  -13.7383  -43.9761 C.2       4 UNK         0.5000 
     51 O           2.6597  -14.1973  -44.3222 O.2       4 UNK        -0.5000 
     52 CA          4.2356  -12.3985  -44.5575 C.3       4 UNK         0.1400 
     53 CB          4.7596  -12.6040  -45.9877 C.3       4 UNK        -0.1800 
     54 N           3.1757  -11.3925  -44.5832 N.am      4 UNK        -0.5000 
     55 C           2.6217  -10.8305  -43.5002 C.2       3 UNK         0.5000 
     56 O           2.9841  -11.0724  -42.3477 O.2       3 UNK        -0.5000 
     57 CA          1.4928   -9.8042  -43.7340 C.3       3 UNK         0.1400 
     58 CB          2.0100   -8.3760  -43.4985 C.3       3 UNK        -0.1800 
     59 N           0.8876   -9.8697  -45.0685 N.am      3 UNK        -0.5000 
     60 C           0.0704  -10.8457  -45.4819 C.2       2 UNK         0.5000 
     61 O          -0.2317  -11.8207  -44.7909 O.2       2 UNK        -0.5000 
     62 CA         -0.4683  -10.7188  -46.9181 C.3       2 UNK         0.1400 
     63 CB          0.5712  -11.2238  -47.9313 C.3       2 UNK        -0.1800 
     64 N          -1.6910  -11.5035  -47.0672 N.am      2 UNK        -0.5000 
     65 C          -2.9267  -11.0565  -46.8044 C.2       1 UNK         0.5000 
     66 O          -3.1896   -9.8801  -46.5498 O.2       1 UNK        -0.5000 
     67 C          -3.5459  -22.4162  -45.1444 C.2       11 UNK         0.5000 
     68 O          -4.6890  -22.8707  -45.1031 O.2       11 UNK        -0.5000 
     69 N          -2.4946  -23.0159  -44.5679 N.am      12 UNK        -0.5000 
     70 CA         -2.5582  -24.2893  -43.8491 C.3       12 UNK         0.1400 
     71 CB         -1.3655  -24.3773  -42.8834 C.3       12 UNK        -0.1800 
     72 C          -2.6084  -25.5245  -44.7743 C.2       12 UNK         0.5000 
     73 O          -2.8525  -26.6256  -44.2773 O.2       12 UNK        -0.5000 
     74 N          -2.3676  -25.3476  -46.0828 N.am      13 UNK        -0.5000 
     75 CA         -2.4358  -26.4109  -47.0884 C.3       13 UNK         0.1400 
     76 CB         -1.7839  -25.9127  -48.3844 C.3       13 UNK        -0.1800 
     77 C          -3.8769  -26.8925  -47.3503 C.2       13 UNK         0.5000 
     78 O          -4.8358  -26.1873  -47.0283 O.2       13 UNK        -0.5000 
     79 N          -3.9955  -28.0783  -47.9649 N.am      14 UNK        -0.5000 
     80 CA         -5.2400  -28.8292  -48.1843 C.3       14 UNK         0.1400 
     81 CB         -4.9067  -30.1296  -48.9321 C.3       14 UNK        -0.1800 
     82 C          -6.3681  -28.0716  -48.9145 C.2       14 UNK         0.5000 
     83 O          -7.5405  -28.3466  -48.6548 O.2       14 UNK        -0.5000 
     84 N          -5.9999  -27.1296  -49.7901 N.am      15 UNK        -0.5000 
     85 CA         -6.9170  -26.2088  -50.4648 C.3       15 UNK         0.1400 
     86 CB         -7.0897  -26.6314  -51.9354 C.3       15 UNK        -0.1800 
     87 C          -6.4330  -24.7541  -50.3208 C.2       15 UNK         0.5000 
     88 O          -6.7511  -23.9188  -51.1683 O.2       15 UNK        -0.5000 
     89 N          -5.6599  -24.4704  -49.2603 N.am      16 UNK        -0.5000 
     90 CA         -5.0496  -23.1771  -48.9448 C.3       16 UNK         0.1400 
     91 CB         -6.1387  -22.1934  -48.4565 C.3       16 UNK        -0.1800 
     92 C          -4.1936  -22.6500  -50.1186 C.2       16 UNK         0.5000 
     93 O          -3.3787  -23.4011  -50.6618 O.2       16 UNK        -0.5000 
     94 N          -4.4264  -21.3987  -50.5354 N.am      17 UNK        -0.5000 
     95 CA         -3.7485  -20.7463  -51.6563 C.3       17 UNK         0.1400 
     96 CB         -4.1487  -19.2642  -51.6964 C.3       17 UNK        -0.1800 
     97 C          -3.9951  -21.4085  -53.0273 C.2       17 UNK         0.5000 
     98 O          -3.2035  -21.1812  -53.9389 O.2       17 UNK        -0.5000 
     99 N          -5.0461  -22.2309  -53.1692 N.am      18 UNK        -0.5000 
    100 CA        -5.2824  -23.0147  -54.3856 C.3       18 UNK         0.1400 
    101 CB        -6.7576  -23.4353  -54.4630 C.3       18 UNK        -0.1800 
    102 C         -4.3516  -24.2405  -54.4883 C.2       18 UNK         0.5000 
    103 O         -4.1311  -24.7303  -55.5965 O.2       18 UNK        -0.5000 
    104 N         -3.8150  -24.7049  -53.3503 N.am      19 UNK        -0.5000 
    105 CA        -2.8348  -25.7868  -53.2795 C.3       19 UNK         0.1400 
    106 CB        -3.1221  -26.6675  -52.0502 C.3       19 UNK        -0.1800 
    107 C         -1.4039  -25.2298  -53.2204 C.2       19 UNK         0.5000 
    108 O         -0.5446  -25.6749  -53.9818 O.2       19 UNK        -0.5000 
    109 N         -1.1701  -24.2816  -52.3046 N.am      20 UNK        -0.5000 
    110 CA         0.1618  -23.7749  -51.9674 C.3       20 UNK         0.1400 
    111 CB         0.1585  -23.3785  -50.4867 C.3       20 UNK        -0.1800 
    112 C          0.6419  -22.5941  -52.8308 C.2       20 UNK         0.5000 
    113 O          1.8206  -22.2460  -52.7440 O.2       20 UNK        -0.5000 
    114 N         -0.2602  -21.9952  -53.6220 N.am      21 UNK        -0.5000 
    115 CA        -0.0911  -20.7424  -54.3703 C.3       21 UNK         0.1400 
    116 CB         1.1004  -20.8186  -55.3522 C.3       21 UNK        -0.1800 
    117 C         -0.0269  -19.5070  -53.4422 C.2       21 UNK         0.5000 
    118 O         -0.1946  -19.6194  -52.2254 O.2       21 UNK        -0.5000 
    119 N          0.1925  -18.3369  -54.0465 N.am      22 UNK        -0.5000 
    120 CA         0.3691  -17.0403  -53.3819 C.3       22 UNK         0.1400 
    121 C          1.0423  -16.0507  -54.3711 C.2       22 UNK         0.5000 
    122 N          0.5290  -15.9035  -55.5881 N.am      22 UNK        -0.7600 
    123 O          2.0577  -15.4398  -54.0502 O.2       22 UNK        -0.5000 
    124 C124       -0.9506  -16.4961  -52.7603 C.3       23 UNK        -0.0398 
    125 S125       -0.7767  -14.8758  -51.9298 S.3       23 UNK        -0.2404 
    126 C126       -0.7925  -15.3262  -50.1639 C.3       23 UNK        -0.0205 
    127 H127       -2.4997  -15.6809  -45.8834 H         1 UNK         0.0600 
    128 H128       -3.2673  -15.7358  -44.2919 H         1 UNK         0.0600 
    129 H129       -1.6519  -15.0451  -44.4711 H         1 UNK         0.0600 
    130 H130       -3.4761  -14.1137  -47.1674 H         1 UNK         0.3000 
    131 H131       -4.7896  -11.7903  -46.0663 H         1 UNK         0.0600 
    132 H132       -5.1855  -11.1148  -48.3933 H         1 UNK         0.0800 
    133 H133       -4.0788  -12.3162  -48.9899 H         1 UNK         0.0800 
    134 H134       -5.5537  -13.6873  -50.5434 H         1 UNK         0.0800 
    135 H135       -6.5998  -14.9406  -49.9338 H         1 UNK         0.0800 
    136 H136       -3.1411  -13.9572  -50.4294 H         1 UNK         0.1150 
    137 H137       -1.5120  -17.5447  -48.7463 H         1 UNK         0.1150 
    138 H138       -5.6875  -16.6843  -48.3179 H         1 UNK         0.1150 
    139 H139       -4.7194  -19.0483  -48.0308 H         1 UNK         0.0800 
    140 H140       -2.9812  -19.2210  -47.9324 H         1 UNK         0.0800 
    141 H141       -4.8671  -20.1106  -44.7648 H         1 UNK         0.0800 
    142 H142       -3.2675  -19.7857  -44.1685 H         1 UNK         0.0800 
    143 H143       -3.8814  -21.1701  -46.8206 H         1 UNK         0.0600 
    144 H144       -1.4134  -20.0979  -45.9402 H         1 UNK         0.3000 
    145 H145        0.6836  -22.3125  -47.8253 H         1 UNK         0.0600 
    146 H146        0.0385  -19.3470  -48.2435 H         1 UNK         0.0600 
    147 H147        1.4211  -20.2290  -48.8779 H         1 UNK         0.0600 
    148 H148       -0.1973  -20.5826  -49.4578 H         1 UNK         0.0600 
    149 H149        1.3229  -20.0318  -46.2621 H         1 UNK         0.3000 
    150 H150        1.5816  -21.7307  -43.1003 H         1 UNK         0.0600 
    151 H151        3.7365  -22.1532  -44.2665 H         1 UNK         0.0600 
    152 H152        3.8558  -20.7285  -43.2438 H         1 UNK         0.0600 
    153 H153        3.6870  -20.5510  -44.9891 H         1 UNK         0.0600 
    154 H154        2.0721  -19.0220  -43.8090 H         1 UNK         0.3000 
    155 H155       -1.2727  -17.8081  -43.4332 H         1 UNK         0.0600 
    156 H156       -0.2858  -17.8333  -41.1457 H         1 UNK         0.0600 
    157 H157        1.2862  -17.3869  -41.7952 H         1 UNK         0.0600 
    158 H158       -0.0688  -16.2640  -41.9059 H         1 UNK         0.0600 
    159 H159        1.1700  -16.5131  -44.1446 H         1 UNK         0.3000 
    160 H160        0.9123  -17.0246  -47.6847 H         1 UNK         0.0600 
    161 H161        1.1237  -14.5535  -47.5469 H         1 UNK         0.0600 
    162 H162       -0.5089  -15.0742  -47.1573 H         1 UNK         0.0600 
    163 H163        0.5762  -14.5757  -45.8706 H         1 UNK         0.0600 
    164 H164        2.8023  -15.7398  -45.8960 H         1 UNK         0.3000 
    165 H165        4.9810  -18.5450  -45.6155 H         1 UNK         0.0600 
    166 H166        6.6401  -17.0641  -46.7118 H         1 UNK         0.0600 
    167 H167        5.5420  -17.7255  -47.9121 H         1 UNK         0.0600 
    168 H168        5.3501  -16.0604  -47.3760 H         1 UNK         0.0600 
    169 H169        5.3509  -15.8257  -44.9064 H         1 UNK         0.3000 
    170 H170        3.4100  -15.6296  -42.0042 H         1 UNK         0.0600 
    171 H171        5.3003  -16.9812  -41.0816 H         1 UNK         0.0600 
    172 H172        6.4444  -16.0736  -42.0631 H         1 UNK         0.0600 
    173 H173        5.5380  -15.2675  -40.7817 H         1 UNK         0.0600 
    174 H174        5.4843  -13.9468  -42.9374 H         1 UNK         0.3000 
    175 H175        5.0508  -12.0162  -43.9395 H         1 UNK         0.0600 
    176 H176        3.9774  -12.9700  -46.6546 H         1 UNK         0.0600 
    177 H177        5.1466  -11.6736  -46.4039 H         1 UNK         0.0600 
    178 H178        5.5735  -13.3298  -46.0073 H         1 UNK         0.0600 
    179 H179        2.7958  -11.1571  -45.4868 H         1 UNK         0.3000 
    180 H180        0.7142  -10.0082  -42.9957 H         1 UNK         0.0600 
    181 H181        2.7859   -8.1057  -44.2159 H         1 UNK         0.0600 
    182 H182        2.4368   -8.2733  -42.4998 H         1 UNK         0.0600 
    183 H183        1.2051   -7.6454  -43.5815 H         1 UNK         0.0600 
    184 H184        1.1001   -9.1062  -45.6947 H         1 UNK         0.3000 
    185 H185       -0.6773   -9.6674  -47.1270 H         1 UNK         0.0600 
    186 H186        0.1859  -11.1745  -48.9500 H         1 UNK         0.0600 
    187 H187        1.4776  -10.6182  -47.8987 H         1 UNK         0.0600 
    188 H188        0.8605  -12.2550  -47.7325 H         1 UNK         0.0600 
    189 H189       -1.5673  -12.4974  -47.1857 H         1 UNK         0.3000 
    190 H190       -1.5813  -22.5895  -44.6551 H         1 UNK         0.3000 
    191 H191       -3.4708  -24.2995  -43.2495 H         1 UNK         0.0600 
    192 H192       -0.4195  -24.4656  -43.4170 H         1 UNK         0.0600 
    193 H193       -1.4539  -25.2498  -42.2350 H         1 UNK         0.0600 
    194 H194       -1.3090  -23.4988  -42.2400 H         1 UNK         0.0600 
    195 H195       -2.1934  -24.4115  -46.4270 H         1 UNK         0.3000 
    196 H196       -1.8579  -27.2605  -46.7186 H         1 UNK         0.0600 
    197 H197       -1.7424  -26.6983  -49.1392 H         1 UNK         0.0600 
    198 H198       -0.7599  -25.5919  -48.1963 H         1 UNK         0.0600 
    199 H199       -2.3285  -25.0715  -48.8132 H         1 UNK         0.0600 
    200 H200       -3.1485  -28.5675  -48.2165 H         1 UNK         0.3000 
    201 H201       -5.6259  -29.0958  -47.1984 H         1 UNK         0.0600 
    202 H202       -4.2038  -30.7423  -48.3675 H         1 UNK         0.0600 
    203 H203       -4.4684  -29.9285  -49.9106 H         1 UNK         0.0600 
    204 H204       -5.8025  -30.7314  -49.0915 H         1 UNK         0.0600 
    205 H205       -5.0141  -26.9715  -49.9379 H         1 UNK         0.3000 
    206 H206       -7.8986  -26.2417  -49.9883 H         1 UNK         0.0600 
    207 H207       -7.3480  -27.6873  -52.0168 H         1 UNK         0.0600 
    208 H208       -7.8938  -26.0667  -52.4081 H         1 UNK         0.0600 
    209 H209       -6.1855  -26.4588  -52.5179 H         1 UNK         0.0600 
    210 H210       -5.4724  -25.2063  -48.5855 H         1 UNK         0.3000 
    211 H211       -4.3609  -23.3558  -48.1187 H         1 UNK         0.0600 
    212 H212       -6.8895  -21.9978  -49.2230 H         1 UNK         0.0600 
    213 H213       -5.7195  -21.2352  -48.1547 H         1 UNK         0.0600 
    214 H214       -6.6568  -22.5970  -47.5863 H         1 UNK         0.0600 
    215 H215       -5.1504  -20.8660  -50.0775 H         1 UNK         0.3000 
    216 H216       -2.6743  -20.8010  -51.4654 H         1 UNK         0.0600 
    217 H217       -3.6414  -18.7431  -52.5096 H         1 UNK         0.0600 
    218 H218       -3.8719  -18.7580  -50.7737 H         1 UNK         0.0600 
    219 H219       -5.2221  -19.1389  -51.8426 H         1 UNK         0.0600 
    220 H220       -5.6543  -22.4174  -52.3803 H         1 UNK         0.3000 
    221 H221       -5.0813  -22.3789  -55.2507 H         1 UNK         0.0600 
    222 H222       -7.0143  -24.1632  -53.6958 H         1 UNK         0.0600 
    223 H223       -7.4219  -22.5783  -54.3520 H         1 UNK         0.0600 
    224 H224       -6.9772  -23.8946  -55.4275 H         1 UNK         0.0600 
    225 H225       -4.0095  -24.2147  -52.4854 H         1 UNK         0.3000 
    226 H226       -2.9069  -26.4228  -54.1644 H         1 UNK         0.0600 
    227 H227       -4.0472  -27.2274  -52.1763 H         1 UNK         0.0600 
    228 H228       -2.3277  -27.3993  -51.8975 H         1 UNK         0.0600 
    229 H229       -3.2047  -26.0780  -51.1372 H         1 UNK         0.0600 
    230 H230       -1.9338  -23.9716  -51.7079 H         1 UNK         0.3000 
    231 H231        0.8938  -24.5756  -52.0934 H         1 UNK         0.0600 
    232 H232        1.0977  -22.9064  -50.1958 H         1 UNK         0.0600 
    233 H233        0.0286  -24.2513  -49.8515 H         1 UNK         0.0600 
    234 H234       -0.6504  -22.6820  -50.2678 H         1 UNK         0.0600 
    235 H235       -1.2092  -22.3419  -53.5938 H         1 UNK         0.3000 
    236 H236       -0.9881  -20.6277  -54.9776 H         1 UNK         0.0600 
    237 H237        1.0559  -20.0169  -56.0897 H         1 UNK         0.0600 
    238 H238        1.0969  -21.7584  -55.9045 H         1 UNK         0.0600 
    239 H239        2.0597  -20.7334  -54.8412 H         1 UNK         0.0600 
    240 H240        0.3538  -18.3238  -55.0438 H         1 UNK         0.3000 
    241 H241        1.0772  -17.1930  -52.5646 H         1 UNK         0.0600 
    242 H242       -0.3297  -16.3543  -55.8621 H         1 UNK         0.3800 
    243 H243        0.9782  -15.2704  -56.2318 H         1 UNK         0.3800 
    244 H244       -1.3541  -17.2137  -52.0451 H         1 UNK         0.0800 
    245 H245       -1.7119  -16.3937  -53.5347 H         1 UNK         0.0800 
    246 H246       -0.0722  -16.1281  -49.9941 H         1 UNK         0.0800 
    247 H247       -0.4409  -14.4670  -49.5922 H         1 UNK         0.0800 
@<TRIPOS>BOND
     1    1    2 1    
     2    1  127 1    
     3    1  128 1    
     4    1  129 1    
     5    2    3 2    
     6    2    4 am   BACKBONE|DICT|INTERRES
     7    4    5 1    
     8    4  130 1    
     9    5    6 1    
    10    5   65 1    
    11    5  131 1    
    12    6    7 1    
    13    6  132 1    
    14    6  133 1    
    15    7    8 1    
    16    8    9 1    
    17    8  134 1    
    18    8  135 1    
    19    9   10 ar   
    20    9   14 ar   
    21   10   11 ar   
    22   10  136 1    
    23   11   12 ar   
    24   11  126 1    
    25   12   13 ar   
    26   12  137 1    
    27   13   14 ar   
    28   13   15 1    
    29   14  138 1    
    30   15   16 1    
    31   15  139 1    
    32   15  140 1    
    33   16   17 1    
    34   17   18 1    
    35   17  141 1    
    36   17  142 1    
    37   18   19 1    
    38   18   67 1    
    39   18  143 1    
    40   19   20 am   BACKBONE|DICT|INTERRES
    41   19  144 1    
    42   20   21 2    
    43   20   22 1    
    44   22   23 1    
    45   22   24 1    
    46   22  145 1    
    47   23  146 1    
    48   23  147 1    
    49   23  148 1    
    50   24   25 am   BACKBONE|DICT|INTERRES
    51   24  149 1    
    52   25   26 2    
    53   25   27 1    
    54   27   28 1    
    55   27   29 1    
    56   27  150 1    
    57   28  151 1    
    58   28  152 1    
    59   28  153 1    
    60   29   30 am   BACKBONE|DICT|INTERRES
    61   29  154 1    
    62   30   31 2    
    63   30   32 1    
    64   32   33 1    
    65   32   34 1    
    66   32  155 1    
    67   33  156 1    
    68   33  157 1    
    69   33  158 1    
    70   34   35 am   BACKBONE|DICT|INTERRES
    71   34  159 1    
    72   35   36 2    
    73   35   37 1    
    74   37   38 1    
    75   37   39 1    
    76   37  160 1    
    77   38  161 1    
    78   38  162 1    
    79   38  163 1    
    80   39   40 am   BACKBONE|DICT|INTERRES
    81   39  164 1    
    82   40   41 2    
    83   40   42 1    
    84   42   43 1    
    85   42   44 1    
    86   42  165 1    
    87   43  166 1    
    88   43  167 1    
    89   43  168 1    
    90   44   45 am   BACKBONE|DICT|INTERRES
    91   44  169 1    
    92   45   46 2    
    93   45   47 1    
    94   47   48 1    
    95   47   49 1    
    96   47  170 1    
    97   48  171 1    
    98   48  172 1    
    99   48  173 1    
   100   49   50 am   BACKBONE|DICT|INTERRES
   101   49  174 1    
   102   50   51 2    
   103   50   52 1    
   104   52   53 1    
   105   52   54 1    
   106   52  175 1    
   107   53  176 1    
   108   53  177 1    
   109   53  178 1    
   110   54   55 am   BACKBONE|DICT|INTERRES
   111   54  179 1    
   112   55   56 2    
   113   55   57 1    
   114   57   58 1    
   115   57   59 1    
   116   57  180 1    
   117   58  181 1    
   118   58  182 1    
   119   58  183 1    
   120   59   60 am   BACKBONE|DICT|INTERRES
   121   59  184 1    
   122   60   61 2    
   123   60   62 1    
   124   62   63 1    
   125   62   64 1    
   126   62  185 1    
   127   63  186 1    
   128   63  187 1    
   129   63  188 1    
   130   64   65 am   BACKBONE|DICT|INTERRES
   131   64  189 1    
   132   65   66 2    
   133   67   68 2    
   134   67   69 am   BACKBONE|DICT|INTERRES
   135   69   70 1    
   136   69  190 1    
   137   70   71 1    
   138   70   72 1    
   139   70  191 1    
   140   71  192 1    
   141   71  193 1    
   142   71  194 1    
   143   72   73 2    
   144   72   74 am   BACKBONE|DICT|INTERRES
   145   74   75 1    
   146   74  195 1    
   147   75   76 1    
   148   75   77 1    
   149   75  196 1    
   150   76  197 1    
   151   76  198 1    
   152   76  199 1    
   153   77   78 2    
   154   77   79 am   BACKBONE|DICT|INTERRES
   155   79   80 1    
   156   79  200 1    
   157   80   81 1    
   158   80   82 1    
   159   80  201 1    
   160   81  202 1    
   161   81  203 1    
   162   81  204 1    
   163   82   83 2    
   164   82   84 am   BACKBONE|DICT|INTERRES
   165   84   85 1    
   166   84  205 1    
   167   85   86 1    
   168   85   87 1    
   169   85  206 1    
   170   86  207 1    
   171   86  208 1    
   172   86  209 1    
   173   87   88 2    
   174   87   89 am   BACKBONE|DICT|INTERRES
   175   89   90 1    
   176   89  210 1    
   177   90   91 1    
   178   90   92 1    
   179   90  211 1    
   180   91  212 1    
   181   91  213 1    
   182   91  214 1    
   183   92   93 2    
   184   92   94 am   BACKBONE|DICT|INTERRES
   185   94   95 1    
   186   94  215 1    
   187   95   96 1    
   188   95   97 1    
   189   95  216 1    
   190   96  217 1    
   191   96  218 1    
   192   96  219 1    
   193   97   98 2    
   194   97   99 am   BACKBONE|DICT|INTERRES
   195   99  100 1    
   196   99  220 1    
   197  100  101 1    
   198  100  102 1    
   199  100  221 1    
   200  101  222 1    
   201  101  223 1    
   202  101  224 1    
   203  102  103 2    
   204  102  104 am   BACKBONE|DICT|INTERRES
   205  104  105 1    
   206  104  225 1    
   207  105  106 1    
   208  105  107 1    
   209  105  226 1    
   210  106  227 1    
   211  106  228 1    
   212  106  229 1    
   213  107  108 2    
   214  107  109 am   BACKBONE|DICT|INTERRES
   215  109  110 1    
   216  109  230 1    
   217  110  111 1    
   218  110  112 1    
   219  110  231 1    
   220  111  232 1    
   221  111  233 1    
   222  111  234 1    
   223  112  113 2    
   224  112  114 am   BACKBONE|DICT|INTERRES
   225  114  115 1    
   226  114  235 1    
   227  115  116 1    
   228  115  117 1    
   229  115  236 1    
   230  116  237 1    
   231  116  238 1    
   232  116  239 1    
   233  117  118 2    
   234  117  119 am   BACKBONE|DICT|INTERRES
   235  119  120 1    
   236  119  240 1    
   237  120  121 1    
   238  120  124 1    
   239  120  241 1    
   240  121  122 am   BACKBONE|DICT|INTERRES
   241  121  123 2    
   242  122  242 1    
   243  122  243 1    
   244  124  125 1    
   245  124  244 1    
   246  124  245 1    
   247  125  126 1    
   248  126  246 1    
   249  126  247 1    
@<TRIPOS>SUBSTRUCTURE
     1 UNK         1 GROUP             0       ****    0 ROOT    
