@<TRIPOS>MOLECULE
3R540
247   249    1
SMALL
USER_CHARGES


@<TRIPOS>ATOM
      1 CA          3.7572  -13.1542  -46.8414 C.3       0 UNK        -0.1800 
      2 C           2.9464  -14.4375  -47.0079 C.2       0 UNK         0.5000 
      3 O           1.7375  -14.4169  -46.8021 O.2       0 UNK        -0.5000 
      4 N           3.5495  -15.5741  -47.3767 N.am      1 UNK        -0.5000 
      5 CA          4.9564  -15.7381  -47.7687 C.3       1 UNK         0.1400 
      6 C6          5.1385  -16.8968  -48.7804 C.3       23 UNK        -0.0398 
      7 S7          4.1468  -16.6410  -50.2928 S.3       23 UNK        -0.2404 
      8 C8          2.7475  -17.7654  -49.9953 C.3       23 UNK        -0.0205 
      9 C9          1.4914  -17.2792  -50.6983 C.ar      23 UNK        -0.0193 
     10 C10         1.2122  -17.6832  -52.0070 C.ar      23 UNK        -0.1150 
     11 C11         0.0331  -17.2760  -52.6384 C.ar      23 UNK        -0.0193 
     12 C12        -0.8680  -16.4590  -51.9506 C.ar      23 UNK        -0.1150 
     13 C13        -0.5985  -16.0469  -50.6428 C.ar      23 UNK        -0.0193 
     14 C14         0.5921  -16.4447  -50.0277 C.ar      23 UNK        -0.1150 
     15 C15        -1.6070  -15.1896  -49.8942 C.3       23 UNK        -0.0205 
     16 S16        -2.9293  -16.2058  -49.1574 S.3       23 UNK        -0.2404 
     17 C17        -2.0977  -16.8960  -47.6864 C.3       23 UNK        -0.0398 
     18 CA         -1.4746  -18.2943  -47.9151 C.3       11 UNK         0.1400 
     19 N          -0.4900  -18.6145  -46.8822 N.am      11 UNK        -0.5000 
     20 C           0.3624  -19.6462  -46.9302 C.2       10 UNK         0.5000 
     21 O           0.4420  -20.4288  -47.8756 O.2       10 UNK        -0.5000 
     22 CA          1.2443  -19.8668  -45.6902 C.3       10 UNK         0.1400 
     23 CB          2.4299  -18.8899  -45.6825 C.3       10 UNK        -0.1800 
     24 N           0.4938  -19.7409  -44.4405 N.am      10 UNK        -0.5000 
     25 C          -0.5300  -20.5286  -44.0816 C.2       9 UNK         0.5000 
     26 O          -0.9343  -21.4764  -44.7539 O.2       9 UNK        -0.5000 
     27 CA         -1.2572  -20.1675  -42.7756 C.3       9 UNK         0.1400 
     28 CB         -0.4711  -20.6574  -41.5499 C.3       9 UNK        -0.1800 
     29 N          -1.5065  -18.7312  -42.6612 N.am      9 UNK        -0.5000 
     30 C          -2.3384  -18.0394  -43.4526 C.2       8 UNK         0.5000 
     31 O          -3.0024  -18.5408  -44.3595 O.2       8 UNK        -0.5000 
     32 CA         -2.3995  -16.5198  -43.2193 C.3       8 UNK         0.1400 
     33 CB         -3.3043  -16.1861  -42.0239 C.3       8 UNK        -0.1800 
     34 N          -1.0772  -15.9317  -43.0067 N.am      8 UNK        -0.5000 
     35 C          -0.0986  -15.9217  -43.9230 C.2       7 UNK         0.5000 
     36 O          -0.2081  -16.4114  -45.0458 O.2       7 UNK        -0.5000 
     37 CA          1.2460  -15.3184  -43.4812 C.3       7 UNK         0.1400 
     38 CB          1.1775  -13.7845  -43.5208 C.3       7 UNK        -0.1800 
     39 N           1.6542  -15.7507  -42.1428 N.am      7 UNK        -0.5000 
     40 C           1.8074  -17.0252  -41.7514 C.2       6 UNK         0.5000 
     41 O           1.6547  -17.9866  -42.5040 O.2       6 UNK        -0.5000 
     42 CA          2.1662  -17.2876  -40.2769 C.3       6 UNK         0.1400 
     43 CB          3.6128  -17.7873  -40.1456 C.3       6 UNK        -0.1800 
     44 N           1.9746  -16.1215  -39.4134 N.am      6 UNK        -0.5000 
     45 C           0.7826  -15.6516  -39.0172 C.2       5 UNK         0.5000 
     46 O          -0.2905  -16.1609  -39.3429 O.2       5 UNK        -0.5000 
     47 CA          0.7871  -14.3921  -38.1268 C.3       5 UNK         0.1400 
     48 CB          0.6709  -14.7822  -36.6455 C.3       5 UNK        -0.1800 
     49 N           1.9790  -13.5581  -38.3087 N.am      5 UNK        -0.5000 
     50 C           2.2472  -12.8505  -39.4141 C.2       4 UNK         0.5000 
     51 O           1.4795  -12.7920  -40.3763 O.2       4 UNK        -0.5000 
     52 CA          3.5954  -12.0953  -39.4759 C.3       4 UNK         0.1400 
     53 CB          4.5958  -12.4987  -38.3685 C.3       4 UNK        -0.1800 
     54 N           4.2274  -12.2058  -40.7970 N.am      4 UNK        -0.5000 
     55 C           4.5579  -13.3391  -41.4339 C.2       3 UNK         0.5000 
     56 O           4.3768  -14.4622  -40.9587 O.2       3 UNK        -0.5000 
     57 CA          5.1453  -13.1672  -42.8521 C.3       3 UNK         0.1400 
     58 CB          6.4576  -12.3548  -42.8432 C.3       3 UNK        -0.1800 
     59 N           5.3101  -14.4381  -43.5704 N.am      3 UNK        -0.5000 
     60 C           6.1743  -15.4336  -43.3145 C.2       2 UNK         0.5000 
     61 O           7.0452  -15.3952  -42.4445 O.2       2 UNK        -0.5000 
     62 CA          6.0507  -16.6977  -44.1892 C.3       2 UNK         0.1400 
     63 CB          5.3507  -17.8224  -43.4130 C.3       2 UNK        -0.1800 
     64 N           5.3285  -16.4675  -45.4451 N.am      2 UNK        -0.5000 
     65 C           5.8779  -15.9357  -46.5469 C.2       1 UNK         0.5000 
     66 O           7.0561  -15.5865  -46.6190 O.2       1 UNK        -0.5000 
     67 C          -2.5297  -19.4070  -48.0675 C.2       11 UNK         0.5000 
     68 O          -2.7863  -19.8397  -49.1904 O.2       11 UNK        -0.5000 
     69 N          -3.0745  -19.8997  -46.9445 N.am      12 UNK        -0.5000 
     70 CA         -4.0223  -21.0159  -46.9146 C.3       12 UNK         0.1400 
     71 CB         -4.5514  -21.2145  -45.4871 C.3       12 UNK        -0.1800 
     72 C          -3.4293  -22.3267  -47.4622 C.2       12 UNK         0.5000 
     73 O          -4.1185  -23.0369  -48.1951 O.2       12 UNK        -0.5000 
     74 N          -2.1623  -22.6063  -47.1262 N.am      13 UNK        -0.5000 
     75 CA         -1.4032  -23.7514  -47.6253 C.3       13 UNK         0.1400 
     76 CB         -0.1013  -23.9030  -46.8243 C.3       13 UNK        -0.1800 
     77 C          -1.1133  -23.6551  -49.1332 C.2       13 UNK         0.5000 
     78 O          -1.3372  -24.6304  -49.8497 O.2       13 UNK        -0.5000 
     79 N          -0.6560  -22.4817  -49.5945 N.am      14 UNK        -0.5000 
     80 CA         -0.3653  -22.1964  -51.0028 C.3       14 UNK         0.1400 
     81 CB          0.3380  -20.8375  -51.1168 C.3       14 UNK        -0.1800 
     82 C          -1.6196  -22.2333  -51.8939 C.2       14 UNK         0.5000 
     83 O          -1.5665  -22.7615  -53.0055 O.2       14 UNK        -0.5000 
     84 N          -2.7365  -21.7109  -51.3716 N.am      15 UNK        -0.5000 
     85 CA         -4.0487  -21.7578  -52.0104 C.3       15 UNK         0.1400 
     86 CB         -4.9544  -20.6970  -51.3685 C.3       15 UNK        -0.1800 
     87 C          -4.7151  -23.1446  -51.9351 C.2       15 UNK         0.5000 
     88 O          -5.7023  -23.3648  -52.6394 O.2       15 UNK        -0.5000 
     89 N          -4.2001  -24.0313  -51.0712 N.am      16 UNK        -0.5000 
     90 CA         -4.7164  -25.3602  -50.7303 C.3       16 UNK         0.1400 
     91 CB         -4.5553  -26.3280  -51.9195 C.3       16 UNK        -0.1800 
     92 C          -6.1630  -25.2867  -50.2045 C.2       16 UNK         0.5000 
     93 O          -7.0442  -25.9798  -50.7117 O.2       16 UNK        -0.5000 
     94 N          -6.3936  -24.3760  -49.2471 N.am      17 UNK        -0.5000 
     95 CA         -7.7015  -24.0005  -48.6909 C.3       17 UNK         0.1400 
     96 CB         -8.2898  -25.1537  -47.8521 C.3       17 UNK        -0.1800 
     97 C          -8.6796  -23.4744  -49.7684 C.2       17 UNK         0.5000 
     98 O          -9.8824  -23.7298  -49.6980 O.2       17 UNK        -0.5000 
     99 N          -8.1169  -22.7634  -50.7567 N.am      18 UNK        -0.5000 
    100 CA        -8.7472  -22.1989  -51.9548 C.3       18 UNK         0.1400 
    101 CB        -9.8893  -21.2267  -51.5934 C.3       18 UNK        -0.1800 
    102 C         -9.1626  -23.2413  -53.0150 C.2       18 UNK         0.5000 
    103 O         -9.8474  -22.8739  -53.9711 O.2       18 UNK        -0.5000 
    104 N         -8.7277  -24.5033  -52.8734 N.am      19 UNK        -0.5000 
    105 CA        -8.9605  -25.5544  -53.8672 C.3       19 UNK         0.1400 
    106 CB        -8.7898  -26.9364  -53.2194 C.3       19 UNK        -0.1800 
    107 C         -8.0357  -25.4186  -55.0910 C.2       19 UNK         0.5000 
    108 O         -8.4610  -25.7353  -56.2029 O.2       19 UNK        -0.5000 
    109 N         -6.7991  -24.9516  -54.8695 N.am      20 UNK        -0.5000 
    110 CA        -5.8078  -24.7042  -55.9180 C.3       20 UNK         0.1400 
    111 CB        -4.4278  -25.1878  -55.4443 C.3       20 UNK        -0.1800 
    112 C         -5.7469  -23.2146  -56.2871 C.2       20 UNK         0.5000 
    113 O         -5.5078  -22.8899  -57.4509 O.2       20 UNK        -0.5000 
    114 N         -5.9377  -22.3390  -55.2868 N.am      21 UNK        -0.5000 
    115 CA        -5.9414  -20.8721  -55.3733 C.3       21 UNK         0.1400 
    116 CB        -7.2142  -20.3901  -56.0980 C.3       21 UNK        -0.1800 
    117 C         -4.6447  -20.2805  -55.9747 C.2       21 UNK         0.5000 
    118 O         -4.6913  -19.2456  -56.6414 O.2       21 UNK        -0.5000 
    119 N         -3.5183  -20.9703  -55.7422 N.am      22 UNK        -0.5000 
    120 CA        -2.1852  -20.7022  -56.3107 C.3       22 UNK         0.1400 
    121 C         -2.0720  -20.9783  -57.8438 C.2       22 UNK         0.5000 
    122 N         -3.0256  -21.6498  -58.4802 N.am      22 UNK        -0.7600 
    123 O         -1.0825  -20.6082  -58.4704 O.2       22 UNK        -0.5000 
    124 C124       -1.6027  -19.3150  -55.9135 C.3       23 UNK        -0.0398 
    125 S125       -1.4659  -19.0809  -54.1089 S.3       23 UNK        -0.2404 
    126 C126       -0.2694  -17.7110  -54.0632 C.3       23 UNK        -0.0205 
    127 H127        4.0054  -12.7356  -47.8165 H         1 UNK         0.0600 
    128 H128        4.6798  -13.3225  -46.2881 H         1 UNK         0.0600 
    129 H129        3.1785  -12.4096  -46.2943 H         1 UNK         0.0600 
    130 H130        2.9722  -16.3913  -47.4953 H         1 UNK         0.3000 
    131 H131        5.2869  -14.8254  -48.2687 H         1 UNK         0.0600 
    132 H132        6.1841  -16.9701  -49.0856 H         1 UNK         0.0800 
    133 H133        4.8887  -17.8590  -48.3297 H         1 UNK         0.0800 
    134 H134        2.5480  -17.8550  -48.9272 H         1 UNK         0.0800 
    135 H135        3.0104  -18.7671  -50.3388 H         1 UNK         0.0800 
    136 H136        1.9084  -18.3245  -52.5289 H         1 UNK         0.1150 
    137 H137       -1.7884  -16.1560  -52.4299 H         1 UNK         0.1150 
    138 H138        0.8024  -16.1302  -49.0146 H         1 UNK         0.1150 
    139 H139       -1.1146  -14.5935  -49.1241 H         1 UNK         0.0800 
    140 H140       -2.0582  -14.4760  -50.5852 H         1 UNK         0.0800 
    141 H141       -2.8071  -16.9198  -46.8574 H         1 UNK         0.0800 
    142 H142       -1.3221  -16.1910  -47.3860 H         1 UNK         0.0800 
    143 H143       -0.9279  -18.2721  -48.8574 H         1 UNK         0.0600 
    144 H144       -0.4582  -17.9893  -46.0806 H         1 UNK         0.3000 
    145 H145        1.6398  -20.8833  -45.7396 H         1 UNK         0.0600 
    146 H146        3.0908  -19.0939  -44.8411 H         1 UNK         0.0600 
    147 H147        3.0222  -18.9849  -46.5933 H         1 UNK         0.0600 
    148 H148        2.0989  -17.8540  -45.6048 H         1 UNK         0.0600 
    149 H149        0.7897  -19.0052  -43.8028 H         1 UNK         0.3000 
    150 H150       -2.2236  -20.6761  -42.7820 H         1 UNK         0.0600 
    151 H151       -0.3095  -21.7350  -41.5984 H         1 UNK         0.0600 
    152 H152       -1.0124  -20.4517  -40.6263 H         1 UNK         0.0600 
    153 H153        0.5080  -20.1838  -41.4773 H         1 UNK         0.0600 
    154 H154       -0.9641  -18.2279  -41.9751 H         1 UNK         0.3000 
    155 H155       -2.8307  -16.0639  -44.1131 H         1 UNK         0.0600 
    156 H156       -2.9009  -16.5793  -41.0897 H         1 UNK         0.0600 
    157 H157       -4.3002  -16.6108  -42.1574 H         1 UNK         0.0600 
    158 H158       -3.4239  -15.1086  -41.9095 H         1 UNK         0.0600 
    159 H159       -0.8907  -15.5404  -42.0944 H         1 UNK         0.3000 
    160 H160        2.0100  -15.6519  -44.1854 H         1 UNK         0.0600 
    161 H161        0.4519  -13.3961  -42.8056 H         1 UNK         0.0600 
    162 H162        0.8794  -13.4276  -44.5068 H         1 UNK         0.0600 
    163 H163        2.1424  -13.3368  -43.2918 H         1 UNK         0.0600 
    164 H164        1.8211  -15.0220  -41.4618 H         1 UNK         0.3000 
    165 H165        1.5058  -18.0834  -39.9257 H         1 UNK         0.0600 
    166 H166        3.8522  -18.0362  -39.1118 H         1 UNK         0.0600 
    167 H167        3.7694  -18.6885  -40.7398 H         1 UNK         0.0600 
    168 H168        4.3321  -17.0428  -40.4866 H         1 UNK         0.0600 
    169 H169        2.8089  -15.6163  -39.1493 H         1 UNK         0.3000 
    170 H170       -0.0902  -13.7987  -38.3932 H         1 UNK         0.0600 
    171 H171       -0.2224  -15.3830  -36.4688 H         1 UNK         0.0600 
    172 H172        1.5302  -15.3666  -36.3141 H         1 UNK         0.0600 
    173 H173        0.5980  -13.8999  -36.0094 H         1 UNK         0.0600 
    174 H174        2.6542  -13.5608  -37.5579 H         1 UNK         0.3000 
    175 H175        3.3558  -11.0403  -39.3372 H         1 UNK         0.0600 
    176 H176        4.8360  -13.5622  -38.4006 H         1 UNK         0.0600 
    177 H177        5.5312  -11.9484  -38.4715 H         1 UNK         0.0600 
    178 H178        4.2048  -12.2722  -37.3760 H         1 UNK         0.0600 
    179 H179        4.3682  -11.3289  -41.2781 H         1 UNK         0.3000 
    180 H180        4.4136  -12.5987  -43.4275 H         1 UNK         0.0600 
    181 H181        7.2035  -12.7905  -42.1781 H         1 UNK         0.0600 
    182 H182        6.2863  -11.3317  -42.5077 H         1 UNK         0.0600 
    183 H183        6.8916  -12.2959  -43.8415 H         1 UNK         0.0600 
    184 H184        4.6327  -14.6096  -44.2960 H         1 UNK         0.3000 
    185 H185        7.0645  -17.0325  -44.4197 H         1 UNK         0.0600 
    186 H186        5.8509  -18.0150  -42.4630 H         1 UNK         0.0600 
    187 H187        4.3142  -17.5702  -43.1932 H         1 UNK         0.0600 
    188 H188        5.3602  -18.7551  -43.9767 H         1 UNK         0.0600 
    189 H189        4.3550  -16.7300  -45.4667 H         1 UNK         0.3000 
    190 H190       -2.8371  -19.4832  -46.0483 H         1 UNK         0.3000 
    191 H191       -4.8664  -20.7475  -47.5531 H         1 UNK         0.0600 
    192 H192       -3.7467  -21.4427  -44.7877 H         1 UNK         0.0600 
    193 H193       -5.2673  -22.0365  -45.4457 H         1 UNK         0.0600 
    194 H194       -5.0621  -20.3206  -45.1288 H         1 UNK         0.0600 
    195 H195       -1.6854  -21.9993  -46.4653 H         1 UNK         0.3000 
    196 H196       -2.0050  -24.6476  -47.4602 H         1 UNK         0.0600 
    197 H197        0.4775  -24.7578  -47.1763 H         1 UNK         0.0600 
    198 H198       -0.3078  -24.0637  -45.7660 H         1 UNK         0.0600 
    199 H199        0.5313  -23.0192  -46.9096 H         1 UNK         0.0600 
    200 H200       -0.4630  -21.7326  -48.9340 H         1 UNK         0.3000 
    201 H201        0.3207  -22.9650  -51.3643 H         1 UNK         0.0600 
    202 H202        1.2697  -20.8242  -50.5515 H         1 UNK         0.0600 
    203 H203       -0.2907  -20.0270  -50.7450 H         1 UNK         0.0600 
    204 H204        0.5834  -20.6126  -52.1553 H         1 UNK         0.0600 
    205 H205       -2.6839  -21.2238  -50.4793 H         1 UNK         0.3000 
    206 H206       -3.9253  -21.5065  -53.0632 H         1 UNK         0.0600 
    207 H207       -4.5065  -19.7053  -51.4394 H         1 UNK         0.0600 
    208 H208       -5.9224  -20.6464  -51.8649 H         1 UNK         0.0600 
    209 H209       -5.1337  -20.9071  -50.3131 H         1 UNK         0.0600 
    210 H210       -3.3955  -23.7384  -50.5326 H         1 UNK         0.3000 
    211 H211       -4.1015  -25.7316  -49.9093 H         1 UNK         0.0600 
    212 H212       -5.2087  -26.0630  -52.7495 H         1 UNK         0.0600 
    213 H213       -4.8033  -27.3483  -51.6256 H         1 UNK         0.0600 
    214 H214       -3.5292  -26.3343  -52.2873 H         1 UNK         0.0600 
    215 H215       -5.5930  -23.8541  -48.8913 H         1 UNK         0.3000 
    216 H216       -7.5159  -23.1639  -48.0158 H         1 UNK         0.0600 
    217 H217       -9.1904  -24.8348  -47.3261 H         1 UNK         0.0600 
    218 H218       -7.5794  -25.4948  -47.0992 H         1 UNK         0.0600 
    219 H219       -8.5595  -26.0097  -48.4714 H         1 UNK         0.0600 
    220 H220       -7.1117  -22.6748  -50.7304 H         1 UNK         0.3000 
    221 H221       -7.9714  -21.6056  -52.4385 H         1 UNK         0.0600 
    222 H222      -10.7597  -21.7497  -51.1971 H         1 UNK         0.0600 
    223 H223       -9.5669  -20.4969  -50.8507 H         1 UNK         0.0600 
    224 H224      -10.2197  -20.6690  -52.4705 H         1 UNK         0.0600 
    225 H225       -8.1673  -24.7537  -52.0667 H         1 UNK         0.3000 
    226 H226       -9.9928  -25.4779  -54.2157 H         1 UNK         0.0600 
    227 H227       -9.3987  -27.0322  -52.3202 H         1 UNK         0.0600 
    228 H228       -9.0955  -27.7260  -53.9068 H         1 UNK         0.0600 
    229 H229       -7.7520  -27.1297  -52.9465 H         1 UNK         0.0600 
    230 H230       -6.5440  -24.6732  -53.9283 H         1 UNK         0.3000 
    231 H231       -6.0638  -25.2611  -56.8218 H         1 UNK         0.0600 
    232 H232       -4.4440  -26.2520  -55.2090 H         1 UNK         0.0600 
    233 H233       -4.0890  -24.6534  -54.5564 H         1 UNK         0.0600 
    234 H234       -3.6759  -25.0394  -56.2205 H         1 UNK         0.0600 
    235 H235       -6.0675  -22.7212  -54.3548 H         1 UNK         0.3000 
    236 H236       -5.9911  -20.5042  -54.3482 H         1 UNK         0.0600 
    237 H237       -7.2125  -20.6786  -57.1496 H         1 UNK         0.0600 
    238 H238       -8.1103  -20.8073  -55.6377 H         1 UNK         0.0600 
    239 H239       -7.3046  -19.3042  -56.0551 H         1 UNK         0.0600 
    240 H240       -3.5858  -21.8189  -55.2015 H         1 UNK         0.3000 
    241 H241       -1.5357  -21.4537  -55.8602 H         1 UNK         0.0600 
    242 H242       -2.9240  -21.8257  -59.4671 H         1 UNK         0.3800 
    243 H243       -3.8586  -21.9784  -58.0019 H         1 UNK         0.3800 
    244 H244       -2.2013  -18.5046  -56.3304 H         1 UNK         0.0800 
    245 H245       -0.6033  -19.1974  -56.3354 H         1 UNK         0.0800 
    246 H246       -0.6664  -16.8648  -54.6262 H         1 UNK         0.0800 
    247 H247        0.6494  -18.0147  -54.5674 H         1 UNK         0.0800 
@<TRIPOS>BOND
     1    1    2 1    
     2    1  127 1    
     3    1  128 1    
     4    1  129 1    
     5    2    3 2    
     6    2    4 am   BACKBONE|DICT|INTERRES
     7    4    5 1    
     8    4  130 1    
     9    5    6 1    
    10    5   65 1    
    11    5  131 1    
    12    6    7 1    
    13    6  132 1    
    14    6  133 1    
    15    7    8 1    
    16    8    9 1    
    17    8  134 1    
    18    8  135 1    
    19    9   10 ar   
    20    9   14 ar   
    21   10   11 ar   
    22   10  136 1    
    23   11   12 ar   
    24   11  126 1    
    25   12   13 ar   
    26   12  137 1    
    27   13   14 ar   
    28   13   15 1    
    29   14  138 1    
    30   15   16 1    
    31   15  139 1    
    32   15  140 1    
    33   16   17 1    
    34   17   18 1    
    35   17  141 1    
    36   17  142 1    
    37   18   19 1    
    38   18   67 1    
    39   18  143 1    
    40   19   20 am   BACKBONE|DICT|INTERRES
    41   19  144 1    
    42   20   21 2    
    43   20   22 1    
    44   22   23 1    
    45   22   24 1    
    46   22  145 1    
    47   23  146 1    
    48   23  147 1    
    49   23  148 1    
    50   24   25 am   BACKBONE|DICT|INTERRES
    51   24  149 1    
    52   25   26 2    
    53   25   27 1    
    54   27   28 1    
    55   27   29 1    
    56   27  150 1    
    57   28  151 1    
    58   28  152 1    
    59   28  153 1    
    60   29   30 am   BACKBONE|DICT|INTERRES
    61   29  154 1    
    62   30   31 2    
    63   30   32 1    
    64   32   33 1    
    65   32   34 1    
    66   32  155 1    
    67   33  156 1    
    68   33  157 1    
    69   33  158 1    
    70   34   35 am   BACKBONE|DICT|INTERRES
    71   34  159 1    
    72   35   36 2    
    73   35   37 1    
    74   37   38 1    
    75   37   39 1    
    76   37  160 1    
    77   38  161 1    
    78   38  162 1    
    79   38  163 1    
    80   39   40 am   BACKBONE|DICT|INTERRES
    81   39  164 1    
    82   40   41 2    
    83   40   42 1    
    84   42   43 1    
    85   42   44 1    
    86   42  165 1    
    87   43  166 1    
    88   43  167 1    
    89   43  168 1    
    90   44   45 am   BACKBONE|DICT|INTERRES
    91   44  169 1    
    92   45   46 2    
    93   45   47 1    
    94   47   48 1    
    95   47   49 1    
    96   47  170 1    
    97   48  171 1    
    98   48  172 1    
    99   48  173 1    
   100   49   50 am   BACKBONE|DICT|INTERRES
   101   49  174 1    
   102   50   51 2    
   103   50   52 1    
   104   52   53 1    
   105   52   54 1    
   106   52  175 1    
   107   53  176 1    
   108   53  177 1    
   109   53  178 1    
   110   54   55 am   BACKBONE|DICT|INTERRES
   111   54  179 1    
   112   55   56 2    
   113   55   57 1    
   114   57   58 1    
   115   57   59 1    
   116   57  180 1    
   117   58  181 1    
   118   58  182 1    
   119   58  183 1    
   120   59   60 am   BACKBONE|DICT|INTERRES
   121   59  184 1    
   122   60   61 2    
   123   60   62 1    
   124   62   63 1    
   125   62   64 1    
   126   62  185 1    
   127   63  186 1    
   128   63  187 1    
   129   63  188 1    
   130   64   65 am   BACKBONE|DICT|INTERRES
   131   64  189 1    
   132   65   66 2    
   133   67   68 2    
   134   67   69 am   BACKBONE|DICT|INTERRES
   135   69   70 1    
   136   69  190 1    
   137   70   71 1    
   138   70   72 1    
   139   70  191 1    
   140   71  192 1    
   141   71  193 1    
   142   71  194 1    
   143   72   73 2    
   144   72   74 am   BACKBONE|DICT|INTERRES
   145   74   75 1    
   146   74  195 1    
   147   75   76 1    
   148   75   77 1    
   149   75  196 1    
   150   76  197 1    
   151   76  198 1    
   152   76  199 1    
   153   77   78 2    
   154   77   79 am   BACKBONE|DICT|INTERRES
   155   79   80 1    
   156   79  200 1    
   157   80   81 1    
   158   80   82 1    
   159   80  201 1    
   160   81  202 1    
   161   81  203 1    
   162   81  204 1    
   163   82   83 2    
   164   82   84 am   BACKBONE|DICT|INTERRES
   165   84   85 1    
   166   84  205 1    
   167   85   86 1    
   168   85   87 1    
   169   85  206 1    
   170   86  207 1    
   171   86  208 1    
   172   86  209 1    
   173   87   88 2    
   174   87   89 am   BACKBONE|DICT|INTERRES
   175   89   90 1    
   176   89  210 1    
   177   90   91 1    
   178   90   92 1    
   179   90  211 1    
   180   91  212 1    
   181   91  213 1    
   182   91  214 1    
   183   92   93 2    
   184   92   94 am   BACKBONE|DICT|INTERRES
   185   94   95 1    
   186   94  215 1    
   187   95   96 1    
   188   95   97 1    
   189   95  216 1    
   190   96  217 1    
   191   96  218 1    
   192   96  219 1    
   193   97   98 2    
   194   97   99 am   BACKBONE|DICT|INTERRES
   195   99  100 1    
   196   99  220 1    
   197  100  101 1    
   198  100  102 1    
   199  100  221 1    
   200  101  222 1    
   201  101  223 1    
   202  101  224 1    
   203  102  103 2    
   204  102  104 am   BACKBONE|DICT|INTERRES
   205  104  105 1    
   206  104  225 1    
   207  105  106 1    
   208  105  107 1    
   209  105  226 1    
   210  106  227 1    
   211  106  228 1    
   212  106  229 1    
   213  107  108 2    
   214  107  109 am   BACKBONE|DICT|INTERRES
   215  109  110 1    
   216  109  230 1    
   217  110  111 1    
   218  110  112 1    
   219  110  231 1    
   220  111  232 1    
   221  111  233 1    
   222  111  234 1    
   223  112  113 2    
   224  112  114 am   BACKBONE|DICT|INTERRES
   225  114  115 1    
   226  114  235 1    
   227  115  116 1    
   228  115  117 1    
   229  115  236 1    
   230  116  237 1    
   231  116  238 1    
   232  116  239 1    
   233  117  118 2    
   234  117  119 am   BACKBONE|DICT|INTERRES
   235  119  120 1    
   236  119  240 1    
   237  120  121 1    
   238  120  124 1    
   239  120  241 1    
   240  121  122 am   BACKBONE|DICT|INTERRES
   241  121  123 2    
   242  122  242 1    
   243  122  243 1    
   244  124  125 1    
   245  124  244 1    
   246  124  245 1    
   247  125  126 1    
   248  126  246 1    
   249  126  247 1    
@<TRIPOS>SUBSTRUCTURE
     1 UNK         1 GROUP             0       ****    0 ROOT    
