@<TRIPOS>MOLECULE
3R540
247   249    1
SMALL
USER_CHARGES


@<TRIPOS>ATOM
      1 CA         -4.6691  -12.5179  -45.9108 C.3       0 UNK        -0.1800 
      2 C          -3.3373  -12.1567  -46.5539 C.2       0 UNK         0.5000 
      3 O          -3.2846  -11.2524  -47.3883 O.2       0 UNK        -0.5000 
      4 N          -2.2671  -12.8657  -46.1767 N.am      1 UNK        -0.5000 
      5 CA         -0.8973  -12.6461  -46.6523 C.3       1 UNK         0.1400 
      6 C6          0.0482  -13.8070  -46.2529 C.3       23 UNK        -0.0398 
      7 S7         -0.5274  -15.4243  -46.8652 S.3       23 UNK        -0.2404 
      8 C8          0.4522  -15.5913  -48.3878 C.3       23 UNK        -0.0205 
      9 C9          0.1027  -16.8798  -49.1133 C.ar      23 UNK        -0.0193 
     10 C10        -1.0006  -16.9264  -49.9672 C.ar      23 UNK        -0.1150 
     11 C11        -1.3585  -18.1162  -50.6091 C.ar      23 UNK        -0.0193 
     12 C12        -0.5842  -19.2640  -50.4030 C.ar      23 UNK        -0.1150 
     13 C13         0.5362  -19.2286  -49.5629 C.ar      23 UNK        -0.0193 
     14 C14         0.8736  -18.0285  -48.9260 C.ar      23 UNK        -0.1150 
     15 C15         1.3953  -20.4778  -49.3816 C.3       23 UNK        -0.0205 
     16 S16         1.8974  -20.7624  -47.6469 S.3       23 UNK        -0.2404 
     17 C17         1.3819  -22.4851  -47.3490 C.3       23 UNK        -0.0398 
     18 CA         -0.0153  -22.6789  -46.7072 C.3       11 UNK         0.1400 
     19 N          -0.0607  -22.3309  -45.2818 N.am      11 UNK        -0.5000 
     20 C          -1.0162  -22.7809  -44.4530 C.2       10 UNK         0.5000 
     21 O          -1.9333  -23.5184  -44.8154 O.2       10 UNK        -0.5000 
     22 CA         -0.9673  -22.3227  -42.9855 C.3       10 UNK         0.1400 
     23 CB          0.1197  -23.0812  -42.2096 C.3       10 UNK        -0.1800 
     24 N          -0.7746  -20.8812  -42.8410 N.am      10 UNK        -0.5000 
     25 C          -1.6498  -19.9528  -43.2535 C.2       9 UNK         0.5000 
     26 O          -2.7286  -20.2184  -43.7827 O.2       9 UNK        -0.5000 
     27 CA         -1.2347  -18.4787  -43.0862 C.3       9 UNK         0.1400 
     28 CB         -1.4896  -17.9928  -41.6518 C.3       9 UNK        -0.1800 
     29 N           0.1640  -18.2435  -43.4397 N.am      9 UNK        -0.5000 
     30 C           0.6844  -18.4703  -44.6539 C.2       8 UNK         0.5000 
     31 O           0.0265  -18.8636  -45.6145 O.2       8 UNK        -0.5000 
     32 CA          2.2061  -18.2990  -44.7891 C.3       8 UNK         0.1400 
     33 CB          2.5982  -16.8174  -44.8873 C.3       8 UNK        -0.1800 
     34 N           2.9181  -18.9334  -43.6794 N.am      8 UNK        -0.5000 
     35 C           2.9621  -20.2568  -43.4630 C.2       7 UNK         0.5000 
     36 O           2.4364  -21.0939  -44.1968 O.2       7 UNK        -0.5000 
     37 CA          3.6857  -20.7195  -42.1852 C.3       7 UNK         0.1400 
     38 CB          5.1999  -20.8153  -42.4242 C.3       7 UNK        -0.1800 
     39 N           3.4292  -19.8389  -41.0444 N.am      7 UNK        -0.5000 
     40 C           2.2367  -19.7016  -40.4470 C.2       6 UNK         0.5000 
     41 O           1.2320  -20.3322  -40.7724 O.2       6 UNK        -0.5000 
     42 CA          2.1412  -18.6407  -39.3345 C.3       6 UNK         0.1400 
     43 CB          2.5977  -19.2229  -37.9886 C.3       6 UNK        -0.1800 
     44 N           2.9131  -17.4300  -39.6317 N.am      6 UNK        -0.5000 
     45 C           2.6714  -16.6213  -40.6713 C.2       5 UNK         0.5000 
     46 O           1.7730  -16.8198  -41.4929 O.2       5 UNK        -0.5000 
     47 CA          3.6328  -15.4352  -40.8572 C.3       5 UNK         0.1400 
     48 CB          4.8868  -15.8814  -41.6255 C.3       5 UNK        -0.1800 
     49 N           2.9918  -14.3559  -41.6023 N.am      5 UNK        -0.5000 
     50 C           2.0903  -13.5027  -41.1062 C.2       4 UNK         0.5000 
     51 O           1.7891  -13.4595  -39.9115 O.2       4 UNK        -0.5000 
     52 CA          1.4273  -12.5360  -42.1150 C.3       4 UNK         0.1400 
     53 CB          0.5329  -11.4866  -41.4303 C.3       4 UNK        -0.1800 
     54 N           2.3859  -11.8375  -42.9775 N.am      4 UNK        -0.5000 
     55 C           3.0440  -12.3694  -44.0139 C.2       3 UNK         0.5000 
     56 O           2.9533  -13.5534  -44.3416 O.2       3 UNK        -0.5000 
     57 CA          3.8778  -11.3979  -44.8642 C.3       3 UNK         0.1400 
     58 CB          5.0030  -12.1116  -45.6343 C.3       3 UNK        -0.1800 
     59 N           2.9744  -10.7676  -45.8191 N.am      3 UNK        -0.5000 
     60 C           2.2686   -9.6529  -45.5898 C.2       2 UNK         0.5000 
     61 O           2.4447   -8.9130  -44.6211 O.2       2 UNK        -0.5000 
     62 CA          1.1280   -9.3645  -46.5842 C.3       2 UNK         0.1400 
     63 CB          1.6624   -8.6687  -47.8455 C.3       2 UNK        -0.1800 
     64 N           0.4123  -10.5885  -46.9634 N.am      2 UNK        -0.5000 
     65 C          -0.3397  -11.3107  -46.1194 C.2       1 UNK         0.5000 
     66 O          -0.5657  -10.9816  -44.9524 O.2       1 UNK        -0.5000 
     67 C          -1.1697  -22.0343  -47.5069 C.2       11 UNK         0.5000 
     68 O          -1.6752  -22.6598  -48.4413 O.2       11 UNK        -0.5000 
     69 N          -1.6050  -20.8326  -47.0981 N.am      12 UNK        -0.5000 
     70 CA         -2.7978  -20.1688  -47.6176 C.3       12 UNK         0.1400 
     71 CB         -2.8696  -18.7225  -47.1080 C.3       12 UNK        -0.1800 
     72 C          -4.0766  -20.9471  -47.2697 C.2       12 UNK         0.5000 
     73 O          -4.8627  -21.2344  -48.1688 O.2       12 UNK        -0.5000 
     74 N          -4.2384  -21.3343  -45.9955 N.am      13 UNK        -0.5000 
     75 CA         -5.3640  -22.1400  -45.5085 C.3       13 UNK         0.1400 
     76 CB         -5.2787  -22.2737  -43.9807 C.3       13 UNK        -0.1800 
     77 C          -5.4598  -23.5291  -46.1709 C.2       13 UNK         0.5000 
     78 O          -6.5659  -24.0150  -46.4094 O.2       13 UNK        -0.5000 
     79 N          -4.3025  -24.1247  -46.4860 N.am      14 UNK        -0.5000 
     80 CA         -4.1797  -25.3726  -47.2398 C.3       14 UNK         0.1400 
     81 CB         -2.7752  -25.9505  -47.0028 C.3       14 UNK        -0.1800 
     82 C          -4.4392  -25.2135  -48.7535 C.2       14 UNK         0.5000 
     83 O          -4.5925  -26.2277  -49.4353 O.2       14 UNK        -0.5000 
     84 N          -4.4550  -23.9672  -49.2544 N.am      15 UNK        -0.5000 
     85 CA         -4.5337  -23.5679  -50.6646 C.3       15 UNK         0.1400 
     86 CB         -5.9185  -23.8983  -51.2554 C.3       15 UNK        -0.1800 
     87 C          -3.3647  -24.1413  -51.4929 C.2       15 UNK         0.5000 
     88 O          -3.5629  -24.6291  -52.6075 O.2       15 UNK        -0.5000 
     89 N          -2.1557  -24.0877  -50.9140 N.am      16 UNK        -0.5000 
     90 CA         -0.9392  -24.7219  -51.4302 C.3       16 UNK         0.1400 
     91 CB          0.1498  -24.6561  -50.3534 C.3       16 UNK        -0.1800 
     92 C          -0.4158  -24.1306  -52.7528 C.2       16 UNK         0.5000 
     93 O           0.4086  -24.7665  -53.4115 O.2       16 UNK        -0.5000 
     94 N          -0.9168  -22.9516  -53.1443 N.am      17 UNK        -0.5000 
     95 CA         -0.6677  -22.2849  -54.4236 C.3       17 UNK         0.1400 
     96 CB         -1.0404  -20.7993  -54.2744 C.3       17 UNK        -0.1800 
     97 C          -1.4177  -22.9738  -55.5877 C.2       17 UNK         0.5000 
     98 O          -2.2111  -22.3354  -56.2814 O.2       17 UNK        -0.5000 
     99 N          -1.1872  -24.2864  -55.7441 N.am      18 UNK        -0.5000 
    100 CA        -1.7423  -25.2053  -56.7480 C.3       18 UNK         0.1400 
    101 CB        -1.1630  -24.8677  -58.1374 C.3       18 UNK        -0.1800 
    102 C         -3.2867  -25.2806  -56.7697 C.2       18 UNK         0.5000 
    103 O         -3.8594  -25.6702  -57.7885 O.2       18 UNK        -0.5000 
    104 N         -3.9339  -24.8639  -55.6690 N.am      19 UNK        -0.5000 
    105 CA        -5.3711  -24.6011  -55.5207 C.3       19 UNK         0.1400 
    106 CB        -6.1846  -25.9078  -55.6177 C.3       19 UNK        -0.1800 
    107 C         -5.9088  -23.4940  -56.4603 C.2       19 UNK         0.5000 
    108 O         -7.1245  -23.3672  -56.6153 O.2       19 UNK        -0.5000 
    109 N         -5.0084  -22.7037  -57.0624 N.am      20 UNK        -0.5000 
    110 CA        -5.3233  -21.6126  -57.9832 C.3       20 UNK         0.1400 
    111 CB        -4.1951  -21.5001  -59.0207 C.3       20 UNK        -0.1800 
    112 C         -5.5140  -20.2763  -57.2460 C.2       20 UNK         0.5000 
    113 O         -6.1433  -19.3699  -57.7938 O.2       20 UNK        -0.5000 
    114 N         -4.9840  -20.1788  -56.0219 N.am      21 UNK        -0.5000 
    115 CA        -5.1408  -19.0486  -55.1187 C.3       21 UNK         0.1400 
    116 CB        -3.9120  -18.1299  -55.2177 C.3       21 UNK        -0.1800 
    117 C         -5.3220  -19.5815  -53.6927 C.2       21 UNK         0.5000 
    118 O         -4.7962  -20.6472  -53.3600 O.2       21 UNK        -0.5000 
    119 N         -6.0581  -18.8132  -52.8839 N.am      22 UNK        -0.5000 
    120 CA        -6.3501  -19.0527  -51.4584 C.3       22 UNK         0.1400 
    121 C         -7.2977  -20.2554  -51.1583 C.2       22 UNK         0.5000 
    122 N         -7.8588  -20.9306  -52.1538 N.am      22 UNK        -0.7600 
    123 O         -7.5803  -20.5475  -50.0008 O.2       22 UNK        -0.5000 
    124 C124       -5.0802  -19.0572  -50.5611 C.3       23 UNK        -0.0398 
    125 S125       -4.0833  -17.5388  -50.7497 S.3       23 UNK        -0.2404 
    126 C126       -2.5567  -18.1406  -51.5512 C.3       23 UNK        -0.0205 
    127 H127       -5.0713  -11.6591  -45.3735 H         1 UNK         0.0600 
    128 H128       -5.3882  -12.8105  -46.6758 H         1 UNK         0.0600 
    129 H129       -4.5684  -13.3434  -45.2058 H         1 UNK         0.0600 
    130 H130       -2.3731  -13.5942  -45.4861 H         1 UNK         0.3000 
    131 H131       -0.9313  -12.5940  -47.7428 H         1 UNK         0.0600 
    132 H132        0.1324  -13.8762  -45.1666 H         1 UNK         0.0800 
    133 H133        1.0614  -13.6288  -46.6181 H         1 UNK         0.0800 
    134 H134        1.5153  -15.5710  -48.1436 H         1 UNK         0.0800 
    135 H135        0.2642  -14.7366  -49.0393 H         1 UNK         0.0800 
    136 H136       -1.5943  -16.0359  -50.1192 H         1 UNK         0.1150 
    137 H137       -0.8487  -20.1844  -50.9040 H         1 UNK         0.1150 
    138 H138        1.7321  -17.9895  -48.2711 H         1 UNK         0.1150 
    139 H139        0.8626  -21.3486  -49.7624 H         1 UNK         0.0800 
    140 H140        2.2925  -20.3761  -49.9929 H         1 UNK         0.0800 
    141 H141        1.4533  -23.0433  -48.2800 H         1 UNK         0.0800 
    142 H142        2.1334  -22.9366  -46.6998 H         1 UNK         0.0800 
    143 H143       -0.1989  -23.7545  -46.7549 H         1 UNK         0.0600 
    144 H144        0.6802  -21.7315  -44.9287 H         1 UNK         0.3000 
    145 H145       -1.9304  -22.5701  -42.5341 H         1 UNK         0.0600 
    146 H146        0.0873  -22.8381  -41.1475 H         1 UNK         0.0600 
    147 H147       -0.0169  -24.1596  -42.2996 H         1 UNK         0.0600 
    148 H148        1.1183  -22.8452  -42.5766 H         1 UNK         0.0600 
    149 H149        0.0691  -20.5813  -42.3629 H         1 UNK         0.3000 
    150 H150       -1.8496  -17.8817  -43.7627 H         1 UNK         0.0600 
    151 H151       -2.5362  -18.1254  -41.3752 H         1 UNK         0.0600 
    152 H152       -1.2556  -16.9331  -41.5476 H         1 UNK         0.0600 
    153 H153       -0.8857  -18.5401  -40.9277 H         1 UNK         0.0600 
    154 H154        0.7699  -17.8846  -42.7063 H         1 UNK         0.3000 
    155 H155        2.5240  -18.7844  -45.7115 H         1 UNK         0.0600 
    156 H156        3.6765  -16.6964  -44.9889 H         1 UNK         0.0600 
    157 H157        2.2764  -16.2497  -44.0148 H         1 UNK         0.0600 
    158 H158        2.1395  -16.3538  -45.7604 H         1 UNK         0.0600 
    159 H159        3.3291  -18.3184  -42.9948 H         1 UNK         0.3000 
    160 H160        3.3164  -21.7162  -41.9349 H         1 UNK         0.0600 
    161 H161        5.6358  -19.8420  -42.6531 H         1 UNK         0.0600 
    162 H162        5.4207  -21.4791  -43.2612 H         1 UNK         0.0600 
    163 H163        5.7125  -21.2159  -41.5494 H         1 UNK         0.0600 
    164 H164        4.2028  -19.2836  -40.7107 H         1 UNK         0.3000 
    165 H165        1.0916  -18.3535  -39.2427 H         1 UNK         0.0600 
    166 H166        3.6520  -19.5020  -38.0053 H         1 UNK         0.0600 
    167 H167        2.4521  -18.5069  -37.1795 H         1 UNK         0.0600 
    168 H168        2.0254  -20.1168  -37.7364 H         1 UNK         0.0600 
    169 H169        3.6719  -17.2116  -39.0020 H         1 UNK         0.3000 
    170 H170        3.9314  -15.0623  -39.8753 H         1 UNK         0.0600 
    171 H171        5.4131  -16.6762  -41.0955 H         1 UNK         0.0600 
    172 H172        4.6401  -16.2552  -42.6198 H         1 UNK         0.0600 
    173 H173        5.5875  -15.0549  -41.7460 H         1 UNK         0.0600 
    174 H174        3.1401  -14.3387  -42.6069 H         1 UNK         0.3000 
    175 H175        0.7829  -13.1464  -42.7511 H         1 UNK         0.0600 
    176 H176        0.0319  -10.8565  -42.1658 H         1 UNK         0.0600 
    177 H177       -0.2456  -11.9624  -40.8327 H         1 UNK         0.0600 
    178 H178        1.1082  -10.8380  -40.7687 H         1 UNK         0.0600 
    179 H179        2.5021  -10.8500  -42.7970 H         1 UNK         0.3000 
    180 H180        4.3314  -10.6509  -44.2092 H         1 UNK         0.0600 
    181 H181        5.5978  -11.4000  -46.2071 H         1 UNK         0.0600 
    182 H182        5.6790  -12.6236  -44.9484 H         1 UNK         0.0600 
    183 H183        4.6140  -12.8566  -46.3297 H         1 UNK         0.0600 
    184 H184        2.7371  -11.3188  -46.6303 H         1 UNK         0.3000 
    185 H185        0.4201   -8.6909  -46.0962 H         1 UNK         0.0600 
    186 H186        0.8503   -8.4017  -48.5220 H         1 UNK         0.0600 
    187 H187        2.1863   -7.7469  -47.5890 H         1 UNK         0.0600 
    188 H188        2.3615   -9.3020  -48.3929 H         1 UNK         0.0600 
    189 H189        0.5352  -10.9061  -47.9143 H         1 UNK         0.3000 
    190 H190       -1.0835  -20.3347  -46.3820 H         1 UNK         0.3000 
    191 H191       -2.7150  -20.1362  -48.7053 H         1 UNK         0.0600 
    192 H192       -3.7414  -18.2078  -47.5130 H         1 UNK         0.0600 
    193 H193       -1.9897  -18.1581  -47.4152 H         1 UNK         0.0600 
    194 H194       -2.9310  -18.6753  -46.0212 H         1 UNK         0.0600 
    195 H195       -3.5585  -21.0398  -45.2986 H         1 UNK         0.3000 
    196 H196       -6.2814  -21.5999  -45.7509 H         1 UNK         0.0600 
    197 H197       -6.1116  -22.8605  -43.5914 H         1 UNK         0.0600 
    198 H198       -5.3154  -21.2974  -43.4973 H         1 UNK         0.0600 
    199 H199       -4.3561  -22.7657  -43.6713 H         1 UNK         0.0600 
    200 H200       -3.4378  -23.6928  -46.1761 H         1 UNK         0.3000 
    201 H201       -4.9117  -26.0847  -46.8533 H         1 UNK         0.0600 
    202 H202       -2.5852  -26.1068  -45.9408 H         1 UNK         0.0600 
    203 H203       -2.0004  -25.2879  -47.3886 H         1 UNK         0.0600 
    204 H204       -2.6583  -26.9147  -47.4991 H         1 UNK         0.0600 
    205 H205       -4.3473  -23.1960  -48.6052 H         1 UNK         0.3000 
    206 H206       -4.4198  -22.4832  -50.6832 H         1 UNK         0.0600 
    207 H207       -6.7165  -23.4965  -50.6309 H         1 UNK         0.0600 
    208 H208       -6.0309  -23.4556  -52.2455 H         1 UNK         0.0600 
    209 H209       -6.0749  -24.9728  -51.3538 H         1 UNK         0.0600 
    210 H210       -2.0747  -23.6402  -50.0030 H         1 UNK         0.3000 
    211 H211       -1.1716  -25.7724  -51.6161 H         1 UNK         0.0600 
    212 H212        0.4550  -23.6258  -50.1823 H         1 UNK         0.0600 
    213 H213        1.0360  -25.2162  -50.6543 H         1 UNK         0.0600 
    214 H214       -0.1957  -25.0729  -49.4071 H         1 UNK         0.0600 
    215 H215       -1.6181  -22.5313  -52.5533 H         1 UNK         0.3000 
    216 H216        0.3992  -22.3425  -54.6481 H         1 UNK         0.0600 
    217 H217       -0.8600  -20.2526  -55.2008 H         1 UNK         0.0600 
    218 H218       -0.4482  -20.3190  -53.4953 H         1 UNK         0.0600 
    219 H219       -2.0931  -20.6779  -54.0183 H         1 UNK         0.0600 
    220 H220       -0.5426  -24.7066  -55.0796 H         1 UNK         0.3000 
    221 H221       -1.3952  -26.2025  -56.4743 H         1 UNK         0.0600 
    222 H222       -1.5236  -23.9044  -58.5003 H         1 UNK         0.0600 
    223 H223       -0.0739  -24.8301  -58.1123 H         1 UNK         0.0600 
    224 H224       -1.4412  -25.6209  -58.8755 H         1 UNK         0.0600 
    225 H225       -3.3778  -24.6058  -54.8626 H         1 UNK         0.3000 
    226 H226       -5.4982  -24.2127  -54.5101 H         1 UNK         0.0600 
    227 H227       -7.2278  -25.7402  -55.3479 H         1 UNK         0.0600 
    228 H228       -6.1717  -26.3214  -56.6263 H         1 UNK         0.0600 
    229 H229       -5.7939  -26.6649  -54.9378 H         1 UNK         0.0600 
    230 H230       -4.0233  -22.8308  -56.8491 H         1 UNK         0.3000 
    231 H231       -6.2508  -21.8382  -58.5136 H         1 UNK         0.0600 
    232 H232       -4.4198  -20.7300  -59.7596 H         1 UNK         0.0600 
    233 H233       -4.0596  -22.4386  -59.5587 H         1 UNK         0.0600 
    234 H234       -3.2433  -21.2406  -58.5557 H         1 UNK         0.0600 
    235 H235       -4.5122  -20.9806  -55.6238 H         1 UNK         0.3000 
    236 H236       -6.0345  -18.4807  -55.3866 H         1 UNK         0.0600 
    237 H237       -2.9927  -18.6553  -54.9604 H         1 UNK         0.0600 
    238 H238       -3.7982  -17.7337  -56.2268 H         1 UNK         0.0600 
    239 H239       -4.0042  -17.2787  -54.5420 H         1 UNK         0.0600 
    240 H240       -6.4518  -17.9616  -53.2576 H         1 UNK         0.3000 
    241 H241       -6.9366  -18.1844  -51.1561 H         1 UNK         0.0600 
    242 H242       -8.4912  -21.6858  -51.9433 H         1 UNK         0.3800 
    243 H243       -7.6531  -20.6979  -53.1111 H         1 UNK         0.3800 
    244 H244       -4.4729  -19.9441  -50.7437 H         1 UNK         0.0800 
    245 H245       -5.3744  -19.1019  -49.5126 H         1 UNK         0.0800 
    246 H246       -2.7099  -19.1375  -51.9659 H         1 UNK         0.0800 
    247 H247       -2.3367  -17.4934  -52.4009 H         1 UNK         0.0800 
@<TRIPOS>BOND
     1    1    2 1    
     2    1  127 1    
     3    1  128 1    
     4    1  129 1    
     5    2    3 2    
     6    2    4 am   BACKBONE|DICT|INTERRES
     7    4    5 1    
     8    4  130 1    
     9    5    6 1    
    10    5   65 1    
    11    5  131 1    
    12    6    7 1    
    13    6  132 1    
    14    6  133 1    
    15    7    8 1    
    16    8    9 1    
    17    8  134 1    
    18    8  135 1    
    19    9   10 ar   
    20    9   14 ar   
    21   10   11 ar   
    22   10  136 1    
    23   11   12 ar   
    24   11  126 1    
    25   12   13 ar   
    26   12  137 1    
    27   13   14 ar   
    28   13   15 1    
    29   14  138 1    
    30   15   16 1    
    31   15  139 1    
    32   15  140 1    
    33   16   17 1    
    34   17   18 1    
    35   17  141 1    
    36   17  142 1    
    37   18   19 1    
    38   18   67 1    
    39   18  143 1    
    40   19   20 am   BACKBONE|DICT|INTERRES
    41   19  144 1    
    42   20   21 2    
    43   20   22 1    
    44   22   23 1    
    45   22   24 1    
    46   22  145 1    
    47   23  146 1    
    48   23  147 1    
    49   23  148 1    
    50   24   25 am   BACKBONE|DICT|INTERRES
    51   24  149 1    
    52   25   26 2    
    53   25   27 1    
    54   27   28 1    
    55   27   29 1    
    56   27  150 1    
    57   28  151 1    
    58   28  152 1    
    59   28  153 1    
    60   29   30 am   BACKBONE|DICT|INTERRES
    61   29  154 1    
    62   30   31 2    
    63   30   32 1    
    64   32   33 1    
    65   32   34 1    
    66   32  155 1    
    67   33  156 1    
    68   33  157 1    
    69   33  158 1    
    70   34   35 am   BACKBONE|DICT|INTERRES
    71   34  159 1    
    72   35   36 2    
    73   35   37 1    
    74   37   38 1    
    75   37   39 1    
    76   37  160 1    
    77   38  161 1    
    78   38  162 1    
    79   38  163 1    
    80   39   40 am   BACKBONE|DICT|INTERRES
    81   39  164 1    
    82   40   41 2    
    83   40   42 1    
    84   42   43 1    
    85   42   44 1    
    86   42  165 1    
    87   43  166 1    
    88   43  167 1    
    89   43  168 1    
    90   44   45 am   BACKBONE|DICT|INTERRES
    91   44  169 1    
    92   45   46 2    
    93   45   47 1    
    94   47   48 1    
    95   47   49 1    
    96   47  170 1    
    97   48  171 1    
    98   48  172 1    
    99   48  173 1    
   100   49   50 am   BACKBONE|DICT|INTERRES
   101   49  174 1    
   102   50   51 2    
   103   50   52 1    
   104   52   53 1    
   105   52   54 1    
   106   52  175 1    
   107   53  176 1    
   108   53  177 1    
   109   53  178 1    
   110   54   55 am   BACKBONE|DICT|INTERRES
   111   54  179 1    
   112   55   56 2    
   113   55   57 1    
   114   57   58 1    
   115   57   59 1    
   116   57  180 1    
   117   58  181 1    
   118   58  182 1    
   119   58  183 1    
   120   59   60 am   BACKBONE|DICT|INTERRES
   121   59  184 1    
   122   60   61 2    
   123   60   62 1    
   124   62   63 1    
   125   62   64 1    
   126   62  185 1    
   127   63  186 1    
   128   63  187 1    
   129   63  188 1    
   130   64   65 am   BACKBONE|DICT|INTERRES
   131   64  189 1    
   132   65   66 2    
   133   67   68 2    
   134   67   69 am   BACKBONE|DICT|INTERRES
   135   69   70 1    
   136   69  190 1    
   137   70   71 1    
   138   70   72 1    
   139   70  191 1    
   140   71  192 1    
   141   71  193 1    
   142   71  194 1    
   143   72   73 2    
   144   72   74 am   BACKBONE|DICT|INTERRES
   145   74   75 1    
   146   74  195 1    
   147   75   76 1    
   148   75   77 1    
   149   75  196 1    
   150   76  197 1    
   151   76  198 1    
   152   76  199 1    
   153   77   78 2    
   154   77   79 am   BACKBONE|DICT|INTERRES
   155   79   80 1    
   156   79  200 1    
   157   80   81 1    
   158   80   82 1    
   159   80  201 1    
   160   81  202 1    
   161   81  203 1    
   162   81  204 1    
   163   82   83 2    
   164   82   84 am   BACKBONE|DICT|INTERRES
   165   84   85 1    
   166   84  205 1    
   167   85   86 1    
   168   85   87 1    
   169   85  206 1    
   170   86  207 1    
   171   86  208 1    
   172   86  209 1    
   173   87   88 2    
   174   87   89 am   BACKBONE|DICT|INTERRES
   175   89   90 1    
   176   89  210 1    
   177   90   91 1    
   178   90   92 1    
   179   90  211 1    
   180   91  212 1    
   181   91  213 1    
   182   91  214 1    
   183   92   93 2    
   184   92   94 am   BACKBONE|DICT|INTERRES
   185   94   95 1    
   186   94  215 1    
   187   95   96 1    
   188   95   97 1    
   189   95  216 1    
   190   96  217 1    
   191   96  218 1    
   192   96  219 1    
   193   97   98 2    
   194   97   99 am   BACKBONE|DICT|INTERRES
   195   99  100 1    
   196   99  220 1    
   197  100  101 1    
   198  100  102 1    
   199  100  221 1    
   200  101  222 1    
   201  101  223 1    
   202  101  224 1    
   203  102  103 2    
   204  102  104 am   BACKBONE|DICT|INTERRES
   205  104  105 1    
   206  104  225 1    
   207  105  106 1    
   208  105  107 1    
   209  105  226 1    
   210  106  227 1    
   211  106  228 1    
   212  106  229 1    
   213  107  108 2    
   214  107  109 am   BACKBONE|DICT|INTERRES
   215  109  110 1    
   216  109  230 1    
   217  110  111 1    
   218  110  112 1    
   219  110  231 1    
   220  111  232 1    
   221  111  233 1    
   222  111  234 1    
   223  112  113 2    
   224  112  114 am   BACKBONE|DICT|INTERRES
   225  114  115 1    
   226  114  235 1    
   227  115  116 1    
   228  115  117 1    
   229  115  236 1    
   230  116  237 1    
   231  116  238 1    
   232  116  239 1    
   233  117  118 2    
   234  117  119 am   BACKBONE|DICT|INTERRES
   235  119  120 1    
   236  119  240 1    
   237  120  121 1    
   238  120  124 1    
   239  120  241 1    
   240  121  122 am   BACKBONE|DICT|INTERRES
   241  121  123 2    
   242  122  242 1    
   243  122  243 1    
   244  124  125 1    
   245  124  244 1    
   246  124  245 1    
   247  125  126 1    
   248  126  246 1    
   249  126  247 1    
@<TRIPOS>SUBSTRUCTURE
     1 UNK         1 GROUP             0       ****    0 ROOT    
