@<TRIPOS>MOLECULE
3R540
247   249    1
SMALL
USER_CHARGES


@<TRIPOS>ATOM
      1 CA          0.9149  -17.7575  -48.4549 C.3       0 UNK        -0.1800 
      2 C           0.3825  -16.3737  -48.7903 C.2       0 UNK         0.5000 
      3 O           0.9557  -15.6894  -49.6368 O.2       0 UNK        -0.5000 
      4 N          -0.6955  -15.9508  -48.1143 N.am      1 UNK        -0.5000 
      5 CA         -1.3923  -14.6612  -48.2475 C.3       1 UNK         0.1400 
      6 C6         -1.9131  -14.3970  -49.6859 C.3       23 UNK        -0.0398 
      7 S7         -3.2124  -13.1182  -49.8189 S.3       23 UNK        -0.2404 
      8 C8         -4.5976  -13.7934  -48.8390 C.3       23 UNK        -0.0205 
      9 C9         -4.8859  -15.2595  -49.1309 C.ar      23 UNK        -0.0193 
     10 C10        -5.3753  -15.6533  -50.3792 C.ar      23 UNK        -0.1150 
     11 C11        -5.6320  -17.0010  -50.6501 C.ar      23 UNK        -0.0193 
     12 C12        -5.4027  -17.9570  -49.6541 C.ar      23 UNK        -0.1150 
     13 C13        -4.8961  -17.5770  -48.4083 C.ar      23 UNK        -0.0193 
     14 C14        -4.6560  -16.2261  -48.1489 C.ar      23 UNK        -0.1150 
     15 C15        -4.6025  -18.6149  -47.3349 C.3       23 UNK        -0.0205 
     16 S16        -2.8141  -18.7543  -47.0187 S.3       23 UNK        -0.2404 
     17 C17        -2.2384  -19.7023  -48.4634 C.3       23 UNK        -0.0398 
     18 CA         -1.4707  -21.0045  -48.1186 C.3       11 UNK         0.1400 
     19 N          -0.4138  -20.8184  -47.1156 N.am      11 UNK        -0.5000 
     20 C           0.6021  -21.6757  -46.9374 C.2       10 UNK         0.5000 
     21 O           0.7572  -22.6921  -47.6130 O.2       10 UNK        -0.5000 
     22 CA          1.5899  -21.3735  -45.7952 C.3       10 UNK         0.1400 
     23 CB          2.6075  -20.3017  -46.2125 C.3       10 UNK        -0.1800 
     24 N           0.9439  -20.9660  -44.5469 N.am      10 UNK        -0.5000 
     25 C           0.1164  -21.7355  -43.8253 C.2       9 UNK         0.5000 
     26 O          -0.2426  -22.8589  -44.1725 O.2       9 UNK        -0.5000 
     27 CA         -0.4036  -21.1558  -42.4960 C.3       9 UNK         0.1400 
     28 CB          0.4660  -21.6441  -41.3291 C.3       9 UNK        -0.1800 
     29 N          -0.4607  -19.6913  -42.4889 N.am      9 UNK        -0.5000 
     30 C          -1.3241  -18.9807  -43.2307 C.2       8 UNK         0.5000 
     31 O          -2.1709  -19.5115  -43.9490 O.2       8 UNK        -0.5000 
     32 CA         -1.1973  -17.4406  -43.1945 C.3       8 UNK         0.1400 
     33 CB         -2.5048  -16.7125  -43.5692 C.3       8 UNK        -0.1800 
     34 N          -0.6477  -16.9252  -41.9374 N.am      8 UNK        -0.5000 
     35 C          -1.1818  -17.0352  -40.7103 C.2       7 UNK         0.5000 
     36 O          -2.2788  -17.5486  -40.4841 O.2       7 UNK        -0.5000 
     37 CA         -0.3309  -16.4917  -39.5403 C.3       7 UNK         0.1400 
     38 CB         -0.6983  -17.1326  -38.1858 C.3       7 UNK        -0.1800 
     39 N           1.1155  -16.5856  -39.7748 N.am      7 UNK        -0.5000 
     40 C           1.8296  -17.6960  -40.0247 C.2       6 UNK         0.5000 
     41 O           1.3308  -18.8191  -40.0852 O.2       6 UNK        -0.5000 
     42 CA          3.3375  -17.5314  -40.3043 C.3       6 UNK         0.1400 
     43 CB          3.7509  -18.3202  -41.5595 C.3       6 UNK        -0.1800 
     44 N           3.6984  -16.1270  -40.4972 N.am      6 UNK        -0.5000 
     45 C           4.2711  -15.3356  -39.5801 C.2       5 UNK         0.5000 
     46 O           4.6422  -15.7266  -38.4733 O.2       5 UNK        -0.5000 
     47 CA          4.4337  -13.8462  -39.9510 C.3       5 UNK         0.1400 
     48 CB          5.8624  -13.5684  -40.4424 C.3       5 UNK        -0.1800 
     49 N           3.4842  -13.3919  -40.9716 N.am      5 UNK        -0.5000 
     50 C           2.1555  -13.3119  -40.8088 C.2       4 UNK         0.5000 
     51 O           1.5812  -13.5727  -39.7520 O.2       4 UNK        -0.5000 
     52 CA          1.3257  -12.9536  -42.0558 C.3       4 UNK         0.1400 
     53 CB          1.1198  -11.4353  -42.1540 C.3       4 UNK        -0.1800 
     54 N           1.9230  -13.4400  -43.3019 N.am      4 UNK        -0.5000 
     55 C           2.1093  -14.7248  -43.6271 C.2       3 UNK         0.5000 
     56 O           1.7885  -15.6563  -42.8850 O.2       3 UNK        -0.5000 
     57 CA          2.7769  -15.0096  -44.9918 C.3       3 UNK         0.1400 
     58 CB          2.7365  -16.5036  -45.3618 C.3       3 UNK        -0.1800 
     59 N           2.1942  -14.2470  -46.0985 N.am      3 UNK        -0.5000 
     60 C           2.3508  -12.9402  -46.3569 C.2       2 UNK         0.5000 
     61 O           3.0067  -12.1826  -45.6411 O.2       2 UNK        -0.5000 
     62 CA          1.6545  -12.3844  -47.6166 C.3       2 UNK         0.1400 
     63 CB          2.6876  -12.0827  -48.7126 C.3       2 UNK        -0.1800 
     64 N           0.6557  -13.3084  -48.1565 N.am      2 UNK        -0.5000 
     65 C          -0.5775  -13.4849  -47.6680 C.2       1 UNK         0.5000 
     66 O          -1.0501  -12.8067  -46.7556 O.2       1 UNK        -0.5000 
     67 C          -2.4170  -22.1580  -47.7361 C.2       11 UNK         0.5000 
     68 O          -2.8131  -22.9281  -48.6138 O.2       11 UNK        -0.5000 
     69 N          -2.7195  -22.2840  -46.4352 N.am      12 UNK        -0.5000 
     70 CA         -3.5100  -23.3715  -45.8573 C.3       12 UNK         0.1400 
     71 CB         -3.7796  -23.0839  -44.3727 C.3       12 UNK        -0.1800 
     72 C          -2.8466  -24.7464  -46.0513 C.2       12 UNK         0.5000 
     73 O          -3.5192  -25.6912  -46.4640 O.2       12 UNK        -0.5000 
     74 N          -1.5341  -24.8154  -45.7921 N.am      13 UNK        -0.5000 
     75 CA         -0.7029  -26.0013  -45.9917 C.3       13 UNK         0.1400 
     76 CB          0.6652  -25.7789  -45.3290 C.3       13 UNK        -0.1800 
     77 C          -0.5274  -26.3786  -47.4740 C.2       13 UNK         0.5000 
     78 O          -0.4487  -27.5688  -47.7806 O.2       13 UNK        -0.5000 
     79 N          -0.4619  -25.3718  -48.3585 N.am      14 UNK        -0.5000 
     80 CA         -0.3186  -25.5434  -49.8030 C.3       14 UNK         0.1400 
     81 CB          0.0120  -24.1962  -50.4694 C.3       14 UNK        -0.1800 
     82 C          -1.5522  -26.2037  -50.4425 C.2       14 UNK         0.5000 
     83 O          -1.4407  -27.3205  -50.9511 O.2       14 UNK        -0.5000 
     84 N          -2.6961  -25.5058  -50.4171 N.am      15 UNK        -0.5000 
     85 CA         -3.9237  -25.9325  -51.1025 C.3       15 UNK         0.1400 
     86 CB         -3.7333  -25.8022  -52.6320 C.3       15 UNK        -0.1800 
     87 C          -5.1776  -25.1604  -50.6456 C.2       15 UNK         0.5000 
     88 O          -6.1887  -25.2012  -51.3476 O.2       15 UNK        -0.5000 
     89 N          -5.0886  -24.4242  -49.5261 N.am      16 UNK        -0.5000 
     90 CA         -6.0057  -23.3438  -49.1246 C.3       16 UNK         0.1400 
     91 CB         -7.4244  -23.8687  -48.8212 C.3       16 UNK        -0.1800 
     92 C          -5.9781  -22.1718  -50.1316 C.2       16 UNK         0.5000 
     93 O          -6.9892  -21.5045  -50.3526 O.2       16 UNK        -0.5000 
     94 N          -4.7993  -21.9601  -50.7259 N.am      17 UNK        -0.5000 
     95 CA         -4.5070  -21.0272  -51.7986 C.3       17 UNK         0.1400 
     96 CB         -5.1147  -21.5189  -53.1198 C.3       17 UNK        -0.1800 
     97 C          -2.9848  -20.9020  -51.8864 C.2       17 UNK         0.5000 
     98 O          -2.2934  -21.9229  -51.8643 O.2       17 UNK        -0.5000 
     99 N          -2.4908  -19.6612  -51.9630 N.am      18 UNK        -0.5000 
    100 CA        -1.0738  -19.3075  -52.0361 C.3       18 UNK         0.1400 
    101 CB        -0.9445  -17.7777  -51.9857 C.3       18 UNK        -0.1800 
    102 C         -0.4278  -19.8893  -53.3028 C.2       18 UNK         0.5000 
    103 O         -0.7607  -19.4544  -54.4061 O.2       18 UNK        -0.5000 
    104 N          0.4046  -20.9255  -53.1195 N.am      19 UNK        -0.5000 
    105 CA         1.0303  -21.7496  -54.1646 C.3       19 UNK         0.1400 
    106 CB         2.0994  -20.9331  -54.9202 C.3       19 UNK        -0.1800 
    107 C          0.0093  -22.4128  -55.1201 C.2       19 UNK         0.5000 
    108 O          0.3405  -22.6921  -56.2731 O.2       19 UNK        -0.5000 
    109 N         -1.2244  -22.6127  -54.6279 N.am      20 UNK        -0.5000 
    110 CA        -2.4213  -23.0547  -55.3508 C.3       20 UNK         0.1400 
    111 CB        -2.2434  -24.4903  -55.8865 C.3       20 UNK        -0.1800 
    112 C         -2.9160  -22.0746  -56.4428 C.2       20 UNK         0.5000 
    113 O         -3.7822  -22.4516  -57.2333 O.2       20 UNK        -0.5000 
    114 N         -2.3854  -20.8420  -56.4825 N.am      21 UNK        -0.5000 
    115 CA        -2.6540  -19.8677  -57.5426 C.3       21 UNK         0.1400 
    116 CB        -1.5390  -18.8109  -57.5639 C.3       21 UNK        -0.1800 
    117 C         -4.0324  -19.1982  -57.4136 C.2       21 UNK         0.5000 
    118 O         -4.7164  -19.0242  -58.4228 O.2       21 UNK        -0.5000 
    119 N         -4.4153  -18.8411  -56.1814 N.am      22 UNK        -0.5000 
    120 CA        -5.6941  -18.1851  -55.8518 C.3       22 UNK         0.1400 
    121 C         -6.8734  -19.1615  -55.5619 C.2       22 UNK         0.5000 
    122 N         -6.7554  -20.4503  -55.8574 N.am      22 UNK        -0.7600 
    123 O         -7.9248  -18.7431  -55.0854 O.2       22 UNK        -0.5000 
    124 C124       -5.5206  -17.0769  -54.7783 C.3       23 UNK        -0.0398 
    125 S125       -4.7792  -17.6250  -53.2003 S.3       23 UNK        -0.2404 
    126 C126       -6.1530  -17.4067  -52.0214 C.3       23 UNK        -0.0205 
    127 H127        0.7653  -18.4349  -49.2949 H         1 UNK         0.0600 
    128 H128        0.4179  -18.1731  -47.5797 H         1 UNK         0.0600 
    129 H129        1.9835  -17.7072  -48.2480 H         1 UNK         0.0600 
    130 H130       -1.1097  -16.5730  -47.4339 H         1 UNK         0.3000 
    131 H131       -2.2588  -14.7653  -47.5963 H         1 UNK         0.0600 
    132 H132       -1.0939  -14.1140  -50.3483 H         1 UNK         0.0800 
    133 H133       -2.3159  -15.3187  -50.1067 H         1 UNK         0.0800 
    134 H134       -4.3863  -13.6443  -47.7791 H         1 UNK         0.0800 
    135 H135       -5.4930  -13.2072  -49.0501 H         1 UNK         0.0800 
    136 H136       -5.5456  -14.9092  -51.1448 H         1 UNK         0.1150 
    137 H137       -5.6223  -18.9968  -49.8382 H         1 UNK         0.1150 
    138 H138       -4.2772  -15.9343  -47.1796 H         1 UNK         0.1150 
    139 H139       -5.0986  -18.3188  -46.4096 H         1 UNK         0.0800 
    140 H140       -5.0093  -19.5916  -47.6017 H         1 UNK         0.0800 
    141 H141       -3.0828  -19.9165  -49.1185 H         1 UNK         0.0800 
    142 H142       -1.5930  -19.0413  -49.0390 H         1 UNK         0.0800 
    143 H143       -0.9811  -21.3184  -49.0432 H         1 UNK         0.0600 
    144 H144       -0.5195  -20.0359  -46.4866 H         1 UNK         0.3000 
    145 H145        2.1390  -22.2960  -45.5945 H         1 UNK         0.0600 
    146 H146        3.4053  -20.2100  -45.4751 H         1 UNK         0.0600 
    147 H147        3.0750  -20.5515  -47.1659 H         1 UNK         0.0600 
    148 H148        2.1417  -19.3234  -46.3190 H         1 UNK         0.0600 
    149 H149        1.1899  -20.0597  -44.1793 H         1 UNK         0.3000 
    150 H150       -1.4156  -21.5367  -42.3444 H         1 UNK         0.0600 
    151 H151        0.5031  -22.7338  -41.2975 H         1 UNK         0.0600 
    152 H152        0.0673  -21.3056  -40.3727 H         1 UNK         0.0600 
    153 H153        1.4916  -21.2823  -41.4125 H         1 UNK         0.0600 
    154 H154        0.1750  -19.2122  -41.8613 H         1 UNK         0.3000 
    155 H155       -0.4615  -17.1913  -43.9601 H         1 UNK         0.0600 
    156 H156       -2.3732  -15.6307  -43.5481 H         1 UNK         0.0600 
    157 H157       -3.3195  -16.9663  -42.8908 H         1 UNK         0.0600 
    158 H158       -2.8277  -16.9773  -44.5761 H         1 UNK         0.0600 
    159 H159        0.2654  -16.4863  -42.0242 H         1 UNK         0.3000 
    160 H160       -0.5593  -15.4273  -39.4735 H         1 UNK         0.0600 
    161 H161       -0.5555  -18.2136  -38.1979 H         1 UNK         0.0600 
    162 H162       -1.7418  -16.9432  -37.9319 H         1 UNK         0.0600 
    163 H163       -0.0909  -16.7228  -37.3788 H         1 UNK         0.0600 
    164 H164        1.6045  -15.6988  -39.7602 H         1 UNK         0.3000 
    165 H165        3.8735  -17.9474  -39.4491 H         1 UNK         0.0600 
    166 H166        3.1692  -18.0204  -42.4309 H         1 UNK         0.0600 
    167 H167        4.8057  -18.1718  -41.7911 H         1 UNK         0.0600 
    168 H168        3.5990  -19.3910  -41.4184 H         1 UNK         0.0600 
    169 H169        3.3842  -15.7151  -41.3663 H         1 UNK         0.3000 
    170 H170        4.2616  -13.2614  -39.0449 H         1 UNK         0.0600 
    171 H171        6.5981  -13.8678  -39.6947 H         1 UNK         0.0600 
    172 H172        6.0858  -14.1146  -41.3598 H         1 UNK         0.0600 
    173 H173        6.0135  -12.5065  -40.6373 H         1 UNK         0.0600 
    174 H174        3.8682  -13.1588  -41.8757 H         1 UNK         0.3000 
    175 H175        0.3475  -13.4270  -41.9474 H         1 UNK         0.0600 
    176 H176        2.0649  -10.9091  -42.2939 H         1 UNK         0.0600 
    177 H177        0.4673  -11.1801  -42.9893 H         1 UNK         0.0600 
    178 H178        0.6554  -11.0439  -41.2479 H         1 UNK         0.0600 
    179 H179        2.2348  -12.7410  -43.9700 H         1 UNK         0.3000 
    180 H180        3.8248  -14.7194  -44.8949 H         1 UNK         0.0600 
    181 H181        1.7130  -16.8704  -45.4457 H         1 UNK         0.0600 
    182 H182        3.2444  -17.1094  -44.6115 H         1 UNK         0.0600 
    183 H183        3.2401  -16.6883  -46.3107 H         1 UNK         0.0600 
    184 H184        1.6111  -14.7689  -46.7335 H         1 UNK         0.3000 
    185 H185        1.1631  -11.4496  -47.3389 H         1 UNK         0.0600 
    186 H186        2.2139  -11.6401  -49.5890 H         1 UNK         0.0600 
    187 H187        3.4394  -11.3757  -48.3590 H         1 UNK         0.0600 
    188 H188        3.2093  -12.9855  -49.0331 H         1 UNK         0.0600 
    189 H189        0.9664  -13.9507  -48.8816 H         1 UNK         0.3000 
    190 H190       -2.3480  -21.6033  -45.7870 H         1 UNK         0.3000 
    191 H191       -4.4734  -23.3960  -46.3645 H         1 UNK         0.0600 
    192 H192       -4.4210  -23.8519  -43.9388 H         1 UNK         0.0600 
    193 H193       -2.8605  -23.0589  -43.7885 H         1 UNK         0.0600 
    194 H194       -4.2839  -22.1261  -44.2418 H         1 UNK         0.0600 
    195 H195       -1.0694  -24.0025  -45.3941 H         1 UNK         0.3000 
    196 H196       -1.1904  -26.8408  -45.4918 H         1 UNK         0.0600 
    197 H197        1.3062  -26.6532  -45.4490 H         1 UNK         0.0600 
    198 H198        0.5598  -25.5974  -44.2592 H         1 UNK         0.0600 
    199 H199        1.1869  -24.9249  -45.7630 H         1 UNK         0.0600 
    200 H200       -0.4666  -24.4201  -48.0124 H         1 UNK         0.3000 
    201 H201        0.5311  -26.2078  -49.9745 H         1 UNK         0.0600 
    202 H202        0.9756  -23.8171  -50.1293 H         1 UNK         0.0600 
    203 H203       -0.7382  -23.4381  -50.2507 H         1 UNK         0.0600 
    204 H204        0.0676  -24.2971  -51.5542 H         1 UNK         0.0600 
    205 H205       -2.6973  -24.5929  -49.9781 H         1 UNK         0.3000 
    206 H206       -4.1085  -26.9809  -50.8606 H         1 UNK         0.0600 
    207 H207       -2.9107  -26.4171  -52.9954 H         1 UNK         0.0600 
    208 H208       -4.6220  -26.1204  -53.1780 H         1 UNK         0.0600 
    209 H209       -3.5256  -24.7698  -52.9126 H         1 UNK         0.0600 
    210 H210       -4.2298  -24.4624  -48.9919 H         1 UNK         0.3000 
    211 H211       -5.6129  -22.9318  -48.1974 H         1 UNK         0.0600 
    212 H212       -7.9442  -24.1934  -49.7225 H         1 UNK         0.0600 
    213 H213       -8.0342  -23.0908  -48.3607 H         1 UNK         0.0600 
    214 H214       -7.3934  -24.7093  -48.1282 H         1 UNK         0.0600 
    215 H215       -4.0041  -22.5170  -50.4343 H         1 UNK         0.3000 
    216 H216       -4.9296  -20.0553  -51.5613 H         1 UNK         0.0600 
    217 H217       -4.7000  -20.9789  -53.9710 H         1 UNK         0.0600 
    218 H218       -6.1935  -21.3632  -53.1301 H         1 UNK         0.0600 
    219 H219       -4.9386  -22.5832  -53.2717 H         1 UNK         0.0600 
    220 H220       -3.1373  -18.8866  -52.0408 H         1 UNK         0.3000 
    221 H221       -0.5719  -19.7223  -51.1602 H         1 UNK         0.0600 
    222 H222       -1.4371  -17.3015  -52.8346 H         1 UNK         0.0600 
    223 H223       -1.3907  -17.3757  -51.0766 H         1 UNK         0.0600 
    224 H224        0.1025  -17.4722  -51.9986 H         1 UNK         0.0600 
    225 H225        0.5670  -21.2417  -52.1739 H         1 UNK         0.3000 
    226 H226        1.5374  -22.5670  -53.6502 H         1 UNK         0.0600 
    227 H227        2.8091  -20.4780  -54.2294 H         1 UNK         0.0600 
    228 H228        2.6714  -21.5670  -55.5987 H         1 UNK         0.0600 
    229 H229        1.6529  -20.1361  -55.5158 H         1 UNK         0.0600 
    230 H230       -1.3856  -22.3563  -53.6588 H         1 UNK         0.3000 
    231 H231       -3.2126  -23.0900  -54.6063 H         1 UNK         0.0600 
    232 H232       -3.1900  -24.8923  -56.2492 H         1 UNK         0.0600 
    233 H233       -1.8866  -25.1619  -55.1058 H         1 UNK         0.0600 
    234 H234       -1.5350  -24.5308  -56.7141 H         1 UNK         0.0600 
    235 H235       -1.7050  -20.5667  -55.7810 H         1 UNK         0.3000 
    236 H236       -2.6286  -20.3927  -58.5001 H         1 UNK         0.0600 
    237 H237       -0.5580  -19.2739  -57.6724 H         1 UNK         0.0600 
    238 H238       -1.6701  -18.1239  -58.4008 H         1 UNK         0.0600 
    239 H239       -1.5286  -18.2145  -56.6510 H         1 UNK         0.0600 
    240 H240       -3.7949  -19.0215  -55.4059 H         1 UNK         0.3000 
    241 H241       -6.0264  -17.6554  -56.7465 H         1 UNK         0.0600 
    242 H242       -5.9192  -20.8041  -56.2939 H         1 UNK         0.3800 
    243 H243       -7.5304  -21.0691  -55.6804 H         1 UNK         0.3800 
    244 H244       -6.4685  -16.5687  -54.5982 H         1 UNK         0.0800 
    245 H245       -4.8639  -16.3043  -55.1802 H         1 UNK         0.0800 
    246 H246       -6.8443  -16.6412  -52.3758 H         1 UNK         0.0800 
    247 H247       -6.7287  -18.3317  -51.9598 H         1 UNK         0.0800 
@<TRIPOS>BOND
     1    1    2 1    
     2    1  127 1    
     3    1  128 1    
     4    1  129 1    
     5    2    3 2    
     6    2    4 am   BACKBONE|DICT|INTERRES
     7    4    5 1    
     8    4  130 1    
     9    5    6 1    
    10    5   65 1    
    11    5  131 1    
    12    6    7 1    
    13    6  132 1    
    14    6  133 1    
    15    7    8 1    
    16    8    9 1    
    17    8  134 1    
    18    8  135 1    
    19    9   10 ar   
    20    9   14 ar   
    21   10   11 ar   
    22   10  136 1    
    23   11   12 ar   
    24   11  126 1    
    25   12   13 ar   
    26   12  137 1    
    27   13   14 ar   
    28   13   15 1    
    29   14  138 1    
    30   15   16 1    
    31   15  139 1    
    32   15  140 1    
    33   16   17 1    
    34   17   18 1    
    35   17  141 1    
    36   17  142 1    
    37   18   19 1    
    38   18   67 1    
    39   18  143 1    
    40   19   20 am   BACKBONE|DICT|INTERRES
    41   19  144 1    
    42   20   21 2    
    43   20   22 1    
    44   22   23 1    
    45   22   24 1    
    46   22  145 1    
    47   23  146 1    
    48   23  147 1    
    49   23  148 1    
    50   24   25 am   BACKBONE|DICT|INTERRES
    51   24  149 1    
    52   25   26 2    
    53   25   27 1    
    54   27   28 1    
    55   27   29 1    
    56   27  150 1    
    57   28  151 1    
    58   28  152 1    
    59   28  153 1    
    60   29   30 am   BACKBONE|DICT|INTERRES
    61   29  154 1    
    62   30   31 2    
    63   30   32 1    
    64   32   33 1    
    65   32   34 1    
    66   32  155 1    
    67   33  156 1    
    68   33  157 1    
    69   33  158 1    
    70   34   35 am   BACKBONE|DICT|INTERRES
    71   34  159 1    
    72   35   36 2    
    73   35   37 1    
    74   37   38 1    
    75   37   39 1    
    76   37  160 1    
    77   38  161 1    
    78   38  162 1    
    79   38  163 1    
    80   39   40 am   BACKBONE|DICT|INTERRES
    81   39  164 1    
    82   40   41 2    
    83   40   42 1    
    84   42   43 1    
    85   42   44 1    
    86   42  165 1    
    87   43  166 1    
    88   43  167 1    
    89   43  168 1    
    90   44   45 am   BACKBONE|DICT|INTERRES
    91   44  169 1    
    92   45   46 2    
    93   45   47 1    
    94   47   48 1    
    95   47   49 1    
    96   47  170 1    
    97   48  171 1    
    98   48  172 1    
    99   48  173 1    
   100   49   50 am   BACKBONE|DICT|INTERRES
   101   49  174 1    
   102   50   51 2    
   103   50   52 1    
   104   52   53 1    
   105   52   54 1    
   106   52  175 1    
   107   53  176 1    
   108   53  177 1    
   109   53  178 1    
   110   54   55 am   BACKBONE|DICT|INTERRES
   111   54  179 1    
   112   55   56 2    
   113   55   57 1    
   114   57   58 1    
   115   57   59 1    
   116   57  180 1    
   117   58  181 1    
   118   58  182 1    
   119   58  183 1    
   120   59   60 am   BACKBONE|DICT|INTERRES
   121   59  184 1    
   122   60   61 2    
   123   60   62 1    
   124   62   63 1    
   125   62   64 1    
   126   62  185 1    
   127   63  186 1    
   128   63  187 1    
   129   63  188 1    
   130   64   65 am   BACKBONE|DICT|INTERRES
   131   64  189 1    
   132   65   66 2    
   133   67   68 2    
   134   67   69 am   BACKBONE|DICT|INTERRES
   135   69   70 1    
   136   69  190 1    
   137   70   71 1    
   138   70   72 1    
   139   70  191 1    
   140   71  192 1    
   141   71  193 1    
   142   71  194 1    
   143   72   73 2    
   144   72   74 am   BACKBONE|DICT|INTERRES
   145   74   75 1    
   146   74  195 1    
   147   75   76 1    
   148   75   77 1    
   149   75  196 1    
   150   76  197 1    
   151   76  198 1    
   152   76  199 1    
   153   77   78 2    
   154   77   79 am   BACKBONE|DICT|INTERRES
   155   79   80 1    
   156   79  200 1    
   157   80   81 1    
   158   80   82 1    
   159   80  201 1    
   160   81  202 1    
   161   81  203 1    
   162   81  204 1    
   163   82   83 2    
   164   82   84 am   BACKBONE|DICT|INTERRES
   165   84   85 1    
   166   84  205 1    
   167   85   86 1    
   168   85   87 1    
   169   85  206 1    
   170   86  207 1    
   171   86  208 1    
   172   86  209 1    
   173   87   88 2    
   174   87   89 am   BACKBONE|DICT|INTERRES
   175   89   90 1    
   176   89  210 1    
   177   90   91 1    
   178   90   92 1    
   179   90  211 1    
   180   91  212 1    
   181   91  213 1    
   182   91  214 1    
   183   92   93 2    
   184   92   94 am   BACKBONE|DICT|INTERRES
   185   94   95 1    
   186   94  215 1    
   187   95   96 1    
   188   95   97 1    
   189   95  216 1    
   190   96  217 1    
   191   96  218 1    
   192   96  219 1    
   193   97   98 2    
   194   97   99 am   BACKBONE|DICT|INTERRES
   195   99  100 1    
   196   99  220 1    
   197  100  101 1    
   198  100  102 1    
   199  100  221 1    
   200  101  222 1    
   201  101  223 1    
   202  101  224 1    
   203  102  103 2    
   204  102  104 am   BACKBONE|DICT|INTERRES
   205  104  105 1    
   206  104  225 1    
   207  105  106 1    
   208  105  107 1    
   209  105  226 1    
   210  106  227 1    
   211  106  228 1    
   212  106  229 1    
   213  107  108 2    
   214  107  109 am   BACKBONE|DICT|INTERRES
   215  109  110 1    
   216  109  230 1    
   217  110  111 1    
   218  110  112 1    
   219  110  231 1    
   220  111  232 1    
   221  111  233 1    
   222  111  234 1    
   223  112  113 2    
   224  112  114 am   BACKBONE|DICT|INTERRES
   225  114  115 1    
   226  114  235 1    
   227  115  116 1    
   228  115  117 1    
   229  115  236 1    
   230  116  237 1    
   231  116  238 1    
   232  116  239 1    
   233  117  118 2    
   234  117  119 am   BACKBONE|DICT|INTERRES
   235  119  120 1    
   236  119  240 1    
   237  120  121 1    
   238  120  124 1    
   239  120  241 1    
   240  121  122 am   BACKBONE|DICT|INTERRES
   241  121  123 2    
   242  122  242 1    
   243  122  243 1    
   244  124  125 1    
   245  124  244 1    
   246  124  245 1    
   247  125  126 1    
   248  126  246 1    
   249  126  247 1    
@<TRIPOS>SUBSTRUCTURE
     1 UNK         1 GROUP             0       ****    0 ROOT    
