@<TRIPOS>MOLECULE
3R540
247   249    1
SMALL
USER_CHARGES


@<TRIPOS>ATOM
      1 CA          4.9324  -14.0922  -46.3592 C.3       0 UNK        -0.1800 
      2 C           4.3509  -14.0359  -47.7651 C.2       0 UNK         0.5000 
      3 O           4.5108  -13.0281  -48.4530 O.2       0 UNK        -0.5000 
      4 N           3.6703  -15.1133  -48.1805 N.am      1 UNK        -0.5000 
      5 CA          3.0062  -15.2925  -49.4821 C.3       1 UNK         0.1400 
      6 C6          4.0012  -15.3617  -50.6739 C.3       23 UNK        -0.0398 
      7 S7          5.2257  -16.7083  -50.4942 S.3       23 UNK        -0.2404 
      8 C8          4.6950  -17.8922  -51.7739 C.3       23 UNK        -0.0205 
      9 C9          3.5277  -18.7562  -51.3171 C.ar      23 UNK        -0.0193 
     10 C10         2.2141  -18.2982  -51.4539 C.ar      23 UNK        -0.1150 
     11 C11         1.1384  -19.0927  -51.0496 C.ar      23 UNK        -0.0193 
     12 C12         1.3820  -20.3659  -50.5282 C.ar      23 UNK        -0.1150 
     13 C13         2.6884  -20.8477  -50.4076 C.ar      23 UNK        -0.0193 
     14 C14         3.7580  -20.0331  -50.7928 C.ar      23 UNK        -0.1150 
     15 C15         2.9352  -22.2697  -49.9210 C.3       23 UNK        -0.0205 
     16 S16         3.6092  -22.3581  -48.2294 S.3       23 UNK        -0.2404 
     17 C17         2.2979  -21.6011  -47.2124 C.3       23 UNK        -0.0398 
     18 CA          1.2465  -22.6145  -46.6864 C.3       11 UNK         0.1400 
     19 N           0.6839  -22.2054  -45.3938 N.am      11 UNK        -0.5000 
     20 C          -0.1806  -22.9241  -44.6609 C.2       10 UNK         0.5000 
     21 O          -0.5564  -24.0569  -44.9614 O.2       10 UNK        -0.5000 
     22 CA         -0.7700  -22.2422  -43.4109 C.3       10 UNK         0.1400 
     23 CB          0.2148  -22.2936  -42.2336 C.3       10 UNK        -0.1800 
     24 N          -1.1643  -20.8563  -43.6663 N.am      10 UNK        -0.5000 
     25 C          -2.1300  -20.4903  -44.5222 C.2       9 UNK         0.5000 
     26 O          -2.8501  -21.2893  -45.1208 O.2       9 UNK        -0.5000 
     27 CA         -2.2719  -18.9834  -44.8059 C.3       9 UNK         0.1400 
     28 CB         -3.1280  -18.2888  -43.7371 C.3       9 UNK        -0.1800 
     29 N          -0.9766  -18.3133  -44.9123 N.am      9 UNK        -0.5000 
     30 C          -0.0705  -18.5788  -45.8642 C.2       8 UNK         0.5000 
     31 O          -0.2335  -19.4051  -46.7583 O.2       8 UNK        -0.5000 
     32 CA          1.2759  -17.8517  -45.7585 C.3       8 UNK         0.1400 
     33 CB          1.1571  -16.4333  -46.3174 C.3       8 UNK        -0.1800 
     34 N           1.7565  -17.8014  -44.3787 N.am      8 UNK        -0.5000 
     35 C           2.1721  -18.8742  -43.6902 C.2       7 UNK         0.5000 
     36 O           2.2339  -20.0071  -44.1651 O.2       7 UNK        -0.5000 
     37 CA          2.5363  -18.6534  -42.2113 C.3       7 UNK         0.1400 
     38 CB          4.0016  -18.2132  -42.0775 C.3       7 UNK        -0.1800 
     39 N           1.6737  -17.6673  -41.5604 N.am      7 UNK        -0.5000 
     40 C           0.3552  -17.8158  -41.3650 C.2       6 UNK         0.5000 
     41 O          -0.2693  -18.8321  -41.6694 O.2       6 UNK        -0.5000 
     42 CA         -0.3929  -16.6051  -40.7739 C.3       6 UNK         0.1400 
     43 CB         -0.4408  -16.6960  -39.2417 C.3       6 UNK        -0.1800 
     44 N           0.2055  -15.3245  -41.1674 N.am      6 UNK        -0.5000 
     45 C           0.1964  -14.8454  -42.4182 C.2       5 UNK         0.5000 
     46 O          -0.3503  -15.4214  -43.3607 O.2       5 UNK        -0.5000 
     47 CA          0.9843  -13.5502  -42.6651 C.3       5 UNK         0.1400 
     48 CB          2.2518  -13.8396  -43.4854 C.3       5 UNK        -0.1800 
     49 N           0.1576  -12.5945  -43.3943 N.am      5 UNK        -0.5000 
     50 C          -0.4809  -11.5569  -42.8345 C.2       4 UNK         0.5000 
     51 O          -0.4062  -11.2771  -41.6370 O.2       4 UNK        -0.5000 
     52 CA         -1.3496  -10.6719  -43.7542 C.3       4 UNK         0.1400 
     53 CB         -0.5647   -9.4282  -44.1991 C.3       4 UNK        -0.1800 
     54 N          -1.8325  -11.3732  -44.9425 N.am      4 UNK        -0.5000 
     55 C          -2.7160  -12.3789  -44.9300 C.2       3 UNK         0.5000 
     56 O          -3.3319  -12.7256  -43.9212 O.2       3 UNK        -0.5000 
     57 CA         -2.9453  -13.1404  -46.2519 C.3       3 UNK         0.1400 
     58 CB         -4.3684  -12.9016  -46.7826 C.3       3 UNK        -0.1800 
     59 N          -1.9901  -12.8646  -47.3353 N.am      3 UNK        -0.5000 
     60 C          -0.6710  -13.0967  -47.3033 C.2       2 UNK         0.5000 
     61 O          -0.0462  -13.4045  -46.2858 O.2       2 UNK        -0.5000 
     62 CA          0.0865  -12.9059  -48.6226 C.3       2 UNK         0.1400 
     63 CB          0.5739  -11.4542  -48.7704 C.3       2 UNK        -0.1800 
     64 N           1.2225  -13.8185  -48.6323 N.am      2 UNK        -0.5000 
     65 C           1.8540  -14.2816  -49.7183 C.2       1 UNK         0.5000 
     66 O           1.5500  -13.9490  -50.8653 O.2       1 UNK        -0.5000 
     67 C           0.1388  -22.8587  -47.7314 C.2       11 UNK         0.5000 
     68 O           0.1256  -23.9059  -48.3762 O.2       11 UNK        -0.5000 
     69 N          -0.7885  -21.9000  -47.8493 N.am      12 UNK        -0.5000 
     70 CA         -1.9404  -21.9308  -48.7460 C.3       12 UNK         0.1400 
     71 CB         -2.6854  -20.5936  -48.6459 C.3       12 UNK        -0.1800 
     72 C          -2.8828  -23.1126  -48.4691 C.2       12 UNK         0.5000 
     73 O          -3.2918  -23.7926  -49.4101 O.2       12 UNK        -0.5000 
     74 N          -3.1694  -23.3624  -47.1841 N.am      13 UNK        -0.5000 
     75 CA         -3.9638  -24.4971  -46.7162 C.3       13 UNK         0.1400 
     76 CB         -4.2656  -24.3285  -45.2196 C.3       13 UNK        -0.1800 
     77 C          -3.2886  -25.8541  -46.9877 C.2       13 UNK         0.5000 
     78 O          -3.9714  -26.7939  -47.3959 O.2       13 UNK        -0.5000 
     79 N          -1.9664  -25.9290  -46.7764 N.am      14 UNK        -0.5000 
     80 CA         -1.1512  -27.1157  -47.0413 C.3       14 UNK         0.1400 
     81 CB          0.2376  -26.9407  -46.4078 C.3       14 UNK        -0.1800 
     82 C          -1.0320  -27.4317  -48.5436 C.2       14 UNK         0.5000 
     83 O          -1.1354  -28.5972  -48.9286 O.2       14 UNK        -0.5000 
     84 N          -0.8318  -26.3904  -49.3629 N.am      15 UNK        -0.5000 
     85 CA         -0.7707  -26.4755  -50.8224 C.3       15 UNK         0.1400 
     86 CB         -0.2239  -25.1531  -51.3802 C.3       15 UNK        -0.1800 
     87 C          -2.1325  -26.8021  -51.4617 C.2       15 UNK         0.5000 
     88 O          -2.1698  -27.4704  -52.4955 O.2       15 UNK        -0.5000 
     89 N          -3.2170  -26.3077  -50.8472 N.am      16 UNK        -0.5000 
     90 CA         -4.6373  -26.4540  -51.1886 C.3       16 UNK         0.1400 
     91 CB         -5.0697  -27.9317  -51.2031 C.3       16 UNK        -0.1800 
     92 C          -5.0534  -25.7302  -52.4828 C.2       16 UNK         0.5000 
     93 O          -6.0698  -25.0375  -52.4882 O.2       16 UNK        -0.5000 
     94 N          -4.2535  -25.8596  -53.5474 N.am      17 UNK        -0.5000 
     95 CA         -4.4351  -25.1679  -54.8257 C.3       17 UNK         0.1400 
     96 CB         -3.5047  -25.8013  -55.8707 C.3       17 UNK        -0.1800 
     97 C          -4.1808  -23.6506  -54.7267 C.2       17 UNK         0.5000 
     98 O          -4.7553  -22.8834  -55.4992 O.2       17 UNK        -0.5000 
     99 N          -3.3385  -23.2470  -53.7663 N.am      18 UNK        -0.5000 
    100 CA        -2.9660  -21.8581  -53.4961 C.3       18 UNK         0.1400 
    101 CB        -1.5037  -21.8274  -53.0226 C.3       18 UNK        -0.1800 
    102 C         -3.9034  -21.1655  -52.4835 C.2       18 UNK         0.5000 
    103 O         -3.6275  -20.0310  -52.0978 O.2       18 UNK        -0.5000 
    104 N         -4.9930  -21.8349  -52.0749 N.am      19 UNK        -0.5000 
    105 CA        -5.9946  -21.3389  -51.1223 C.3       19 UNK         0.1400 
    106 CB        -6.7657  -22.5331  -50.5386 C.3       19 UNK        -0.1800 
    107 C         -6.9579  -20.2760  -51.6963 C.2       19 UNK         0.5000 
    108 O         -7.8568  -19.8285  -50.9819 O.2       19 UNK        -0.5000 
    109 N         -6.7697  -19.8803  -52.9625 N.am      20 UNK        -0.5000 
    110 CA        -7.3927  -18.7093  -53.5751 C.3       20 UNK         0.1400 
    111 CB        -7.2518  -18.8124  -55.1035 C.3       20 UNK        -0.1800 
    112 C         -6.7276  -17.4383  -53.0116 C.2       20 UNK         0.5000 
    113 O         -5.6781  -17.0265  -53.5100 O.2       20 UNK        -0.5000 
    114 N         -7.3204  -16.8947  -51.9390 N.am      21 UNK        -0.5000 
    115 CA        -6.7525  -15.8889  -51.0343 C.3       21 UNK         0.1400 
    116 CB        -6.4801  -14.5507  -51.7589 C.3       21 UNK        -0.1800 
    117 C         -5.5395  -16.4717  -50.2755 C.2       21 UNK         0.5000 
    118 O         -5.6020  -17.6295  -49.8581 O.2       21 UNK        -0.5000 
    119 N         -4.4794  -15.6768  -50.0766 N.am      22 UNK        -0.5000 
    120 CA        -3.1868  -16.0627  -49.4723 C.3       22 UNK         0.1400 
    121 C         -3.2192  -16.4532  -47.9603 C.2       22 UNK         0.5000 
    122 N         -4.3494  -16.8480  -47.3913 N.am      22 UNK        -0.7600 
    123 O         -2.2094  -16.3416  -47.2768 O.2       22 UNK        -0.5000 
    124 C124       -2.4650  -17.1311  -50.3360 C.3       23 UNK        -0.0398 
    125 S125       -0.6639  -17.2304  -50.0710 S.3       23 UNK        -0.2404 
    126 C126       -0.2870  -18.5921  -51.2125 C.3       23 UNK        -0.0205 
    127 H127        6.0177  -13.9989  -46.3981 H         1 UNK         0.0600 
    128 H128        4.6889  -15.0275  -45.8544 H         1 UNK         0.0600 
    129 H129        4.5396  -13.2717  -45.7586 H         1 UNK         0.0600 
    130 H130        3.6192  -15.9143  -47.5689 H         1 UNK         0.3000 
    131 H131        2.5118  -16.2630  -49.4221 H         1 UNK         0.0600 
    132 H132        3.4711  -15.4926  -51.6175 H         1 UNK         0.0800 
    133 H133        4.5426  -14.4200  -50.7718 H         1 UNK         0.0800 
    134 H134        5.5449  -18.5284  -52.0255 H         1 UNK         0.0800 
    135 H135        4.4390  -17.3637  -52.6933 H         1 UNK         0.0800 
    136 H136        2.0220  -17.3217  -51.8746 H         1 UNK         0.1150 
    137 H137        0.5522  -20.9919  -50.2361 H         1 UNK         0.1150 
    138 H138        4.7696  -20.4034  -50.7015 H         1 UNK         0.1150 
    139 H139        2.0220  -22.8618  -49.9823 H         1 UNK         0.0800 
    140 H140        3.6422  -22.7531  -50.5966 H         1 UNK         0.0800 
    141 H141        1.8408  -20.7621  -47.7379 H         1 UNK         0.0800 
    142 H142        2.8236  -21.1531  -46.3702 H         1 UNK         0.0800 
    143 H143        1.7451  -23.5697  -46.5089 H         1 UNK         0.0600 
    144 H144        0.9735  -21.2973  -45.0455 H         1 UNK         0.3000 
    145 H145       -1.6672  -22.7948  -43.1242 H         1 UNK         0.0600 
    146 H146        1.1362  -21.7542  -42.4511 H         1 UNK         0.0600 
    147 H147       -0.2225  -21.8575  -41.3352 H         1 UNK         0.0600 
    148 H148        0.4857  -23.3235  -41.9979 H         1 UNK         0.0600 
    149 H149       -0.6564  -20.1324  -43.1682 H         1 UNK         0.3000 
    150 H150       -2.7765  -18.8749  -45.7679 H         1 UNK         0.0600 
    151 H151       -4.1226  -18.7335  -43.6872 H         1 UNK         0.0600 
    152 H152       -3.2540  -17.2292  -43.9615 H         1 UNK         0.0600 
    153 H153       -2.6831  -18.3699  -42.7455 H         1 UNK         0.0600 
    154 H154       -0.7700  -17.5940  -44.2320 H         1 UNK         0.3000 
    155 H155        2.0094  -18.3960  -46.3574 H         1 UNK         0.0600 
    156 H156        0.3457  -15.8884  -45.8369 H         1 UNK         0.0600 
    157 H157        2.0742  -15.8685  -46.1678 H         1 UNK         0.0600 
    158 H158        0.9374  -16.4576  -47.3850 H         1 UNK         0.0600 
    159 H159        1.6758  -16.9161  -43.9017 H         1 UNK         0.3000 
    160 H160        2.4139  -19.6060  -41.6917 H         1 UNK         0.0600 
    161 H161        4.6707  -18.9406  -42.5392 H         1 UNK         0.0600 
    162 H162        4.1803  -17.2508  -42.5590 H         1 UNK         0.0600 
    163 H163        4.2928  -18.1247  -41.0307 H         1 UNK         0.0600 
    164 H164        2.1075  -16.8047  -41.2679 H         1 UNK         0.3000 
    165 H165       -1.4176  -16.6338  -41.1507 H         1 UNK         0.0600 
    166 H166       -1.0297  -15.8830  -38.8167 H         1 UNK         0.0600 
    167 H167       -0.9016  -17.6314  -38.9211 H         1 UNK         0.0600 
    168 H168        0.5569  -16.6543  -38.8029 H         1 UNK         0.0600 
    169 H169        0.6677  -14.7986  -40.4393 H         1 UNK         0.3000 
    170 H170        1.2960  -13.1329  -41.7053 H         1 UNK         0.0600 
    171 H171        2.8792  -14.5855  -42.9960 H         1 UNK         0.0600 
    172 H172        2.0098  -14.2105  -44.4810 H         1 UNK         0.0600 
    173 H173        2.8527  -12.9383  -43.6068 H         1 UNK         0.0600 
    174 H174       -0.0001  -12.8078  -44.3755 H         1 UNK         0.3000 
    175 H175       -2.2156  -10.3431  -43.1759 H         1 UNK         0.0600 
    176 H176        0.3067   -9.6960  -44.7981 H         1 UNK         0.0600 
    177 H177       -1.1881   -8.7587  -44.7920 H         1 UNK         0.0600 
    178 H178       -0.2094   -8.8615  -43.3374 H         1 UNK         0.0600 
    179 H179       -1.3671  -11.1659  -45.8133 H         1 UNK         0.3000 
    180 H180       -2.8529  -14.1965  -45.9972 H         1 UNK         0.0600 
    181 H181       -4.5155  -11.8635  -47.0826 H         1 UNK         0.0600 
    182 H182       -5.1158  -13.1332  -46.0226 H         1 UNK         0.0600 
    183 H183       -4.5813  -13.5361  -47.6431 H         1 UNK         0.0600 
    184 H184       -2.3993  -12.5496  -48.2024 H         1 UNK         0.3000 
    185 H185       -0.5819  -13.1575  -49.4489 H         1 UNK         0.0600 
    186 H186        1.0947  -11.3057  -49.7164 H         1 UNK         0.0600 
    187 H187       -0.2623  -10.7544  -48.7478 H         1 UNK         0.0600 
    188 H188        1.2578  -11.1783  -47.9666 H         1 UNK         0.0600 
    189 H189        1.4973  -14.1432  -47.7142 H         1 UNK         0.3000 
    190 H190       -0.6695  -21.0445  -47.3073 H         1 UNK         0.3000 
    191 H191       -1.5603  -22.0364  -49.7617 H         1 UNK         0.0600 
    192 H192       -3.1765  -20.4695  -47.6810 H         1 UNK         0.0600 
    193 H193       -3.4489  -20.5132  -49.4158 H         1 UNK         0.0600 
    194 H194       -2.0036  -19.7547  -48.7774 H         1 UNK         0.0600 
    195 H195       -2.8265  -22.7227  -46.4729 H         1 UNK         0.3000 
    196 H196       -4.9122  -24.4845  -47.2575 H         1 UNK         0.0600 
    197 H197       -4.8704  -25.1558  -44.8463 H         1 UNK         0.0600 
    198 H198       -4.8199  -23.4089  -45.0313 H         1 UNK         0.0600 
    199 H199       -3.3514  -24.2940  -44.6260 H         1 UNK         0.0600 
    200 H200       -1.4830  -25.1226  -46.3928 H         1 UNK         0.3000 
    201 H201       -1.6345  -27.9689  -46.5608 H         1 UNK         0.0600 
    202 H202        0.1630  -26.8025  -45.3291 H         1 UNK         0.0600 
    203 H203        0.7636  -26.0784  -46.8185 H         1 UNK         0.0600 
    204 H204        0.8602  -27.8192  -46.5811 H         1 UNK         0.0600 
    205 H205       -0.6831  -25.4697  -48.9546 H         1 UNK         0.3000 
    206 H206       -0.0770  -27.2746  -51.0913 H         1 UNK         0.0600 
    207 H207        0.7900  -24.9669  -51.0257 H         1 UNK         0.0600 
    208 H208       -0.1917  -25.1644  -52.4705 H         1 UNK         0.0600 
    209 H209       -0.8424  -24.3101  -51.0733 H         1 UNK         0.0600 
    210 H210       -3.0513  -25.6822  -50.0648 H         1 UNK         0.3000 
    211 H211       -5.1769  -25.9668  -50.3746 H         1 UNK         0.0600 
    212 H212       -4.5911  -28.4919  -52.0066 H         1 UNK         0.0600 
    213 H213       -6.1476  -28.0184  -51.3441 H         1 UNK         0.0600 
    214 H214       -4.8242  -28.4204  -50.2600 H         1 UNK         0.0600 
    215 H215       -3.4423  -26.4653  -53.4516 H         1 UNK         0.3000 
    216 H216       -5.4677  -25.3116  -55.1505 H         1 UNK         0.0600 
    217 H217       -3.6267  -25.3241  -56.8440 H         1 UNK         0.0600 
    218 H218       -3.7218  -26.8618  -55.9999 H         1 UNK         0.0600 
    219 H219       -2.4560  -25.7060  -55.5859 H         1 UNK         0.0600 
    220 H220       -2.9334  -23.9488  -53.1648 H         1 UNK         0.3000 
    221 H221       -3.0231  -21.2858  -54.4243 H         1 UNK         0.0600 
    222 H222       -1.3887  -22.2796  -52.0398 H         1 UNK         0.0600 
    223 H223       -0.8506  -22.3585  -53.7153 H         1 UNK         0.0600 
    224 H224       -1.1360  -20.8036  -52.9611 H         1 UNK         0.0600 
    225 H225       -5.1566  -22.7609  -52.4460 H         1 UNK         0.3000 
    226 H226       -5.4703  -20.8552  -50.2981 H         1 UNK         0.0600 
    227 H227       -6.0867  -23.2744  -50.1158 H         1 UNK         0.0600 
    228 H228       -7.4345  -22.2154  -49.7379 H         1 UNK         0.0600 
    229 H229       -7.3750  -23.0249  -51.2973 H         1 UNK         0.0600 
    230 H230       -5.9973  -20.2882  -53.4670 H         1 UNK         0.3000 
    231 H231       -8.4575  -18.6945  -53.3327 H         1 UNK         0.0600 
    232 H232       -7.6862  -17.9401  -55.5934 H         1 UNK         0.0600 
    233 H233       -7.7686  -19.6922  -55.4871 H         1 UNK         0.0600 
    234 H234       -6.2078  -18.8779  -55.4130 H         1 UNK         0.0600 
    235 H235       -8.1296  -17.3782  -51.5726 H         1 UNK         0.3000 
    236 H236       -7.5161  -15.7005  -50.2785 H         1 UNK         0.0600 
    237 H237       -6.2490  -13.7578  -51.0467 H         1 UNK         0.0600 
    238 H238       -7.3564  -14.2265  -52.3202 H         1 UNK         0.0600 
    239 H239       -5.6468  -14.6202  -52.4587 H         1 UNK         0.0600 
    240 H240       -4.5306  -14.7295  -50.4216 H         1 UNK         0.3000 
    241 H241       -2.5876  -15.1524  -49.5179 H         1 UNK         0.0600 
    242 H242       -5.1459  -17.0504  -47.9817 H         1 UNK         0.3800 
    243 H243       -4.3686  -17.0651  -46.4099 H         1 UNK         0.3800 
    244 H244       -2.9131  -18.1123  -50.1771 H         1 UNK         0.0800 
    245 H245       -2.6162  -16.9103  -51.3938 H         1 UNK         0.0800 
    246 H246       -0.9947  -19.4038  -51.0392 H         1 UNK         0.0800 
    247 H247       -0.4427  -18.2590  -52.2395 H         1 UNK         0.0800 
@<TRIPOS>BOND
     1    1    2 1    
     2    1  127 1    
     3    1  128 1    
     4    1  129 1    
     5    2    3 2    
     6    2    4 am   BACKBONE|DICT|INTERRES
     7    4    5 1    
     8    4  130 1    
     9    5    6 1    
    10    5   65 1    
    11    5  131 1    
    12    6    7 1    
    13    6  132 1    
    14    6  133 1    
    15    7    8 1    
    16    8    9 1    
    17    8  134 1    
    18    8  135 1    
    19    9   10 ar   
    20    9   14 ar   
    21   10   11 ar   
    22   10  136 1    
    23   11   12 ar   
    24   11  126 1    
    25   12   13 ar   
    26   12  137 1    
    27   13   14 ar   
    28   13   15 1    
    29   14  138 1    
    30   15   16 1    
    31   15  139 1    
    32   15  140 1    
    33   16   17 1    
    34   17   18 1    
    35   17  141 1    
    36   17  142 1    
    37   18   19 1    
    38   18   67 1    
    39   18  143 1    
    40   19   20 am   BACKBONE|DICT|INTERRES
    41   19  144 1    
    42   20   21 2    
    43   20   22 1    
    44   22   23 1    
    45   22   24 1    
    46   22  145 1    
    47   23  146 1    
    48   23  147 1    
    49   23  148 1    
    50   24   25 am   BACKBONE|DICT|INTERRES
    51   24  149 1    
    52   25   26 2    
    53   25   27 1    
    54   27   28 1    
    55   27   29 1    
    56   27  150 1    
    57   28  151 1    
    58   28  152 1    
    59   28  153 1    
    60   29   30 am   BACKBONE|DICT|INTERRES
    61   29  154 1    
    62   30   31 2    
    63   30   32 1    
    64   32   33 1    
    65   32   34 1    
    66   32  155 1    
    67   33  156 1    
    68   33  157 1    
    69   33  158 1    
    70   34   35 am   BACKBONE|DICT|INTERRES
    71   34  159 1    
    72   35   36 2    
    73   35   37 1    
    74   37   38 1    
    75   37   39 1    
    76   37  160 1    
    77   38  161 1    
    78   38  162 1    
    79   38  163 1    
    80   39   40 am   BACKBONE|DICT|INTERRES
    81   39  164 1    
    82   40   41 2    
    83   40   42 1    
    84   42   43 1    
    85   42   44 1    
    86   42  165 1    
    87   43  166 1    
    88   43  167 1    
    89   43  168 1    
    90   44   45 am   BACKBONE|DICT|INTERRES
    91   44  169 1    
    92   45   46 2    
    93   45   47 1    
    94   47   48 1    
    95   47   49 1    
    96   47  170 1    
    97   48  171 1    
    98   48  172 1    
    99   48  173 1    
   100   49   50 am   BACKBONE|DICT|INTERRES
   101   49  174 1    
   102   50   51 2    
   103   50   52 1    
   104   52   53 1    
   105   52   54 1    
   106   52  175 1    
   107   53  176 1    
   108   53  177 1    
   109   53  178 1    
   110   54   55 am   BACKBONE|DICT|INTERRES
   111   54  179 1    
   112   55   56 2    
   113   55   57 1    
   114   57   58 1    
   115   57   59 1    
   116   57  180 1    
   117   58  181 1    
   118   58  182 1    
   119   58  183 1    
   120   59   60 am   BACKBONE|DICT|INTERRES
   121   59  184 1    
   122   60   61 2    
   123   60   62 1    
   124   62   63 1    
   125   62   64 1    
   126   62  185 1    
   127   63  186 1    
   128   63  187 1    
   129   63  188 1    
   130   64   65 am   BACKBONE|DICT|INTERRES
   131   64  189 1    
   132   65   66 2    
   133   67   68 2    
   134   67   69 am   BACKBONE|DICT|INTERRES
   135   69   70 1    
   136   69  190 1    
   137   70   71 1    
   138   70   72 1    
   139   70  191 1    
   140   71  192 1    
   141   71  193 1    
   142   71  194 1    
   143   72   73 2    
   144   72   74 am   BACKBONE|DICT|INTERRES
   145   74   75 1    
   146   74  195 1    
   147   75   76 1    
   148   75   77 1    
   149   75  196 1    
   150   76  197 1    
   151   76  198 1    
   152   76  199 1    
   153   77   78 2    
   154   77   79 am   BACKBONE|DICT|INTERRES
   155   79   80 1    
   156   79  200 1    
   157   80   81 1    
   158   80   82 1    
   159   80  201 1    
   160   81  202 1    
   161   81  203 1    
   162   81  204 1    
   163   82   83 2    
   164   82   84 am   BACKBONE|DICT|INTERRES
   165   84   85 1    
   166   84  205 1    
   167   85   86 1    
   168   85   87 1    
   169   85  206 1    
   170   86  207 1    
   171   86  208 1    
   172   86  209 1    
   173   87   88 2    
   174   87   89 am   BACKBONE|DICT|INTERRES
   175   89   90 1    
   176   89  210 1    
   177   90   91 1    
   178   90   92 1    
   179   90  211 1    
   180   91  212 1    
   181   91  213 1    
   182   91  214 1    
   183   92   93 2    
   184   92   94 am   BACKBONE|DICT|INTERRES
   185   94   95 1    
   186   94  215 1    
   187   95   96 1    
   188   95   97 1    
   189   95  216 1    
   190   96  217 1    
   191   96  218 1    
   192   96  219 1    
   193   97   98 2    
   194   97   99 am   BACKBONE|DICT|INTERRES
   195   99  100 1    
   196   99  220 1    
   197  100  101 1    
   198  100  102 1    
   199  100  221 1    
   200  101  222 1    
   201  101  223 1    
   202  101  224 1    
   203  102  103 2    
   204  102  104 am   BACKBONE|DICT|INTERRES
   205  104  105 1    
   206  104  225 1    
   207  105  106 1    
   208  105  107 1    
   209  105  226 1    
   210  106  227 1    
   211  106  228 1    
   212  106  229 1    
   213  107  108 2    
   214  107  109 am   BACKBONE|DICT|INTERRES
   215  109  110 1    
   216  109  230 1    
   217  110  111 1    
   218  110  112 1    
   219  110  231 1    
   220  111  232 1    
   221  111  233 1    
   222  111  234 1    
   223  112  113 2    
   224  112  114 am   BACKBONE|DICT|INTERRES
   225  114  115 1    
   226  114  235 1    
   227  115  116 1    
   228  115  117 1    
   229  115  236 1    
   230  116  237 1    
   231  116  238 1    
   232  116  239 1    
   233  117  118 2    
   234  117  119 am   BACKBONE|DICT|INTERRES
   235  119  120 1    
   236  119  240 1    
   237  120  121 1    
   238  120  124 1    
   239  120  241 1    
   240  121  122 am   BACKBONE|DICT|INTERRES
   241  121  123 2    
   242  122  242 1    
   243  122  243 1    
   244  124  125 1    
   245  124  244 1    
   246  124  245 1    
   247  125  126 1    
   248  126  246 1    
   249  126  247 1    
@<TRIPOS>SUBSTRUCTURE
     1 UNK         1 GROUP             0       ****    0 ROOT    
