@<TRIPOS>MOLECULE
3R540
247   249    1
SMALL
USER_CHARGES


@<TRIPOS>ATOM
      1 CA         -4.9096  -12.5759  -46.4876 C.3       0 UNK        -0.1800 
      2 C          -3.6970  -13.4919  -46.4334 C.2       0 UNK         0.5000 
      3 O          -2.6591  -13.1080  -45.8969 O.2       0 UNK        -0.5000 
      4 N          -3.8203  -14.7146  -46.9620 N.am      1 UNK        -0.5000 
      5 CA         -2.7354  -15.7030  -47.0656 C.3       1 UNK         0.1400 
      6 C6         -3.0665  -16.8237  -48.0824 C.3       23 UNK        -0.0398 
      7 S7         -3.5739  -16.1879  -49.7202 S.3       23 UNK        -0.2404 
      8 C8         -2.0326  -15.4577  -50.3630 C.3       23 UNK        -0.0205 
      9 C9         -1.0168  -16.5189  -50.7502 C.ar      23 UNK        -0.0193 
     10 C10        -1.0719  -17.1012  -52.0184 C.ar      23 UNK        -0.1150 
     11 C11        -0.1565  -18.0893  -52.3872 C.ar      23 UNK        -0.0193 
     12 C12         0.8336  -18.4792  -51.4820 C.ar      23 UNK        -0.1150 
     13 C13         0.9056  -17.8972  -50.2126 C.ar      23 UNK        -0.0193 
     14 C14        -0.0231  -16.9173  -49.8510 C.ar      23 UNK        -0.1150 
     15 C15         1.9970  -18.3244  -49.2443 C.3       23 UNK        -0.0205 
     16 S16         1.7169  -20.0078  -48.6193 S.3       23 UNK        -0.2404 
     17 C17         0.4744  -19.7217  -47.3175 C.3       23 UNK        -0.0398 
     18 CA          0.2613  -20.9904  -46.4498 C.3       11 UNK         0.1400 
     19 N          -0.3305  -20.6849  -45.1559 N.am      11 UNK        -0.5000 
     20 C           0.2924  -20.2235  -44.0738 C.2       10 UNK         0.5000 
     21 O           1.4844  -19.9031  -44.0440 O.2       10 UNK        -0.5000 
     22 CA         -0.5730  -20.1494  -42.8094 C.3       10 UNK         0.1400 
     23 CB         -0.8877  -21.5603  -42.2742 C.3       10 UNK        -0.1800 
     24 N           0.0943  -19.3614  -41.7774 N.am      10 UNK        -0.5000 
     25 C          -0.5365  -18.7546  -40.7634 C.2       9 UNK         0.5000 
     26 O          -1.7570  -18.8105  -40.6034 O.2       9 UNK        -0.5000 
     27 CA          0.3387  -17.9949  -39.7480 C.3       9 UNK         0.1400 
     28 CB         -0.4049  -17.7013  -38.4268 C.3       9 UNK        -0.1800 
     29 N           1.5763  -18.7319  -39.4860 N.am      9 UNK        -0.5000 
     30 C           2.6868  -18.2090  -38.9489 C.2       8 UNK         0.5000 
     31 O           2.8051  -17.0257  -38.6288 O.2       8 UNK        -0.5000 
     32 CA          3.8725  -19.1721  -38.7407 C.3       8 UNK         0.1400 
     33 CB          3.7189  -19.9419  -37.4198 C.3       8 UNK        -0.1800 
     34 N           4.0340  -20.1257  -39.8415 N.am      8 UNK        -0.5000 
     35 C           4.4084  -19.7841  -41.0817 C.2       7 UNK         0.5000 
     36 O           4.7011  -18.6284  -41.3971 O.2       7 UNK        -0.5000 
     37 CA          4.4543  -20.9111  -42.1369 C.3       7 UNK         0.1400 
     38 CB          3.3587  -21.9737  -41.9216 C.3       7 UNK        -0.1800 
     39 N           4.2885  -20.3474  -43.4736 N.am      7 UNK        -0.5000 
     40 C           5.2792  -19.9100  -44.2641 C.2       6 UNK         0.5000 
     41 O           6.4758  -20.0682  -44.0177 O.2       6 UNK        -0.5000 
     42 CA          4.8622  -19.1480  -45.5350 C.3       6 UNK         0.1400 
     43 CB          4.6934  -20.1211  -46.7096 C.3       6 UNK        -0.1800 
     44 N           3.6093  -18.4247  -45.3101 N.am      6 UNK        -0.5000 
     45 C           3.5257  -17.1220  -45.0217 C.2       5 UNK         0.5000 
     46 O           4.4636  -16.3258  -45.1139 O.2       5 UNK        -0.5000 
     47 CA          2.1727  -16.6598  -44.4560 C.3       5 UNK         0.1400 
     48 CB          2.1537  -16.8330  -42.9303 C.3       5 UNK        -0.1800 
     49 N           1.8717  -15.2647  -44.7464 N.am      5 UNK        -0.5000 
     50 C           1.5341  -14.7641  -45.9381 C.2       4 UNK         0.5000 
     51 O           1.5130  -15.4245  -46.9770 O.2       4 UNK        -0.5000 
     52 CA          1.0912  -13.2844  -45.9381 C.3       4 UNK         0.1400 
     53 CB          0.6024  -12.8089  -47.3183 C.3       4 UNK        -0.1800 
     54 N           0.0237  -13.0615  -44.9594 N.am      4 UNK        -0.5000 
     55 C           0.1891  -12.8960  -43.6395 C.2       3 UNK         0.5000 
     56 O           1.2915  -12.8229  -43.0958 O.2       3 UNK        -0.5000 
     57 CA         -1.0861  -12.9012  -42.7825 C.3       3 UNK         0.1400 
     58 CB         -1.8581  -11.5791  -42.9195 C.3       3 UNK        -0.1800 
     59 N          -1.9431  -14.0233  -43.1682 N.am      3 UNK        -0.5000 
     60 C          -1.8561  -15.2557  -42.6447 C.2       2 UNK         0.5000 
     61 O          -1.1127  -15.5414  -41.7075 O.2       2 UNK        -0.5000 
     62 CA         -2.7380  -16.3596  -43.2644 C.3       2 UNK         0.1400 
     63 CB         -4.0215  -16.5513  -42.4437 C.3       2 UNK        -0.1800 
     64 N          -3.0980  -16.0718  -44.6527 N.am      2 UNK        -0.5000 
     65 C          -2.2948  -16.2873  -45.7038 C.2       1 UNK         0.5000 
     66 O          -1.2346  -16.9065  -45.6277 O.2       1 UNK        -0.5000 
     67 C          -0.6764  -22.0146  -47.1188 C.2       11 UNK         0.5000 
     68 O          -1.8065  -22.1999  -46.6537 O.2       11 UNK        -0.5000 
     69 N          -0.2296  -22.6340  -48.2187 N.am      12 UNK        -0.5000 
     70 CA         -1.0059  -23.5984  -49.0069 C.3       12 UNK         0.1400 
     71 CB         -0.1429  -24.1312  -50.1591 C.3       12 UNK        -0.1800 
     72 C          -2.3305  -23.0260  -49.5469 C.2       12 UNK         0.5000 
     73 O          -3.3196  -23.7533  -49.6212 O.2       12 UNK        -0.5000 
     74 N          -2.3377  -21.7258  -49.8664 N.am      13 UNK        -0.5000 
     75 CA         -3.5258  -20.9799  -50.2771 C.3       13 UNK         0.1400 
     76 CB         -3.0848  -19.6560  -50.9063 C.3       13 UNK        -0.1800 
     77 C          -4.5226  -20.7314  -49.1287 C.2       13 UNK         0.5000 
     78 O          -5.7271  -20.6967  -49.3774 O.2       13 UNK        -0.5000 
     79 N          -4.0177  -20.5883  -47.8936 N.am      14 UNK        -0.5000 
     80 CA         -4.8350  -20.4455  -46.6842 C.3       14 UNK         0.1400 
     81 CB         -3.9897  -19.8455  -45.5476 C.3       14 UNK        -0.1800 
     82 C          -5.4359  -21.7955  -46.2548 C.2       14 UNK         0.5000 
     83 O          -6.5895  -21.8469  -45.8288 O.2       14 UNK        -0.5000 
     84 N          -4.6444  -22.8662  -46.4079 N.am      15 UNK        -0.5000 
     85 CA         -5.0371  -24.2540  -46.1596 C.3       15 UNK         0.1400 
     86 CB         -3.7618  -25.1075  -46.0722 C.3       15 UNK        -0.1800 
     87 C          -5.9889  -24.8275  -47.2307 C.2       15 UNK         0.5000 
     88 O          -6.5935  -25.8739  -46.9950 O.2       15 UNK        -0.5000 
     89 N          -6.0792  -24.1518  -48.3868 N.am      16 UNK        -0.5000 
     90 CA         -6.8059  -24.5363  -49.6027 C.3       16 UNK         0.1400 
     91 CB         -8.3250  -24.6224  -49.3475 C.3       16 UNK        -0.1800 
     92 C          -6.2283  -25.8011  -50.2757 C.2       16 UNK         0.5000 
     93 O          -6.9475  -26.5203  -50.9713 O.2       16 UNK        -0.5000 
     94 N          -4.9255  -26.0331  -50.0729 N.am      17 UNK        -0.5000 
     95 CA         -4.1314  -27.0638  -50.7389 C.3       17 UNK         0.1400 
     96 CB         -2.9369  -27.4202  -49.8404 C.3       17 UNK        -0.1800 
     97 C          -3.6462  -26.5941  -52.1240 C.2       17 UNK         0.5000 
     98 O          -3.3740  -27.4277  -52.9886 O.2       17 UNK        -0.5000 
     99 N          -3.5622  -25.2722  -52.3077 N.am      18 UNK        -0.5000 
    100 CA        -3.2657  -24.5874  -53.5589 C.3       18 UNK         0.1400 
    101 CB        -1.8424  -24.0085  -53.4828 C.3       18 UNK        -0.1800 
    102 C         -4.2952  -23.4654  -53.7616 C.2       18 UNK         0.5000 
    103 O         -5.0089  -23.1025  -52.8222 O.2       18 UNK        -0.5000 
    104 N         -4.3381  -22.9181  -54.9805 N.am      19 UNK        -0.5000 
    105 CA        -5.0802  -21.7003  -55.3014 C.3       19 UNK         0.1400 
    106 CB        -5.3340  -21.6543  -56.8166 C.3       19 UNK        -0.1800 
    107 C         -4.2837  -20.4610  -54.8570 C.2       19 UNK         0.5000 
    108 O         -3.0515  -20.4870  -54.8838 O.2       19 UNK        -0.5000 
    109 N         -4.9968  -19.3859  -54.4977 N.am      20 UNK        -0.5000 
    110 CA        -4.4052  -18.1037  -54.1017 C.3       20 UNK         0.1400 
    111 CB        -5.4589  -17.2629  -53.3662 C.3       20 UNK        -0.1800 
    112 C         -3.8026  -17.3161  -55.2814 C.2       20 UNK         0.5000 
    113 O         -2.9222  -16.4831  -55.0688 O.2       20 UNK        -0.5000 
    114 N         -4.2578  -17.6047  -56.5071 N.am      21 UNK        -0.5000 
    115 CA        -3.7925  -16.9992  -57.7561 C.3       21 UNK         0.1400 
    116 CB        -4.9308  -17.0804  -58.7900 C.3       21 UNK        -0.1800 
    117 C         -2.4783  -17.6352  -58.2643 C.2       21 UNK         0.5000 
    118 O         -2.3886  -18.0138  -59.4338 O.2       21 UNK        -0.5000 
    119 N         -1.4830  -17.7560  -57.3774 N.am      22 UNK        -0.5000 
    120 CA        -0.1491  -18.3038  -57.6764 C.3       22 UNK         0.1400 
    121 C          0.8299  -17.3082  -58.3685 C.2       22 UNK         0.5000 
    122 N          0.4958  -16.0308  -58.5099 N.am      22 UNK        -0.7600 
    123 O          1.9069  -17.7070  -58.8039 O.2       22 UNK        -0.5000 
    124 C124        0.4861  -18.9931  -56.4407 C.3       23 UNK        -0.0398 
    125 S125        0.7366  -17.8947  -54.9997 S.3       23 UNK        -0.2404 
    126 C126       -0.2576  -18.7571  -53.7478 C.3       23 UNK        -0.0205 
    127 H127       -5.7606  -13.0582  -46.9693 H         1 UNK         0.0600 
    128 H128       -4.6690  -11.6714  -47.0461 H         1 UNK         0.0600 
    129 H129       -5.2059  -12.2868  -45.4793 H         1 UNK         0.0600 
    130 H130       -4.6914  -14.9784  -47.4011 H         1 UNK         0.3000 
    131 H131       -1.8566  -15.1746  -47.4362 H         1 UNK         0.0600 
    132 H132       -2.2189  -17.4977  -48.2106 H         1 UNK         0.0800 
    133 H133       -3.8856  -17.4401  -47.7095 H         1 UNK         0.0800 
    134 H134       -1.6066  -14.7604  -49.6419 H         1 UNK         0.0800 
    135 H135       -2.2783  -14.8581  -51.2408 H         1 UNK         0.0800 
    136 H136       -1.8383  -16.7919  -52.7135 H         1 UNK         0.1150 
    137 H137        1.5467  -19.2420  -51.7620 H         1 UNK         0.1150 
    138 H138        0.0275  -16.4655  -48.8704 H         1 UNK         0.1150 
    139 H139        2.9578  -18.2980  -49.7602 H         1 UNK         0.0800 
    140 H140        2.0823  -17.6281  -48.4090 H         1 UNK         0.0800 
    141 H141       -0.4584  -19.3715  -47.7628 H         1 UNK         0.0800 
    142 H142        0.8340  -18.8994  -46.6979 H         1 UNK         0.0800 
    143 H143        1.2191  -21.4836  -46.2686 H         1 UNK         0.0600 
    144 H144       -1.2903  -21.0001  -45.0891 H         1 UNK         0.3000 
    145 H145       -1.5067  -19.6547  -43.0856 H         1 UNK         0.0600 
    146 H146       -1.5402  -21.5180  -41.4020 H         1 UNK         0.0600 
    147 H147       -1.3992  -22.1659  -43.0233 H         1 UNK         0.0600 
    148 H148        0.0185  -22.0930  -41.9856 H         1 UNK         0.0600 
    149 H149        1.0878  -19.2364  -41.9127 H         1 UNK         0.3000 
    150 H150        0.5966  -17.0415  -40.2118 H         1 UNK         0.0600 
    151 H151       -1.3146  -17.1275  -38.6087 H         1 UNK         0.0600 
    152 H152        0.2066  -17.1144  -37.7419 H         1 UNK         0.0600 
    153 H153       -0.6900  -18.6219  -37.9165 H         1 UNK         0.0600 
    154 H154        1.5596  -19.7172  -39.7083 H         1 UNK         0.3000 
    155 H155        4.7814  -18.5697  -38.6768 H         1 UNK         0.0600 
    156 H156        2.8397  -20.5873  -37.4271 H         1 UNK         0.0600 
    157 H157        3.6147  -19.2553  -36.5785 H         1 UNK         0.0600 
    158 H158        4.5917  -20.5647  -37.2225 H         1 UNK         0.0600 
    159 H159        3.8239  -21.0926  -39.6406 H         1 UNK         0.3000 
    160 H160        5.4276  -21.3995  -42.0598 H         1 UNK         0.0600 
    161 H161        2.3684  -21.5232  -41.8577 H         1 UNK         0.0600 
    162 H162        3.5268  -22.5435  -41.0074 H         1 UNK         0.0600 
    163 H163        3.3425  -22.6915  -42.7420 H         1 UNK         0.0600 
    164 H164        3.3295  -20.1578  -43.7452 H         1 UNK         0.3000 
    165 H165        5.6658  -18.4522  -45.7850 H         1 UNK         0.0600 
    166 H166        4.4921  -19.5817  -47.6347 H         1 UNK         0.0600 
    167 H167        5.6011  -20.7046  -46.8685 H         1 UNK         0.0600 
    168 H168        3.8762  -20.8229  -46.5392 H         1 UNK         0.0600 
    169 H169        2.7880  -18.9970  -45.1435 H         1 UNK         0.3000 
    170 H170        1.3811  -17.2730  -44.8905 H         1 UNK         0.0600 
    171 H171        2.3998  -17.8538  -42.6427 H         1 UNK         0.0600 
    172 H172        2.8764  -16.1791  -42.4405 H         1 UNK         0.0600 
    173 H173        1.1686  -16.6073  -42.5265 H         1 UNK         0.0600 
    174 H174        1.8823  -14.6271  -43.9595 H         1 UNK         0.3000 
    175 H175        1.9606  -12.6829  -45.6651 H         1 UNK         0.0600 
    176 H176       -0.2682  -13.3723  -47.6543 H         1 UNK         0.0600 
    177 H177        0.3279  -11.7542  -47.2961 H         1 UNK         0.0600 
    178 H178        1.3820  -12.9257  -48.0721 H         1 UNK         0.0600 
    179 H179       -0.9267  -13.1127  -45.3201 H         1 UNK         0.3000 
    180 H180       -0.7913  -13.0055  -41.7361 H         1 UNK         0.0600 
    181 H181       -2.1695  -11.3881  -43.9465 H         1 UNK         0.0600 
    182 H182       -1.2418  -10.7365  -42.6039 H         1 UNK         0.0600 
    183 H183       -2.7514  -11.5801  -42.2948 H         1 UNK         0.0600 
    184 H184       -2.5302  -13.8725  -43.9786 H         1 UNK         0.3000 
    185 H185       -2.1718  -17.2924  -43.2283 H         1 UNK         0.0600 
    186 H186       -3.7862  -16.7966  -41.4070 H         1 UNK         0.0600 
    187 H187       -4.6363  -15.6506  -42.4381 H         1 UNK         0.0600 
    188 H188       -4.6235  -17.3690  -42.8404 H         1 UNK         0.0600 
    189 H189       -3.9654  -15.5787  -44.8072 H         1 UNK         0.3000 
    190 H190        0.6961  -22.4124  -48.5598 H         1 UNK         0.3000 
    191 H191       -1.2548  -24.4355  -48.3519 H         1 UNK         0.0600 
    192 H192       -0.6886  -24.8707  -50.7466 H         1 UNK         0.0600 
    193 H193        0.7578  -24.6180  -49.7848 H         1 UNK         0.0600 
    194 H194        0.1634  -23.3330  -50.8365 H         1 UNK         0.0600 
    195 H195       -1.4741  -21.2083  -49.7979 H         1 UNK         0.3000 
    196 H196       -4.0480  -21.5566  -51.0401 H         1 UNK         0.0600 
    197 H197       -2.4595  -19.0776  -50.2263 H         1 UNK         0.0600 
    198 H198       -2.5172  -19.8311  -51.8200 H         1 UNK         0.0600 
    199 H199       -3.9456  -19.0396  -51.1664 H         1 UNK         0.0600 
    200 H200       -3.0259  -20.7164  -47.7561 H         1 UNK         0.3000 
    201 H201       -5.6547  -19.7560  -46.8978 H         1 UNK         0.0600 
    202 H202       -3.2521  -20.5523  -45.1702 H         1 UNK         0.0600 
    203 H203       -4.6222  -19.5614  -44.7058 H         1 UNK         0.0600 
    204 H204       -3.4593  -18.9525  -45.8709 H         1 UNK         0.0600 
    205 H205       -3.6837  -22.7149  -46.6999 H         1 UNK         0.3000 
    206 H206       -5.5524  -24.3011  -45.1982 H         1 UNK         0.0600 
    207 H207       -3.0884  -24.7351  -45.2998 H         1 UNK         0.0600 
    208 H208       -3.9991  -26.1432  -45.8258 H         1 UNK         0.0600 
    209 H209       -3.2177  -25.1122  -47.0171 H         1 UNK         0.0600 
    210 H210       -5.5054  -23.3248  -48.4754 H         1 UNK         0.3000 
    211 H211       -6.6409  -23.7241  -50.3125 H         1 UNK         0.0600 
    212 H212       -8.8714  -24.7384  -50.2841 H         1 UNK         0.0600 
    213 H213       -8.6954  -23.7167  -48.8672 H         1 UNK         0.0600 
    214 H214       -8.5842  -25.4702  -48.7132 H         1 UNK         0.0600 
    215 H215       -4.4030  -25.3344  -49.5531 H         1 UNK         0.3000 
    216 H216       -4.7410  -27.9591  -50.8775 H         1 UNK         0.0600 
    217 H217       -2.2935  -26.5577  -49.6644 H         1 UNK         0.0600 
    218 H218       -2.3251  -28.2005  -50.2948 H         1 UNK         0.0600 
    219 H219       -3.2709  -27.7911  -48.8712 H         1 UNK         0.0600 
    220 H220       -3.8520  -24.6619  -51.5519 H         1 UNK         0.3000 
    221 H221       -3.3387  -25.2778  -54.4017 H         1 UNK         0.0600 
    222 H222       -1.7520  -23.2703  -52.6849 H         1 UNK         0.0600 
    223 H223       -1.5665  -23.5152  -54.4155 H         1 UNK         0.0600 
    224 H224       -1.1071  -24.7924  -53.3012 H         1 UNK         0.0600 
    225 H225       -3.6901  -23.2405  -55.6844 H         1 UNK         0.3000 
    226 H226       -6.0425  -21.7143  -54.7848 H         1 UNK         0.0600 
    227 H227       -4.4013  -21.6178  -57.3815 H         1 UNK         0.0600 
    228 H228       -5.8933  -22.5290  -57.1490 H         1 UNK         0.0600 
    229 H229       -5.9175  -20.7743  -57.0900 H         1 UNK         0.0600 
    230 H230       -6.0057  -19.4363  -54.5011 H         1 UNK         0.3000 
    231 H231       -3.5912  -18.3037  -53.4051 H         1 UNK         0.0600 
    232 H232       -6.3079  -17.0271  -54.0090 H         1 UNK         0.0600 
    233 H233       -5.0331  -16.3190  -53.0224 H         1 UNK         0.0600 
    234 H234       -5.8359  -17.7843  -52.4861 H         1 UNK         0.0600 
    235 H235       -4.9568  -18.3267  -56.5941 H         1 UNK         0.3000 
    236 H236       -3.5850  -15.9418  -57.5789 H         1 UNK         0.0600 
    237 H237       -5.8324  -16.5896  -58.4231 H         1 UNK         0.0600 
    238 H238       -4.6522  -16.5852  -59.7212 H         1 UNK         0.0600 
    239 H239       -5.1847  -18.1140  -59.0289 H         1 UNK         0.0600 
    240 H240       -1.6249  -17.3994  -56.4392 H         1 UNK         0.3000 
    241 H241       -0.2909  -19.0972  -58.4128 H         1 UNK         0.0600 
    242 H242        1.1343  -15.3977  -58.9658 H         1 UNK         0.3800 
    243 H243       -0.3806  -15.6878  -58.1515 H         1 UNK         0.3800 
    244 H244        1.4486  -19.4354  -56.7031 H         1 UNK         0.0800 
    245 H245       -0.1437  -19.8344  -56.1471 H         1 UNK         0.0800 
    246 H246        0.0626  -19.7977  -53.6748 H         1 UNK         0.0800 
    247 H247       -1.2963  -18.7765  -54.0735 H         1 UNK         0.0800 
@<TRIPOS>BOND
     1    1    2 1    
     2    1  127 1    
     3    1  128 1    
     4    1  129 1    
     5    2    3 2    
     6    2    4 am   BACKBONE|DICT|INTERRES
     7    4    5 1    
     8    4  130 1    
     9    5    6 1    
    10    5   65 1    
    11    5  131 1    
    12    6    7 1    
    13    6  132 1    
    14    6  133 1    
    15    7    8 1    
    16    8    9 1    
    17    8  134 1    
    18    8  135 1    
    19    9   10 ar   
    20    9   14 ar   
    21   10   11 ar   
    22   10  136 1    
    23   11   12 ar   
    24   11  126 1    
    25   12   13 ar   
    26   12  137 1    
    27   13   14 ar   
    28   13   15 1    
    29   14  138 1    
    30   15   16 1    
    31   15  139 1    
    32   15  140 1    
    33   16   17 1    
    34   17   18 1    
    35   17  141 1    
    36   17  142 1    
    37   18   19 1    
    38   18   67 1    
    39   18  143 1    
    40   19   20 am   BACKBONE|DICT|INTERRES
    41   19  144 1    
    42   20   21 2    
    43   20   22 1    
    44   22   23 1    
    45   22   24 1    
    46   22  145 1    
    47   23  146 1    
    48   23  147 1    
    49   23  148 1    
    50   24   25 am   BACKBONE|DICT|INTERRES
    51   24  149 1    
    52   25   26 2    
    53   25   27 1    
    54   27   28 1    
    55   27   29 1    
    56   27  150 1    
    57   28  151 1    
    58   28  152 1    
    59   28  153 1    
    60   29   30 am   BACKBONE|DICT|INTERRES
    61   29  154 1    
    62   30   31 2    
    63   30   32 1    
    64   32   33 1    
    65   32   34 1    
    66   32  155 1    
    67   33  156 1    
    68   33  157 1    
    69   33  158 1    
    70   34   35 am   BACKBONE|DICT|INTERRES
    71   34  159 1    
    72   35   36 2    
    73   35   37 1    
    74   37   38 1    
    75   37   39 1    
    76   37  160 1    
    77   38  161 1    
    78   38  162 1    
    79   38  163 1    
    80   39   40 am   BACKBONE|DICT|INTERRES
    81   39  164 1    
    82   40   41 2    
    83   40   42 1    
    84   42   43 1    
    85   42   44 1    
    86   42  165 1    
    87   43  166 1    
    88   43  167 1    
    89   43  168 1    
    90   44   45 am   BACKBONE|DICT|INTERRES
    91   44  169 1    
    92   45   46 2    
    93   45   47 1    
    94   47   48 1    
    95   47   49 1    
    96   47  170 1    
    97   48  171 1    
    98   48  172 1    
    99   48  173 1    
   100   49   50 am   BACKBONE|DICT|INTERRES
   101   49  174 1    
   102   50   51 2    
   103   50   52 1    
   104   52   53 1    
   105   52   54 1    
   106   52  175 1    
   107   53  176 1    
   108   53  177 1    
   109   53  178 1    
   110   54   55 am   BACKBONE|DICT|INTERRES
   111   54  179 1    
   112   55   56 2    
   113   55   57 1    
   114   57   58 1    
   115   57   59 1    
   116   57  180 1    
   117   58  181 1    
   118   58  182 1    
   119   58  183 1    
   120   59   60 am   BACKBONE|DICT|INTERRES
   121   59  184 1    
   122   60   61 2    
   123   60   62 1    
   124   62   63 1    
   125   62   64 1    
   126   62  185 1    
   127   63  186 1    
   128   63  187 1    
   129   63  188 1    
   130   64   65 am   BACKBONE|DICT|INTERRES
   131   64  189 1    
   132   65   66 2    
   133   67   68 2    
   134   67   69 am   BACKBONE|DICT|INTERRES
   135   69   70 1    
   136   69  190 1    
   137   70   71 1    
   138   70   72 1    
   139   70  191 1    
   140   71  192 1    
   141   71  193 1    
   142   71  194 1    
   143   72   73 2    
   144   72   74 am   BACKBONE|DICT|INTERRES
   145   74   75 1    
   146   74  195 1    
   147   75   76 1    
   148   75   77 1    
   149   75  196 1    
   150   76  197 1    
   151   76  198 1    
   152   76  199 1    
   153   77   78 2    
   154   77   79 am   BACKBONE|DICT|INTERRES
   155   79   80 1    
   156   79  200 1    
   157   80   81 1    
   158   80   82 1    
   159   80  201 1    
   160   81  202 1    
   161   81  203 1    
   162   81  204 1    
   163   82   83 2    
   164   82   84 am   BACKBONE|DICT|INTERRES
   165   84   85 1    
   166   84  205 1    
   167   85   86 1    
   168   85   87 1    
   169   85  206 1    
   170   86  207 1    
   171   86  208 1    
   172   86  209 1    
   173   87   88 2    
   174   87   89 am   BACKBONE|DICT|INTERRES
   175   89   90 1    
   176   89  210 1    
   177   90   91 1    
   178   90   92 1    
   179   90  211 1    
   180   91  212 1    
   181   91  213 1    
   182   91  214 1    
   183   92   93 2    
   184   92   94 am   BACKBONE|DICT|INTERRES
   185   94   95 1    
   186   94  215 1    
   187   95   96 1    
   188   95   97 1    
   189   95  216 1    
   190   96  217 1    
   191   96  218 1    
   192   96  219 1    
   193   97   98 2    
   194   97   99 am   BACKBONE|DICT|INTERRES
   195   99  100 1    
   196   99  220 1    
   197  100  101 1    
   198  100  102 1    
   199  100  221 1    
   200  101  222 1    
   201  101  223 1    
   202  101  224 1    
   203  102  103 2    
   204  102  104 am   BACKBONE|DICT|INTERRES
   205  104  105 1    
   206  104  225 1    
   207  105  106 1    
   208  105  107 1    
   209  105  226 1    
   210  106  227 1    
   211  106  228 1    
   212  106  229 1    
   213  107  108 2    
   214  107  109 am   BACKBONE|DICT|INTERRES
   215  109  110 1    
   216  109  230 1    
   217  110  111 1    
   218  110  112 1    
   219  110  231 1    
   220  111  232 1    
   221  111  233 1    
   222  111  234 1    
   223  112  113 2    
   224  112  114 am   BACKBONE|DICT|INTERRES
   225  114  115 1    
   226  114  235 1    
   227  115  116 1    
   228  115  117 1    
   229  115  236 1    
   230  116  237 1    
   231  116  238 1    
   232  116  239 1    
   233  117  118 2    
   234  117  119 am   BACKBONE|DICT|INTERRES
   235  119  120 1    
   236  119  240 1    
   237  120  121 1    
   238  120  124 1    
   239  120  241 1    
   240  121  122 am   BACKBONE|DICT|INTERRES
   241  121  123 2    
   242  122  242 1    
   243  122  243 1    
   244  124  125 1    
   245  124  244 1    
   246  124  245 1    
   247  125  126 1    
   248  126  246 1    
   249  126  247 1    
@<TRIPOS>SUBSTRUCTURE
     1 UNK         1 GROUP             0       ****    0 ROOT    
