@<TRIPOS>MOLECULE
3R540
247   249    1
SMALL
USER_CHARGES


@<TRIPOS>ATOM
      1 CA          7.8041  -10.9967  -47.8106 C.3       0 UNK        -0.1800 
      2 C           6.7096  -11.9811  -47.4256 C.2       0 UNK         0.5000 
      3 O           5.7041  -11.5820  -46.8383 O.2       0 UNK        -0.5000 
      4 N           6.8905  -13.2643  -47.7672 N.am      1 UNK        -0.5000 
      5 CA          5.9557  -14.3625  -47.4782 C.3       1 UNK         0.1400 
      6 C6          6.5824  -15.7444  -47.7858 C.3       23 UNK        -0.0398 
      7 S7          7.0179  -15.9925  -49.5468 S.3       23 UNK        -0.2404 
      8 C8          6.2942  -17.6269  -49.8964 C.3       23 UNK        -0.0205 
      9 C9          4.7718  -17.6100  -49.9460 C.ar      23 UNK        -0.0193 
     10 C10         4.1072  -17.1946  -51.1055 C.ar      23 UNK        -0.1150 
     11 C11         2.7114  -17.2525  -51.1842 C.ar      23 UNK        -0.0193 
     12 C12         1.9834  -17.7134  -50.0852 C.ar      23 UNK        -0.1150 
     13 C13         2.6318  -18.1022  -48.9125 C.ar      23 UNK        -0.0193 
     14 C14         4.0266  -18.0601  -48.8511 C.ar      23 UNK        -0.1150 
     15 C15         1.8152  -18.5609  -47.7170 C.3       23 UNK        -0.0205 
     16 S16         1.0017  -20.1540  -48.0185 S.3       23 UNK        -0.2404 
     17 C17         2.4141  -21.3189  -48.0519 C.3       23 UNK        -0.0398 
     18 CA          2.0677  -22.7284  -47.5021 C.3       11 UNK         0.1400 
     19 N           1.5545  -22.6583  -46.1286 N.am      11 UNK        -0.5000 
     20 C           1.2707  -23.6887  -45.3208 C.2       10 UNK         0.5000 
     21 O           1.3141  -24.8634  -45.6859 O.2       10 UNK        -0.5000 
     22 CA          0.8261  -23.3651  -43.8747 C.3       10 UNK         0.1400 
     23 CB          1.6665  -24.1331  -42.8354 C.3       10 UNK        -0.1800 
     24 N           0.7585  -21.9309  -43.5497 N.am      10 UNK        -0.5000 
     25 C           1.7583  -21.0396  -43.4528 C.2       9 UNK         0.5000 
     26 O           2.9468  -21.3246  -43.5997 O.2       9 UNK        -0.5000 
     27 CA          1.3291  -19.5698  -43.2521 C.3       9 UNK         0.1400 
     28 CB          2.5086  -18.5840  -43.3395 C.3       9 UNK        -0.1800 
     29 N           0.3433  -19.2094  -44.2718 N.am      9 UNK        -0.5000 
     30 C          -0.9813  -19.3450  -44.1483 C.2       8 UNK         0.5000 
     31 O          -1.5466  -19.6865  -43.1077 O.2       8 UNK        -0.5000 
     32 CA         -1.7812  -19.2082  -45.4506 C.3       8 UNK         0.1400 
     33 CB         -1.9686  -20.5965  -46.0819 C.3       8 UNK        -0.1800 
     34 N          -3.0923  -18.5982  -45.2566 N.am      8 UNK        -0.5000 
     35 C          -3.2925  -17.3125  -44.9595 C.2       7 UNK         0.5000 
     36 O          -2.3868  -16.4941  -44.7755 O.2       7 UNK        -0.5000 
     37 CA         -4.7527  -16.8531  -44.8757 C.3       7 UNK         0.1400 
     38 CB         -5.3010  -17.0105  -43.4461 C.3       7 UNK        -0.1800 
     39 N          -4.7822  -15.4594  -45.2933 N.am      7 UNK        -0.5000 
     40 C          -5.8542  -14.7477  -45.6520 C.2       6 UNK         0.5000 
     41 O          -7.0108  -15.1666  -45.6022 O.2       6 UNK        -0.5000 
     42 CA         -5.5753  -13.3241  -46.1696 C.3       6 UNK         0.1400 
     43 CB         -5.5396  -12.3225  -45.0049 C.3       6 UNK        -0.1800 
     44 N          -4.3159  -13.2403  -46.9156 N.am      6 UNK        -0.5000 
     45 C          -4.1420  -13.7179  -48.1576 C.2       5 UNK         0.5000 
     46 O          -5.0425  -14.2351  -48.8161 O.2       5 UNK        -0.5000 
     47 CA         -2.7351  -13.6046  -48.7694 C.3       5 UNK         0.1400 
     48 CB         -2.6277  -12.3439  -49.6402 C.3       5 UNK        -0.1800 
     49 N          -1.6991  -13.5564  -47.7396 N.am      5 UNK        -0.5000 
     50 C          -0.9163  -14.5776  -47.3752 C.2       4 UNK         0.5000 
     51 O          -0.9311  -15.6778  -47.9294 O.2       4 UNK        -0.5000 
     52 CA          0.0666  -14.2846  -46.2195 C.3       4 UNK         0.1400 
     53 CB          0.8548  -15.5237  -45.7632 C.3       4 UNK        -0.1800 
     54 N           1.0146  -13.2325  -46.5880 N.am      4 UNK        -0.5000 
     55 C           0.7408  -11.9196  -46.6385 C.2       3 UNK         0.5000 
     56 O          -0.3338  -11.4407  -46.2713 O.2       3 UNK        -0.5000 
     57 CA          1.8142  -10.9901  -47.2432 C.3       3 UNK         0.1400 
     58 CB          2.6450  -10.3347  -46.1307 C.3       3 UNK        -0.1800 
     59 N           2.7126  -11.6767  -48.1735 N.am      3 UNK        -0.5000 
     60 C           2.3315  -12.2469  -49.3277 C.2       2 UNK         0.5000 
     61 O           1.2032  -12.1190  -49.8024 O.2       2 UNK        -0.5000 
     62 CA          3.3581  -13.1335  -50.0635 C.3       2 UNK         0.1400 
     63 CB          3.7985  -12.4830  -51.3835 C.3       2 UNK        -0.1800 
     64 N           4.5498  -13.4653  -49.2832 N.am      2 UNK        -0.5000 
     65 C           4.5772  -14.1895  -48.1549 C.2       1 UNK         0.5000 
     66 O           3.5721  -14.6565  -47.6201 O.2       1 UNK        -0.5000 
     67 C           1.1440  -23.4976  -48.4726 C.2       11 UNK         0.5000 
     68 O           1.6293  -24.2877  -49.2831 O.2       11 UNK        -0.5000 
     69 N          -0.1664  -23.2498  -48.3585 N.am      12 UNK        -0.5000 
     70 CA         -1.2098  -23.7965  -49.2256 C.3       12 UNK         0.1400 
     71 CB         -2.0514  -22.6301  -49.7652 C.3       12 UNK        -0.1800 
     72 C          -2.0867  -24.8321  -48.4998 C.2       12 UNK         0.5000 
     73 O          -3.0528  -25.3209  -49.0869 O.2       12 UNK        -0.5000 
     74 N          -1.7435  -25.1737  -47.2489 N.am      13 UNK        -0.5000 
     75 CA         -2.4469  -26.1760  -46.4438 C.3       13 UNK         0.1400 
     76 CB         -1.9638  -26.1016  -44.9886 C.3       13 UNK        -0.1800 
     77 C          -2.2970  -27.6003  -47.0065 C.2       13 UNK         0.5000 
     78 O          -3.2502  -28.3764  -46.9505 O.2       13 UNK        -0.5000 
     79 N          -1.1325  -27.8935  -47.6031 N.am      14 UNK        -0.5000 
     80 CA         -0.8459  -29.1457  -48.3096 C.3       14 UNK         0.1400 
     81 CB          0.6566  -29.2076  -48.6234 C.3       14 UNK        -0.1800 
     82 C          -1.6744  -29.3188  -49.5998 C.2       14 UNK         0.5000 
     83 O          -1.9470  -30.4507  -50.0001 O.2       14 UNK        -0.5000 
     84 N          -2.0741  -28.1954  -50.2110 N.am      15 UNK        -0.5000 
     85 CA         -2.9483  -28.1349  -51.3834 C.3       15 UNK         0.1400 
     86 CB         -2.5414  -26.9154  -52.2285 C.3       15 UNK        -0.1800 
     87 C          -4.4418  -28.0533  -51.0046 C.2       15 UNK         0.5000 
     88 O          -5.2857  -28.0832  -51.9011 O.2       15 UNK        -0.5000 
     89 N          -4.7398  -27.9265  -49.7007 N.am      16 UNK        -0.5000 
     90 CA         -6.0576  -27.6882  -49.1017 C.3       16 UNK         0.1400 
     91 CB         -6.9829  -28.9069  -49.2995 C.3       16 UNK        -0.1800 
     92 C          -6.6909  -26.3581  -49.5679 C.2       16 UNK         0.5000 
     93 O          -7.9074  -26.2793  -49.7484 O.2       16 UNK        -0.5000 
     94 N          -5.8457  -25.3363  -49.7545 N.am      17 UNK        -0.5000 
     95 CA         -6.2010  -24.0144  -50.2697 C.3       17 UNK         0.1400 
     96 CB         -5.6304  -23.8683  -51.6917 C.3       17 UNK        -0.1800 
     97 C          -5.7141  -22.9055  -49.3189 C.2       17 UNK         0.5000 
     98 O          -5.4187  -21.7942  -49.7631 O.2       17 UNK        -0.5000 
     99 N          -5.6443  -23.2162  -48.0158 N.am      18 UNK        -0.5000 
    100 CA        -5.1432  -22.3363  -46.9548 C.3       18 UNK         0.1400 
    101 CB        -5.0954  -23.1120  -45.6306 C.3       18 UNK        -0.1800 
    102 C         -5.9244  -21.0199  -46.7767 C.2       18 UNK         0.5000 
    103 O         -5.3525  -20.0423  -46.2944 O.2       18 UNK        -0.5000 
    104 N         -7.2034  -21.0155  -47.1724 N.am      19 UNK        -0.5000 
    105 CA        -8.0653  -19.8337  -47.1743 C.3       19 UNK         0.1400 
    106 CB        -9.5313  -20.2923  -47.1314 C.3       19 UNK        -0.1800 
    107 C         -7.8255  -18.9146  -48.3891 C.2       19 UNK         0.5000 
    108 O         -8.1645  -17.7334  -48.3177 O.2       19 UNK        -0.5000 
    109 N         -7.2707  -19.4620  -49.4804 N.am      20 UNK        -0.5000 
    110 CA        -6.9336  -18.7192  -50.6944 C.3       20 UNK         0.1400 
    111 CB        -7.0941  -19.6293  -51.9231 C.3       20 UNK        -0.1800 
    112 C         -5.5072  -18.1590  -50.5998 C.2       20 UNK         0.5000 
    113 O         -5.3094  -16.9644  -50.8241 O.2       20 UNK        -0.5000 
    114 N         -4.5525  -19.0301  -50.2361 N.am      21 UNK        -0.5000 
    115 CA        -3.1423  -18.7292  -49.9750 C.3       21 UNK         0.1400 
    116 CB        -3.0317  -18.0172  -48.6159 C.3       21 UNK        -0.1800 
    117 C         -2.4661  -17.9717  -51.1410 C.2       21 UNK         0.5000 
    118 O         -2.5826  -18.4155  -52.2851 O.2       21 UNK        -0.5000 
    119 N         -1.7940  -16.8492  -50.8484 N.am      22 UNK        -0.5000 
    120 CA        -1.2423  -15.9214  -51.8514 C.3       22 UNK         0.1400 
    121 C         -2.2844  -14.9497  -52.4886 C.2       22 UNK         0.5000 
    122 N         -3.5703  -15.0206  -52.1647 N.am      22 UNK        -0.7600 
    123 O         -1.9222  -14.1110  -53.3083 O.2       22 UNK        -0.5000 
    124 C124        0.0128  -15.1753  -51.3098 C.3       23 UNK        -0.0398 
    125 S125        1.3999  -15.1550  -52.5008 S.3       23 UNK        -0.2404 
    126 C126        1.9899  -16.8811  -52.4722 C.3       23 UNK        -0.0205 
    127 H127        8.2056  -10.5155  -46.9188 H         1 UNK         0.0600 
    128 H128        7.3998  -10.2236  -48.4639 H         1 UNK         0.0600 
    129 H129        8.6262  -11.4877  -48.3320 H         1 UNK         0.0600 
    130 H130        7.7288  -13.5310  -48.2645 H         1 UNK         0.3000 
    131 H131        5.7675  -14.3310  -46.4028 H         1 UNK         0.0600 
    132 H132        5.9153  -16.5363  -47.4464 H         1 UNK         0.0800 
    133 H133        7.4928  -15.8685  -47.1981 H         1 UNK         0.0800 
    134 H134        6.6781  -17.9774  -50.8556 H         1 UNK         0.0800 
    135 H135        6.6467  -18.3447  -49.1539 H         1 UNK         0.0800 
    136 H136        4.6797  -16.8528  -51.9564 H         1 UNK         0.1150 
    137 H137        0.9065  -17.7825  -50.1402 H         1 UNK         0.1150 
    138 H138        4.5314  -18.3858  -47.9529 H         1 UNK         0.1150 
    139 H139        2.4273  -18.6127  -46.8157 H         1 UNK         0.0800 
    140 H140        1.0346  -17.8245  -47.5279 H         1 UNK         0.0800 
    141 H141        2.7927  -21.3806  -49.0739 H         1 UNK         0.0800 
    142 H142        3.2301  -20.8984  -47.4627 H         1 UNK         0.0800 
    143 H143        2.9999  -23.2950  -47.4526 H         1 UNK         0.0600 
    144 H144        1.5006  -21.7333  -45.7321 H         1 UNK         0.3000 
    145 H145       -0.1985  -23.7296  -43.7941 H         1 UNK         0.0600 
    146 H146        1.3276  -23.9235  -41.8209 H         1 UNK         0.0600 
    147 H147        1.5852  -25.2102  -42.9866 H         1 UNK         0.0600 
    148 H148        2.7244  -23.8770  -42.8966 H         1 UNK         0.0600 
    149 H149       -0.1770  -21.5726  -43.4044 H         1 UNK         0.3000 
    150 H150        0.8907  -19.4849  -42.2556 H         1 UNK         0.0600 
    151 H151        3.2509  -18.7935  -42.5684 H         1 UNK         0.0600 
    152 H152        2.1733  -17.5567  -43.1954 H         1 UNK         0.0600 
    153 H153        3.0127  -18.6382  -44.3052 H         1 UNK         0.0600 
    154 H154        0.7191  -18.9543  -45.1724 H         1 UNK         0.3000 
    155 H155       -1.2120  -18.5827  -46.1413 H         1 UNK         0.0600 
    156 H156       -1.0243  -21.1343  -46.1522 H         1 UNK         0.0600 
    157 H157       -2.6442  -21.2140  -45.4898 H         1 UNK         0.0600 
    158 H158       -2.3711  -20.5146  -47.0905 H         1 UNK         0.0600 
    159 H159       -3.8997  -19.1922  -45.4277 H         1 UNK         0.3000 
    160 H160       -5.3549  -17.4407  -45.5717 H         1 UNK         0.0600 
    161 H161       -4.7344  -16.4117  -42.7319 H         1 UNK         0.0600 
    162 H162       -5.2456  -18.0504  -43.1219 H         1 UNK         0.0600 
    163 H163       -6.3462  -16.7083  -43.3830 H         1 UNK         0.0600 
    164 H164       -3.8619  -15.0458  -45.3720 H         1 UNK         0.3000 
    165 H165       -6.3948  -13.0432  -46.8349 H         1 UNK         0.0600 
    166 H166       -4.7295  -12.5413  -44.3080 H         1 UNK         0.0600 
    167 H167       -5.4064  -11.3024  -45.3659 H         1 UNK         0.0600 
    168 H168       -6.4730  -12.3475  -44.4411 H         1 UNK         0.0600 
    169 H169       -3.5326  -12.8190  -46.4402 H         1 UNK         0.3000 
    170 H170       -2.5870  -14.4733  -49.4117 H         1 UNK         0.0600 
    171 H171       -3.3722  -12.3561  -50.4374 H         1 UNK         0.0600 
    172 H172       -2.7818  -11.4352  -49.0572 H         1 UNK         0.0600 
    173 H173       -1.6481  -12.2754  -50.1136 H         1 UNK         0.0600 
    174 H174       -1.5450  -12.6653  -47.2789 H         1 UNK         0.3000 
    175 H175       -0.5297  -13.9469  -45.3693 H         1 UNK         0.0600 
    176 H176        1.5394  -15.8651  -46.5375 H         1 UNK         0.0600 
    177 H177        1.4442  -15.3081  -44.8722 H         1 UNK         0.0600 
    178 H178        0.1881  -16.3505  -45.5187 H         1 UNK         0.0600 
    179 H179        1.9077  -13.5547  -46.9457 H         1 UNK         0.3000 
    180 H180        1.2961  -10.2034  -47.7953 H         1 UNK         0.0600 
    181 H181        3.1926  -11.0773  -45.5488 H         1 UNK         0.0600 
    182 H182        2.0074   -9.7805  -45.4407 H         1 UNK         0.0600 
    183 H183        3.3694   -9.6309  -46.5410 H         1 UNK         0.0600 
    184 H184        3.6648  -11.8147  -47.8577 H         1 UNK         0.3000 
    185 H185        2.8559  -14.0749  -50.2882 H         1 UNK         0.0600 
    186 H186        4.4444  -13.1503  -51.9545 H         1 UNK         0.0600 
    187 H187        2.9374  -12.2535  -52.0128 H         1 UNK         0.0600 
    188 H188        4.3392  -11.5515  -51.2121 H         1 UNK         0.0600 
    189 H189        5.4285  -13.1137  -49.6338 H         1 UNK         0.3000 
    190 H190       -0.4596  -22.5693  -47.6739 H         1 UNK         0.3000 
    191 H191       -0.7654  -24.3097  -50.0806 H         1 UNK         0.0600 
    192 H192       -2.8063  -22.9804  -50.4680 H         1 UNK         0.0600 
    193 H193       -1.4279  -21.9118  -50.2979 H         1 UNK         0.0600 
    194 H194       -2.5657  -22.0969  -48.9672 H         1 UNK         0.0600 
    195 H195       -0.9050  -24.7739  -46.8528 H         1 UNK         0.3000 
    196 H196       -3.5118  -25.9378  -46.4616 H         1 UNK         0.0600 
    197 H197       -2.4950  -26.8216  -44.3647 H         1 UNK         0.0600 
    198 H198       -2.1430  -25.1134  -44.5652 H         1 UNK         0.0600 
    199 H199       -0.8985  -26.3188  -44.9043 H         1 UNK         0.0600 
    200 H200       -0.4008  -27.1975  -47.5974 H         1 UNK         0.3000 
    201 H201       -1.0929  -29.9759  -47.6445 H         1 UNK         0.0600 
    202 H202        1.2524  -29.1608  -47.7116 H         1 UNK         0.0600 
    203 H203        0.9672  -28.3862  -49.2707 H         1 UNK         0.0600 
    204 H204        0.9121  -30.1395  -49.1296 H         1 UNK         0.0600 
    205 H205       -1.8259  -27.3083  -49.7980 H         1 UNK         0.3000 
    206 H206       -2.8113  -29.0317  -51.9911 H         1 UNK         0.0600 
    207 H207       -1.4922  -26.9690  -52.5194 H         1 UNK         0.0600 
    208 H208       -3.1287  -26.8612  -53.1460 H         1 UNK         0.0600 
    209 H209       -2.6933  -25.9799  -51.6892 H         1 UNK         0.0600 
    210 H210       -3.9700  -27.9319  -49.0451 H         1 UNK         0.3000 
    211 H211       -5.8857  -27.5792  -48.0300 H         1 UNK         0.0600 
    212 H212       -7.2574  -29.0441  -50.3457 H         1 UNK         0.0600 
    213 H213       -7.9072  -28.7916  -48.7324 H         1 UNK         0.0600 
    214 H214       -6.5046  -29.8237  -48.9547 H         1 UNK         0.0600 
    215 H215       -4.8559  -25.4741  -49.5562 H         1 UNK         0.3000 
    216 H216       -7.2853  -23.9051  -50.3282 H         1 UNK         0.0600 
    217 H217       -5.8879  -22.9030  -52.1282 H         1 UNK         0.0600 
    218 H218       -6.0304  -24.6376  -52.3525 H         1 UNK         0.0600 
    219 H219       -4.5444  -23.9588  -51.7005 H         1 UNK         0.0600 
    220 H220       -5.9141  -24.1488  -47.7403 H         1 UNK         0.3000 
    221 H221       -4.1238  -22.0657  -47.2245 H         1 UNK         0.0600 
    222 H222       -4.7470  -22.4777  -44.8143 H         1 UNK         0.0600 
    223 H223       -6.0784  -23.4933  -45.3520 H         1 UNK         0.0600 
    224 H224       -4.4107  -23.9557  -45.6925 H         1 UNK         0.0600 
    225 H225       -7.5979  -21.8705  -47.5353 H         1 UNK         0.3000 
    226 H226       -7.8658  -19.2485  -46.2737 H         1 UNK         0.0600 
    227 H227       -9.7308  -20.8932  -46.2440 H         1 UNK         0.0600 
    228 H228      -10.2074  -19.4368  -47.1015 H         1 UNK         0.0600 
    229 H229       -9.7933  -20.8873  -48.0072 H         1 UNK         0.0600 
    230 H230       -6.9471  -20.4199  -49.4376 H         1 UNK         0.3000 
    231 H231       -7.6202  -17.8783  -50.8145 H         1 UNK         0.0600 
    232 H232       -6.8737  -19.0828  -52.8408 H         1 UNK         0.0600 
    233 H233       -8.1145  -20.0038  -52.0043 H         1 UNK         0.0600 
    234 H234       -6.4246  -20.4885  -51.8871 H         1 UNK         0.0600 
    235 H235       -4.8210  -20.0025  -50.1117 H         1 UNK         0.3000 
    236 H236       -2.6329  -19.6895  -49.8919 H         1 UNK         0.0600 
    237 H237       -3.6097  -18.5508  -47.8645 H         1 UNK         0.0600 
    238 H238       -1.9972  -17.9917  -48.2760 H         1 UNK         0.0600 
    239 H239       -3.4120  -16.9952  -48.6465 H         1 UNK         0.0600 
    240 H240       -1.7271  -16.5543  -49.8814 H         1 UNK         0.3000 
    241 H241       -0.9234  -16.5391  -52.6916 H         1 UNK         0.0600 
    242 H242       -3.9378  -15.7337  -51.5420 H         1 UNK         0.3800 
    243 H243       -4.2142  -14.3809  -52.6006 H         1 UNK         0.3800 
    244 H244       -0.2236  -14.1422  -51.0497 H         1 UNK         0.0800 
    245 H245        0.3672  -15.6050  -50.3750 H         1 UNK         0.0800 
    246 H246        2.6612  -17.0259  -53.3198 H         1 UNK         0.0800 
    247 H247        1.1559  -17.5639  -52.6378 H         1 UNK         0.0800 
@<TRIPOS>BOND
     1    1    2 1    
     2    1  127 1    
     3    1  128 1    
     4    1  129 1    
     5    2    3 2    
     6    2    4 am   BACKBONE|DICT|INTERRES
     7    4    5 1    
     8    4  130 1    
     9    5    6 1    
    10    5   65 1    
    11    5  131 1    
    12    6    7 1    
    13    6  132 1    
    14    6  133 1    
    15    7    8 1    
    16    8    9 1    
    17    8  134 1    
    18    8  135 1    
    19    9   10 ar   
    20    9   14 ar   
    21   10   11 ar   
    22   10  136 1    
    23   11   12 ar   
    24   11  126 1    
    25   12   13 ar   
    26   12  137 1    
    27   13   14 ar   
    28   13   15 1    
    29   14  138 1    
    30   15   16 1    
    31   15  139 1    
    32   15  140 1    
    33   16   17 1    
    34   17   18 1    
    35   17  141 1    
    36   17  142 1    
    37   18   19 1    
    38   18   67 1    
    39   18  143 1    
    40   19   20 am   BACKBONE|DICT|INTERRES
    41   19  144 1    
    42   20   21 2    
    43   20   22 1    
    44   22   23 1    
    45   22   24 1    
    46   22  145 1    
    47   23  146 1    
    48   23  147 1    
    49   23  148 1    
    50   24   25 am   BACKBONE|DICT|INTERRES
    51   24  149 1    
    52   25   26 2    
    53   25   27 1    
    54   27   28 1    
    55   27   29 1    
    56   27  150 1    
    57   28  151 1    
    58   28  152 1    
    59   28  153 1    
    60   29   30 am   BACKBONE|DICT|INTERRES
    61   29  154 1    
    62   30   31 2    
    63   30   32 1    
    64   32   33 1    
    65   32   34 1    
    66   32  155 1    
    67   33  156 1    
    68   33  157 1    
    69   33  158 1    
    70   34   35 am   BACKBONE|DICT|INTERRES
    71   34  159 1    
    72   35   36 2    
    73   35   37 1    
    74   37   38 1    
    75   37   39 1    
    76   37  160 1    
    77   38  161 1    
    78   38  162 1    
    79   38  163 1    
    80   39   40 am   BACKBONE|DICT|INTERRES
    81   39  164 1    
    82   40   41 2    
    83   40   42 1    
    84   42   43 1    
    85   42   44 1    
    86   42  165 1    
    87   43  166 1    
    88   43  167 1    
    89   43  168 1    
    90   44   45 am   BACKBONE|DICT|INTERRES
    91   44  169 1    
    92   45   46 2    
    93   45   47 1    
    94   47   48 1    
    95   47   49 1    
    96   47  170 1    
    97   48  171 1    
    98   48  172 1    
    99   48  173 1    
   100   49   50 am   BACKBONE|DICT|INTERRES
   101   49  174 1    
   102   50   51 2    
   103   50   52 1    
   104   52   53 1    
   105   52   54 1    
   106   52  175 1    
   107   53  176 1    
   108   53  177 1    
   109   53  178 1    
   110   54   55 am   BACKBONE|DICT|INTERRES
   111   54  179 1    
   112   55   56 2    
   113   55   57 1    
   114   57   58 1    
   115   57   59 1    
   116   57  180 1    
   117   58  181 1    
   118   58  182 1    
   119   58  183 1    
   120   59   60 am   BACKBONE|DICT|INTERRES
   121   59  184 1    
   122   60   61 2    
   123   60   62 1    
   124   62   63 1    
   125   62   64 1    
   126   62  185 1    
   127   63  186 1    
   128   63  187 1    
   129   63  188 1    
   130   64   65 am   BACKBONE|DICT|INTERRES
   131   64  189 1    
   132   65   66 2    
   133   67   68 2    
   134   67   69 am   BACKBONE|DICT|INTERRES
   135   69   70 1    
   136   69  190 1    
   137   70   71 1    
   138   70   72 1    
   139   70  191 1    
   140   71  192 1    
   141   71  193 1    
   142   71  194 1    
   143   72   73 2    
   144   72   74 am   BACKBONE|DICT|INTERRES
   145   74   75 1    
   146   74  195 1    
   147   75   76 1    
   148   75   77 1    
   149   75  196 1    
   150   76  197 1    
   151   76  198 1    
   152   76  199 1    
   153   77   78 2    
   154   77   79 am   BACKBONE|DICT|INTERRES
   155   79   80 1    
   156   79  200 1    
   157   80   81 1    
   158   80   82 1    
   159   80  201 1    
   160   81  202 1    
   161   81  203 1    
   162   81  204 1    
   163   82   83 2    
   164   82   84 am   BACKBONE|DICT|INTERRES
   165   84   85 1    
   166   84  205 1    
   167   85   86 1    
   168   85   87 1    
   169   85  206 1    
   170   86  207 1    
   171   86  208 1    
   172   86  209 1    
   173   87   88 2    
   174   87   89 am   BACKBONE|DICT|INTERRES
   175   89   90 1    
   176   89  210 1    
   177   90   91 1    
   178   90   92 1    
   179   90  211 1    
   180   91  212 1    
   181   91  213 1    
   182   91  214 1    
   183   92   93 2    
   184   92   94 am   BACKBONE|DICT|INTERRES
   185   94   95 1    
   186   94  215 1    
   187   95   96 1    
   188   95   97 1    
   189   95  216 1    
   190   96  217 1    
   191   96  218 1    
   192   96  219 1    
   193   97   98 2    
   194   97   99 am   BACKBONE|DICT|INTERRES
   195   99  100 1    
   196   99  220 1    
   197  100  101 1    
   198  100  102 1    
   199  100  221 1    
   200  101  222 1    
   201  101  223 1    
   202  101  224 1    
   203  102  103 2    
   204  102  104 am   BACKBONE|DICT|INTERRES
   205  104  105 1    
   206  104  225 1    
   207  105  106 1    
   208  105  107 1    
   209  105  226 1    
   210  106  227 1    
   211  106  228 1    
   212  106  229 1    
   213  107  108 2    
   214  107  109 am   BACKBONE|DICT|INTERRES
   215  109  110 1    
   216  109  230 1    
   217  110  111 1    
   218  110  112 1    
   219  110  231 1    
   220  111  232 1    
   221  111  233 1    
   222  111  234 1    
   223  112  113 2    
   224  112  114 am   BACKBONE|DICT|INTERRES
   225  114  115 1    
   226  114  235 1    
   227  115  116 1    
   228  115  117 1    
   229  115  236 1    
   230  116  237 1    
   231  116  238 1    
   232  116  239 1    
   233  117  118 2    
   234  117  119 am   BACKBONE|DICT|INTERRES
   235  119  120 1    
   236  119  240 1    
   237  120  121 1    
   238  120  124 1    
   239  120  241 1    
   240  121  122 am   BACKBONE|DICT|INTERRES
   241  121  123 2    
   242  122  242 1    
   243  122  243 1    
   244  124  125 1    
   245  124  244 1    
   246  124  245 1    
   247  125  126 1    
   248  126  246 1    
   249  126  247 1    
@<TRIPOS>SUBSTRUCTURE
     1 UNK         1 GROUP             0       ****    0 ROOT    
