@<TRIPOS>MOLECULE
3R540
247   249    1
SMALL
USER_CHARGES


@<TRIPOS>ATOM
      1 CA          4.4178  -10.5798  -49.0478 C.3       0 UNK        -0.1800 
      2 C           3.5676  -11.7781  -49.4438 C.2       0 UNK         0.5000 
      3 O           2.3620  -11.7771  -49.1919 O.2       0 UNK        -0.5000 
      4 N           4.1944  -12.7972  -50.0504 N.am      1 UNK        -0.5000 
      5 CA          3.6085  -14.0752  -50.4741 C.3       1 UNK         0.1400 
      6 C6          2.6393  -13.9215  -51.6883 C.3       23 UNK        -0.0398 
      7 S7          1.6793  -15.4022  -52.1776 S.3       23 UNK        -0.2404 
      8 C8          2.9740  -16.5895  -52.6501 C.3       23 UNK        -0.0205 
      9 C9          2.6081  -17.9887  -52.1829 C.ar      23 UNK        -0.0193 
     10 C10         1.9066  -18.8501  -53.0301 C.ar      23 UNK        -0.1150 
     11 C11         1.5671  -20.1386  -52.6090 C.ar      23 UNK        -0.0193 
     12 C12         1.9370  -20.5635  -51.3288 C.ar      23 UNK        -0.1150 
     13 C13         2.6456  -19.7139  -50.4731 C.ar      23 UNK        -0.0193 
     14 C14         2.9763  -18.4262  -50.9061 C.ar      23 UNK        -0.1150 
     15 C15         3.0976  -20.2047  -49.1029 C.3       23 UNK        -0.0205 
     16 S16         2.1845  -19.4394  -47.7232 S.3       23 UNK        -0.2404 
     17 C17         0.5147  -20.1368  -47.9347 C.3       23 UNK        -0.0398 
     18 CA          0.3337  -21.5319  -47.2903 C.3       11 UNK         0.1400 
     19 N           0.5210  -21.5302  -45.8333 N.am      11 UNK        -0.5000 
     20 C           0.5908  -22.6385  -45.0806 C.2       10 UNK         0.5000 
     21 O           0.5515  -23.7764  -45.5449 O.2       10 UNK        -0.5000 
     22 CA          0.6449  -22.4587  -43.5529 C.3       10 UNK         0.1400 
     23 CB          2.0608  -22.1059  -43.0728 C.3       10 UNK        -0.1800 
     24 N          -0.3175  -21.4615  -43.0847 N.am      10 UNK        -0.5000 
     25 C          -1.6472  -21.6281  -43.1344 C.2       9 UNK         0.5000 
     26 O          -2.1881  -22.6631  -43.5243 O.2       9 UNK        -0.5000 
     27 CA         -2.5221  -20.4293  -42.7215 C.3       9 UNK         0.1400 
     28 CB         -2.7306  -20.4092  -41.2004 C.3       9 UNK        -0.1800 
     29 N          -1.9728  -19.1455  -43.1574 N.am      9 UNK        -0.5000 
     30 C          -1.7903  -18.7877  -44.4370 C.2       8 UNK         0.5000 
     31 O          -2.1274  -19.4780  -45.3968 O.2       8 UNK        -0.5000 
     32 CA         -1.0403  -17.4700  -44.6875 C.3       8 UNK         0.1400 
     33 CB         -1.9858  -16.2662  -44.5685 C.3       8 UNK        -0.1800 
     34 N           0.0941  -17.3016  -43.7825 N.am      8 UNK        -0.5000 
     35 C           1.1595  -18.1120  -43.7361 C.2       7 UNK         0.5000 
     36 O           1.2969  -19.0949  -44.4621 O.2       7 UNK        -0.5000 
     37 CA          2.2085  -17.8234  -42.6490 C.3       7 UNK         0.1400 
     38 CB          3.2216  -16.7602  -43.0990 C.3       7 UNK        -0.1800 
     39 N           1.5786  -17.4047  -41.3983 N.am      7 UNK        -0.5000 
     40 C           0.9506  -18.2368  -40.5574 C.2       6 UNK         0.5000 
     41 O           0.8912  -19.4560  -40.7203 O.2       6 UNK        -0.5000 
     42 CA          0.2481  -17.5935  -39.3464 C.3       6 UNK         0.1400 
     43 CB          1.2401  -17.3880  -38.1918 C.3       6 UNK        -0.1800 
     44 N          -0.3898  -16.3148  -39.6693 N.am      6 UNK        -0.5000 
     45 C          -1.4588  -16.1880  -40.4675 C.2       5 UNK         0.5000 
     46 O          -2.0276  -17.1407  -41.0002 O.2       5 UNK        -0.5000 
     47 CA         -1.9554  -14.7554  -40.7504 C.3       5 UNK         0.1400 
     48 CB         -2.9240  -14.2983  -39.6494 C.3       5 UNK        -0.1800 
     49 N          -0.8971  -13.7498  -40.9116 N.am      5 UNK        -0.5000 
     50 C           0.1227  -13.8288  -41.7773 C.2       4 UNK         0.5000 
     51 O           0.3595  -14.8274  -42.4556 O.2       4 UNK        -0.5000 
     52 CA          1.0598  -12.6088  -41.8565 C.3       4 UNK         0.1400 
     53 CB          2.0641  -12.6373  -40.6934 C.3       4 UNK        -0.1800 
     54 N           1.8089  -12.5600  -43.1144 N.am      4 UNK        -0.5000 
     55 C           1.2859  -12.3388  -44.3290 C.2       3 UNK         0.5000 
     56 O           0.0982  -12.0670  -44.5201 O.2       3 UNK        -0.5000 
     57 CA          2.2512  -12.3848  -45.5381 C.3       3 UNK         0.1400 
     58 CB          3.7106  -12.7461  -45.1781 C.3       3 UNK        -0.1800 
     59 N           1.7729  -13.2552  -46.6164 N.am      3 UNK        -0.5000 
     60 C           1.4767  -14.5620  -46.5264 C.2       2 UNK         0.5000 
     61 O           1.5528  -15.2133  -45.4901 O.2       2 UNK        -0.5000 
     62 CA          1.0717  -15.2815  -47.8267 C.3       2 UNK         0.1400 
     63 CB         -0.4469  -15.2137  -48.0484 C.3       2 UNK        -0.1800 
     64 N           1.7455  -14.7293  -48.9982 N.am      2 UNK        -0.5000 
     65 C           3.0567  -14.8378  -49.2482 C.2       1 UNK         0.5000 
     66 O           3.8384  -15.4786  -48.5440 O.2       1 UNK        -0.5000 
     67 C          -1.0255  -22.1409  -47.7005 C.2       11 UNK         0.5000 
     68 O          -1.0889  -22.8654  -48.6951 O.2       11 UNK        -0.5000 
     69 N          -2.0836  -21.8641  -46.9247 N.am      12 UNK        -0.5000 
     70 CA         -3.4157  -22.4447  -47.0940 C.3       12 UNK         0.1400 
     71 CB         -4.4215  -21.7533  -46.1624 C.3       12 UNK        -0.1800 
     72 C          -3.4226  -23.9677  -46.8868 C.2       12 UNK         0.5000 
     73 O          -3.9992  -24.6853  -47.7031 O.2       12 UNK        -0.5000 
     74 N          -2.7447  -24.4386  -45.8325 N.am      13 UNK        -0.5000 
     75 CA         -2.5617  -25.8614  -45.5483 C.3       13 UNK         0.1400 
     76 CB         -1.9571  -26.0277  -44.1457 C.3       13 UNK        -0.1800 
     77 C          -1.6979  -26.5767  -46.6054 C.2       13 UNK         0.5000 
     78 O          -2.0167  -27.7037  -46.9865 O.2       13 UNK        -0.5000 
     79 N          -0.6225  -25.9146  -47.0517 N.am      14 UNK        -0.5000 
     80 CA          0.3467  -26.4571  -47.9994 C.3       14 UNK         0.1400 
     81 CB          1.6448  -25.6365  -47.9332 C.3       14 UNK        -0.1800 
     82 C          -0.1675  -26.5207  -49.4471 C.2       14 UNK         0.5000 
     83 O           0.0195  -27.5496  -50.0989 O.2       14 UNK        -0.5000 
     84 N          -0.7510  -25.4200  -49.9421 N.am      15 UNK        -0.5000 
     85 CA         -0.9803  -25.2110  -51.3750 C.3       15 UNK         0.1400 
     86 CB          0.2128  -24.4256  -51.9462 C.3       15 UNK        -0.1800 
     87 C          -2.3166  -24.5259  -51.7120 C.2       15 UNK         0.5000 
     88 O          -2.5509  -24.2441  -52.8870 O.2       15 UNK        -0.5000 
     89 N          -3.1774  -24.2900  -50.7113 N.am      16 UNK        -0.5000 
     90 CA         -4.4939  -23.6533  -50.8388 C.3       16 UNK         0.1400 
     91 CB         -5.4791  -24.5403  -51.6304 C.3       16 UNK        -0.1800 
     92 C          -4.4312  -22.1802  -51.2993 C.2       16 UNK         0.5000 
     93 O          -5.2372  -21.7326  -52.1209 O.2       16 UNK        -0.5000 
     94 N          -3.5097  -21.4216  -50.6878 N.am      17 UNK        -0.5000 
     95 CA         -3.5787  -19.9592  -50.6140 C.3       17 UNK         0.1400 
     96 CB         -2.2784  -19.4160  -50.0092 C.3       17 UNK        -0.1800 
     97 C          -4.7901  -19.5131  -49.7681 C.2       17 UNK         0.5000 
     98 O          -5.3257  -20.3119  -48.9967 O.2       17 UNK        -0.5000 
     99 N          -5.2410  -18.2657  -49.9608 N.am      18 UNK        -0.5000 
    100 CA        -6.4543  -17.6451  -49.3922 C.3       18 UNK         0.1400 
    101 CB        -6.4451  -17.6540  -47.8506 C.3       18 UNK        -0.1800 
    102 C         -7.7690  -18.2266  -49.9600 C.2       18 UNK         0.5000 
    103 O         -8.6919  -17.4667  -50.2530 O.2       18 UNK        -0.5000 
    104 N         -7.7969  -19.5458  -50.1920 N.am      19 UNK        -0.5000 
    105 CA        -8.7651  -20.2592  -51.0300 C.3       19 UNK         0.1400 
    106 CB        -8.6617  -21.7619  -50.7282 C.3       19 UNK        -0.1800 
    107 C         -8.5652  -19.9851  -52.5394 C.2       19 UNK         0.5000 
    108 O         -9.4418  -20.3210  -53.3362 O.2       19 UNK        -0.5000 
    109 N         -7.4327  -19.3560  -52.8889 N.am      20 UNK        -0.5000 
    110 CA        -7.0594  -18.8189  -54.1983 C.3       20 UNK         0.1400 
    111 CB        -8.0742  -17.7581  -54.6766 C.3       20 UNK        -0.1800 
    112 C         -6.7496  -19.8913  -55.2592 C.2       20 UNK         0.5000 
    113 O         -6.9721  -19.6540  -56.4484 O.2       20 UNK        -0.5000 
    114 N         -6.1898  -21.0326  -54.8309 N.am      21 UNK        -0.5000 
    115 CA        -5.5410  -21.9837  -55.7387 C.3       21 UNK         0.1400 
    116 CB        -5.4157  -23.3526  -55.0617 C.3       21 UNK        -0.1800 
    117 C         -4.1565  -21.4631  -56.1724 C.2       21 UNK         0.5000 
    118 O         -3.7711  -21.6406  -57.3287 O.2       21 UNK        -0.5000 
    119 N         -3.4562  -20.7997  -55.2421 N.am      22 UNK        -0.5000 
    120 CA        -2.2294  -20.0311  -55.4911 C.3       22 UNK         0.1400 
    121 C         -2.5182  -18.7571  -56.3317 C.2       22 UNK         0.5000 
    122 N         -1.6861  -18.4507  -57.3175 N.am      22 UNK        -0.7600 
    123 O         -3.4669  -18.0215  -56.0668 O.2       22 UNK        -0.5000 
    124 C124       -1.5208  -19.6449  -54.1682 C.3       23 UNK        -0.0398 
    125 S125       -0.9583  -21.1056  -53.2324 S.3       23 UNK        -0.2404 
    126 C126        0.8338  -21.0863  -53.5464 C.3       23 UNK        -0.0205 
    127 H127        5.4615  -10.7087  -49.3353 H         1 UNK         0.0600 
    128 H128        4.0409   -9.6775  -49.5292 H         1 UNK         0.0600 
    129 H129        4.3775  -10.4340  -47.9683 H         1 UNK         0.0600 
    130 H130        5.1920  -12.7252  -50.1954 H         1 UNK         0.3000 
    131 H131        4.4585  -14.6639  -50.8192 H         1 UNK         0.0600 
    132 H132        1.9138  -13.1318  -51.4902 H         1 UNK         0.0800 
    133 H133        3.2031  -13.5822  -52.5581 H         1 UNK         0.0800 
    134 H134        3.9413  -16.3119  -52.2342 H         1 UNK         0.0800 
    135 H135        3.0968  -16.5692  -53.7340 H         1 UNK         0.0800 
    136 H136        1.6311  -18.5163  -54.0203 H         1 UNK         0.1150 
    137 H137        1.6840  -21.5627  -51.0044 H         1 UNK         0.1150 
    138 H138        3.5244  -17.7672  -50.2473 H         1 UNK         0.1150 
    139 H139        3.0131  -21.2900  -49.0330 H         1 UNK         0.0800 
    140 H140        4.1578  -19.9787  -48.9815 H         1 UNK         0.0800 
    141 H141        0.3026  -20.1771  -49.0026 H         1 UNK         0.0800 
    142 H142       -0.1973  -19.4284  -47.5083 H         1 UNK         0.0800 
    143 H143        1.1012  -22.1867  -47.7070 H         1 UNK         0.0600 
    144 H144        0.6213  -20.6233  -45.3829 H         1 UNK         0.3000 
    145 H145        0.3747  -23.4150  -43.0997 H         1 UNK         0.0600 
    146 H146        2.0908  -21.9811  -41.9902 H         1 UNK         0.0600 
    147 H147        2.7629  -22.9000  -43.3291 H         1 UNK         0.0600 
    148 H148        2.4331  -21.1881  -43.5254 H         1 UNK         0.0600 
    149 H149        0.0558  -20.5808  -42.7573 H         1 UNK         0.3000 
    150 H150       -3.4976  -20.5506  -43.1960 H         1 UNK         0.0600 
    151 H151       -3.1487  -21.3537  -40.8501 H         1 UNK         0.0600 
    152 H152       -3.4227  -19.6192  -40.9085 H         1 UNK         0.0600 
    153 H153       -1.7933  -20.2457  -40.6675 H         1 UNK         0.0600 
    154 H154       -1.7178  -18.4882  -42.4264 H         1 UNK         0.3000 
    155 H155       -0.6435  -17.4985  -45.7040 H         1 UNK         0.0600 
    156 H156       -2.4547  -16.2195  -43.5864 H         1 UNK         0.0600 
    157 H157       -2.7835  -16.3242  -45.3099 H         1 UNK         0.0600 
    158 H158       -1.4537  -15.3281  -44.7303 H         1 UNK         0.0600 
    159 H159        0.1069  -16.4586  -43.2117 H         1 UNK         0.3000 
    160 H160        2.7584  -18.7500  -42.4702 H         1 UNK         0.0600 
    161 H161        4.0408  -16.6715  -42.3857 H         1 UNK         0.0600 
    162 H162        2.7602  -15.7779  -43.1992 H         1 UNK         0.0600 
    163 H163        3.6552  -17.0180  -44.0662 H         1 UNK         0.0600 
    164 H164        1.5002  -16.4087  -41.2469 H         1 UNK         0.3000 
    165 H165       -0.5278  -18.2845  -39.0093 H         1 UNK         0.0600 
    166 H166        0.7368  -17.0087  -37.3023 H         1 UNK         0.0600 
    167 H167        1.7186  -18.3290  -37.9169 H         1 UNK         0.0600 
    168 H168        2.0292  -16.6837  -38.4580 H         1 UNK         0.0600 
    169 H169        0.0225  -15.4813  -39.2771 H         1 UNK         0.3000 
    170 H170       -2.5094  -14.7865  -41.6900 H         1 UNK         0.0600 
    171 H171       -3.7356  -15.0158  -39.5197 H         1 UNK         0.0600 
    172 H172       -2.4203  -14.1951  -38.6875 H         1 UNK         0.0600 
    173 H173       -3.3785  -13.3386  -39.8960 H         1 UNK         0.0600 
    174 H174       -1.0042  -12.9055  -40.3681 H         1 UNK         0.3000 
    175 H175        0.4555  -11.7025  -41.7829 H         1 UNK         0.0600 
    176 H176        2.6939  -13.5275  -40.7278 H         1 UNK         0.0600 
    177 H177        2.7165  -11.7640  -40.7141 H         1 UNK         0.0600 
    178 H178        1.5531  -12.6341  -39.7299 H         1 UNK         0.0600 
    179 H179        2.7846  -12.8096  -43.0598 H         1 UNK         0.3000 
    180 H180        2.2593  -11.3752  -45.9510 H         1 UNK         0.0600 
    181 H181        3.7898  -13.7415  -44.7392 H         1 UNK         0.0600 
    182 H182        4.1355  -12.0310  -44.4728 H         1 UNK         0.0600 
    183 H183        4.3434  -12.7293  -46.0659 H         1 UNK         0.0600 
    184 H184        1.6977  -12.8141  -47.5268 H         1 UNK         0.3000 
    185 H185        1.3574  -16.3314  -47.7306 H         1 UNK         0.0600 
    186 H186       -0.9862  -15.6331  -47.2004 H         1 UNK         0.0600 
    187 H187       -0.7894  -14.1863  -48.1776 H         1 UNK         0.0600 
    188 H188       -0.7413  -15.7814  -48.9315 H         1 UNK         0.0600 
    189 H189        1.1839  -14.1641  -49.6181 H         1 UNK         0.3000 
    190 H190       -1.9789  -21.1854  -46.1745 H         1 UNK         0.3000 
    191 H191       -3.7301  -22.2528  -48.1180 H         1 UNK         0.0600 
    192 H192       -4.1833  -21.9155  -45.1123 H         1 UNK         0.0600 
    193 H193       -5.4299  -22.1318  -46.3330 H         1 UNK         0.0600 
    194 H194       -4.4474  -20.6779  -46.3396 H         1 UNK         0.0600 
    195 H195       -2.3324  -23.7823  -45.1764 H         1 UNK         0.3000 
    196 H196       -3.5464  -26.3334  -45.5497 H         1 UNK         0.0600 
    197 H197       -1.8296  -27.0819  -43.8972 H         1 UNK         0.0600 
    198 H198       -2.6026  -25.5890  -43.3845 H         1 UNK         0.0600 
    199 H199       -0.9797  -25.5506  -44.0685 H         1 UNK         0.0600 
    200 H200       -0.3911  -25.0192  -46.6295 H         1 UNK         0.3000 
    201 H201        0.5861  -27.4767  -47.6895 H         1 UNK         0.0600 
    202 H202        2.0803  -25.6683  -46.9344 H         1 UNK         0.0600 
    203 H203        1.4739  -24.5908  -48.1906 H         1 UNK         0.0600 
    204 H204        2.3917  -26.0274  -48.6253 H         1 UNK         0.0600 
    205 H205       -0.8566  -24.5984  -49.3505 H         1 UNK         0.3000 
    206 H206       -1.0241  -26.1730  -51.8891 H         1 UNK         0.0600 
    207 H207        1.1517  -24.9556  -51.7863 H         1 UNK         0.0600 
    208 H208        0.1083  -24.2717  -53.0208 H         1 UNK         0.0600 
    209 H209        0.2955  -23.4455  -51.4764 H         1 UNK         0.0600 
    210 H210       -2.9202  -24.5759  -49.7756 H         1 UNK         0.3000 
    211 H211       -4.9017  -23.5918  -49.8308 H         1 UNK         0.0600 
    212 H212       -5.1009  -24.8126  -52.6132 H         1 UNK         0.0600 
    213 H213       -6.4402  -24.0464  -51.7730 H         1 UNK         0.0600 
    214 H214       -5.6746  -25.4677  -51.0924 H         1 UNK         0.0600 
    215 H215       -2.8595  -21.8742  -50.0609 H         1 UNK         0.3000 
    216 H216       -3.6914  -19.5686  -51.6268 H         1 UNK         0.0600 
    217 H217       -2.2515  -18.3265  -50.0485 H         1 UNK         0.0600 
    218 H218       -1.4072  -19.7795  -50.5535 H         1 UNK         0.0600 
    219 H219       -2.1789  -19.7053  -48.9636 H         1 UNK         0.0600 
    220 H220       -4.7368  -17.6771  -50.6096 H         1 UNK         0.3000 
    221 H221       -6.4189  -16.6006  -49.7063 H         1 UNK         0.0600 
    222 H222       -6.5595  -18.6581  -47.4418 H         1 UNK         0.0600 
    223 H223       -5.5178  -17.2360  -47.4590 H         1 UNK         0.0600 
    224 H224       -7.2653  -17.0524  -47.4575 H         1 UNK         0.0600 
    225 H225       -7.0033  -20.0842  -49.8550 H         1 UNK         0.3000 
    226 H226       -9.7688  -19.9210  -50.7651 H         1 UNK         0.0600 
    227 H227       -8.8773  -21.9689  -49.6799 H         1 UNK         0.0600 
    228 H228       -9.3731  -22.3334  -51.3256 H         1 UNK         0.0600 
    229 H229       -7.6656  -22.1454  -50.9464 H         1 UNK         0.0600 
    230 H230       -6.7729  -19.1815  -52.1466 H         1 UNK         0.3000 
    231 H231       -6.1138  -18.2987  -54.0383 H         1 UNK         0.0600 
    232 H232       -8.2546  -17.0086  -53.9059 H         1 UNK         0.0600 
    233 H233       -9.0327  -18.2038  -54.9433 H         1 UNK         0.0600 
    234 H234       -7.7040  -17.2320  -55.5573 H         1 UNK         0.0600 
    235 H235       -6.0444  -21.1801  -53.8358 H         1 UNK         0.3000 
    236 H236       -6.1598  -22.1058  -56.6304 H         1 UNK         0.0600 
    237 H237       -5.0687  -24.1059  -55.7696 H         1 UNK         0.0600 
    238 H238       -4.6944  -23.3186  -54.2469 H         1 UNK         0.0600 
    239 H239       -6.3709  -23.6911  -54.6602 H         1 UNK         0.0600 
    240 H240       -3.8448  -20.7275  -54.3143 H         1 UNK         0.3000 
    241 H241       -1.5526  -20.6695  -56.0629 H         1 UNK         0.0600 
    242 H242       -1.8566  -17.6175  -57.8592 H         1 UNK         0.3800 
    243 H243       -0.9005  -19.0382  -57.5515 H         1 UNK         0.3800 
    244 H244       -0.6662  -18.9976  -54.3668 H         1 UNK         0.0800 
    245 H245       -2.1892  -19.0651  -53.5303 H         1 UNK         0.0800 
    246 H246        1.2265  -22.0948  -53.4158 H         1 UNK         0.0800 
    247 H247        1.0247  -20.8266  -54.5887 H         1 UNK         0.0800 
@<TRIPOS>BOND
     1    1    2 1    
     2    1  127 1    
     3    1  128 1    
     4    1  129 1    
     5    2    3 2    
     6    2    4 am   BACKBONE|DICT|INTERRES
     7    4    5 1    
     8    4  130 1    
     9    5    6 1    
    10    5   65 1    
    11    5  131 1    
    12    6    7 1    
    13    6  132 1    
    14    6  133 1    
    15    7    8 1    
    16    8    9 1    
    17    8  134 1    
    18    8  135 1    
    19    9   10 ar   
    20    9   14 ar   
    21   10   11 ar   
    22   10  136 1    
    23   11   12 ar   
    24   11  126 1    
    25   12   13 ar   
    26   12  137 1    
    27   13   14 ar   
    28   13   15 1    
    29   14  138 1    
    30   15   16 1    
    31   15  139 1    
    32   15  140 1    
    33   16   17 1    
    34   17   18 1    
    35   17  141 1    
    36   17  142 1    
    37   18   19 1    
    38   18   67 1    
    39   18  143 1    
    40   19   20 am   BACKBONE|DICT|INTERRES
    41   19  144 1    
    42   20   21 2    
    43   20   22 1    
    44   22   23 1    
    45   22   24 1    
    46   22  145 1    
    47   23  146 1    
    48   23  147 1    
    49   23  148 1    
    50   24   25 am   BACKBONE|DICT|INTERRES
    51   24  149 1    
    52   25   26 2    
    53   25   27 1    
    54   27   28 1    
    55   27   29 1    
    56   27  150 1    
    57   28  151 1    
    58   28  152 1    
    59   28  153 1    
    60   29   30 am   BACKBONE|DICT|INTERRES
    61   29  154 1    
    62   30   31 2    
    63   30   32 1    
    64   32   33 1    
    65   32   34 1    
    66   32  155 1    
    67   33  156 1    
    68   33  157 1    
    69   33  158 1    
    70   34   35 am   BACKBONE|DICT|INTERRES
    71   34  159 1    
    72   35   36 2    
    73   35   37 1    
    74   37   38 1    
    75   37   39 1    
    76   37  160 1    
    77   38  161 1    
    78   38  162 1    
    79   38  163 1    
    80   39   40 am   BACKBONE|DICT|INTERRES
    81   39  164 1    
    82   40   41 2    
    83   40   42 1    
    84   42   43 1    
    85   42   44 1    
    86   42  165 1    
    87   43  166 1    
    88   43  167 1    
    89   43  168 1    
    90   44   45 am   BACKBONE|DICT|INTERRES
    91   44  169 1    
    92   45   46 2    
    93   45   47 1    
    94   47   48 1    
    95   47   49 1    
    96   47  170 1    
    97   48  171 1    
    98   48  172 1    
    99   48  173 1    
   100   49   50 am   BACKBONE|DICT|INTERRES
   101   49  174 1    
   102   50   51 2    
   103   50   52 1    
   104   52   53 1    
   105   52   54 1    
   106   52  175 1    
   107   53  176 1    
   108   53  177 1    
   109   53  178 1    
   110   54   55 am   BACKBONE|DICT|INTERRES
   111   54  179 1    
   112   55   56 2    
   113   55   57 1    
   114   57   58 1    
   115   57   59 1    
   116   57  180 1    
   117   58  181 1    
   118   58  182 1    
   119   58  183 1    
   120   59   60 am   BACKBONE|DICT|INTERRES
   121   59  184 1    
   122   60   61 2    
   123   60   62 1    
   124   62   63 1    
   125   62   64 1    
   126   62  185 1    
   127   63  186 1    
   128   63  187 1    
   129   63  188 1    
   130   64   65 am   BACKBONE|DICT|INTERRES
   131   64  189 1    
   132   65   66 2    
   133   67   68 2    
   134   67   69 am   BACKBONE|DICT|INTERRES
   135   69   70 1    
   136   69  190 1    
   137   70   71 1    
   138   70   72 1    
   139   70  191 1    
   140   71  192 1    
   141   71  193 1    
   142   71  194 1    
   143   72   73 2    
   144   72   74 am   BACKBONE|DICT|INTERRES
   145   74   75 1    
   146   74  195 1    
   147   75   76 1    
   148   75   77 1    
   149   75  196 1    
   150   76  197 1    
   151   76  198 1    
   152   76  199 1    
   153   77   78 2    
   154   77   79 am   BACKBONE|DICT|INTERRES
   155   79   80 1    
   156   79  200 1    
   157   80   81 1    
   158   80   82 1    
   159   80  201 1    
   160   81  202 1    
   161   81  203 1    
   162   81  204 1    
   163   82   83 2    
   164   82   84 am   BACKBONE|DICT|INTERRES
   165   84   85 1    
   166   84  205 1    
   167   85   86 1    
   168   85   87 1    
   169   85  206 1    
   170   86  207 1    
   171   86  208 1    
   172   86  209 1    
   173   87   88 2    
   174   87   89 am   BACKBONE|DICT|INTERRES
   175   89   90 1    
   176   89  210 1    
   177   90   91 1    
   178   90   92 1    
   179   90  211 1    
   180   91  212 1    
   181   91  213 1    
   182   91  214 1    
   183   92   93 2    
   184   92   94 am   BACKBONE|DICT|INTERRES
   185   94   95 1    
   186   94  215 1    
   187   95   96 1    
   188   95   97 1    
   189   95  216 1    
   190   96  217 1    
   191   96  218 1    
   192   96  219 1    
   193   97   98 2    
   194   97   99 am   BACKBONE|DICT|INTERRES
   195   99  100 1    
   196   99  220 1    
   197  100  101 1    
   198  100  102 1    
   199  100  221 1    
   200  101  222 1    
   201  101  223 1    
   202  101  224 1    
   203  102  103 2    
   204  102  104 am   BACKBONE|DICT|INTERRES
   205  104  105 1    
   206  104  225 1    
   207  105  106 1    
   208  105  107 1    
   209  105  226 1    
   210  106  227 1    
   211  106  228 1    
   212  106  229 1    
   213  107  108 2    
   214  107  109 am   BACKBONE|DICT|INTERRES
   215  109  110 1    
   216  109  230 1    
   217  110  111 1    
   218  110  112 1    
   219  110  231 1    
   220  111  232 1    
   221  111  233 1    
   222  111  234 1    
   223  112  113 2    
   224  112  114 am   BACKBONE|DICT|INTERRES
   225  114  115 1    
   226  114  235 1    
   227  115  116 1    
   228  115  117 1    
   229  115  236 1    
   230  116  237 1    
   231  116  238 1    
   232  116  239 1    
   233  117  118 2    
   234  117  119 am   BACKBONE|DICT|INTERRES
   235  119  120 1    
   236  119  240 1    
   237  120  121 1    
   238  120  124 1    
   239  120  241 1    
   240  121  122 am   BACKBONE|DICT|INTERRES
   241  121  123 2    
   242  122  242 1    
   243  122  243 1    
   244  124  125 1    
   245  124  244 1    
   246  124  245 1    
   247  125  126 1    
   248  126  246 1    
   249  126  247 1    
@<TRIPOS>SUBSTRUCTURE
     1 UNK         1 GROUP             0       ****    0 ROOT    
