@<TRIPOS>MOLECULE
3R540
247   249    1
SMALL
USER_CHARGES


@<TRIPOS>ATOM
      1 CA          8.8978  -11.8404  -49.9859 C.3       0 UNK        -0.1800 
      2 C           8.4532  -13.1610  -49.3727 C.2       0 UNK         0.5000 
      3 O           9.2153  -13.7780  -48.6272 O.2       0 UNK        -0.5000 
      4 N           7.2301  -13.5997  -49.6918 N.am      1 UNK        -0.5000 
      5 CA          6.5960  -14.8044  -49.1478 C.3       1 UNK         0.1400 
      6 C6          5.4972  -15.3614  -50.0900 C.3       23 UNK        -0.0398 
      7 S7          4.2492  -14.1494  -50.6545 S.3       23 UNK        -0.2404 
      8 C8          3.6251  -14.9625  -52.1660 C.3       23 UNK        -0.0205 
      9 C9          2.6029  -16.0489  -51.8543 C.ar      23 UNK        -0.0193 
     10 C10         1.2401  -15.8197  -52.0670 C.ar      23 UNK        -0.1150 
     11 C11         0.2957  -16.8081  -51.7734 C.ar      23 UNK        -0.0193 
     12 C12         0.7294  -18.0211  -51.2278 C.ar      23 UNK        -0.1150 
     13 C13         2.0887  -18.2710  -51.0096 C.ar      23 UNK        -0.0193 
     14 C14         3.0172  -17.2860  -51.3534 C.ar      23 UNK        -0.1150 
     15 C15         2.5870  -19.5597  -50.3563 C.3       23 UNK        -0.0205 
     16 S16         1.7330  -21.0762  -50.9009 S.3       23 UNK        -0.2404 
     17 C17         0.3397  -21.1602  -49.7276 C.3       23 UNK        -0.0398 
     18 CA          0.6099  -22.1398  -48.5671 C.3       11 UNK         0.1400 
     19 N           1.5441  -21.5626  -47.6014 N.am      11 UNK        -0.5000 
     20 C           2.5415  -22.2224  -47.0039 C.2       10 UNK         0.5000 
     21 O           2.8019  -23.4082  -47.2080 O.2       10 UNK        -0.5000 
     22 CA          3.3901  -21.4197  -45.9980 C.3       10 UNK         0.1400 
     23 CB          4.6252  -20.8278  -46.6942 C.3       10 UNK        -0.1800 
     24 N           2.6559  -20.3396  -45.3317 N.am      10 UNK        -0.5000 
     25 C           1.6249  -20.5232  -44.4970 C.2       9 UNK         0.5000 
     26 O           1.1519  -21.6268  -44.2234 O.2       9 UNK        -0.5000 
     27 CA          0.9879  -19.2572  -43.8977 C.3       9 UNK         0.1400 
     28 CB          1.7870  -18.7743  -42.6784 C.3       9 UNK        -0.1800 
     29 N           0.7843  -18.1346  -44.8211 N.am      9 UNK        -0.5000 
     30 C           0.1674  -18.1912  -46.0109 C.2       8 UNK         0.5000 
     31 O          -0.0296  -19.2310  -46.6426 O.2       8 UNK        -0.5000 
     32 CA         -0.3936  -16.8634  -46.5606 C.3       8 UNK         0.1400 
     33 CB          0.0211  -16.6639  -48.0267 C.3       8 UNK        -0.1800 
     34 N          -1.8628  -16.7887  -46.4669 N.am      8 UNK        -0.5000 
     35 C          -2.5934  -17.0024  -45.3616 C.2       7 UNK         0.5000 
     36 O          -2.0969  -17.2745  -44.2633 O.2       7 UNK        -0.5000 
     37 CA         -4.1275  -16.8659  -45.4631 C.3       7 UNK         0.1400 
     38 CB         -4.7482  -17.7439  -46.5629 C.3       7 UNK        -0.1800 
     39 N          -4.6579  -17.2477  -44.1616 N.am      7 UNK        -0.5000 
     40 C          -5.8258  -16.9171  -43.6027 C.2       6 UNK         0.5000 
     41 O          -6.7276  -16.3151  -44.1856 O.2       6 UNK        -0.5000 
     42 CA         -5.9811  -17.3029  -42.1146 C.3       6 UNK         0.1400 
     43 CB         -6.6118  -18.6976  -41.9823 C.3       6 UNK        -0.1800 
     44 N          -4.6879  -17.2890  -41.4177 N.am      6 UNK        -0.5000 
     45 C          -4.0152  -16.1677  -41.1206 C.2       5 UNK         0.5000 
     46 O          -4.5162  -15.0437  -41.1860 O.2       5 UNK        -0.5000 
     47 CA         -2.5171  -16.3016  -40.7843 C.3       5 UNK         0.1400 
     48 CB         -2.0457  -17.7510  -40.5485 C.3       5 UNK        -0.1800 
     49 N          -1.7948  -15.7585  -41.9292 N.am      5 UNK        -0.5000 
     50 C          -1.3271  -14.5122  -42.0346 C.2       4 UNK         0.5000 
     51 O          -1.2132  -13.7277  -41.0900 O.2       4 UNK        -0.5000 
     52 CA         -0.9685  -14.0493  -43.4572 C.3       4 UNK         0.1400 
     53 CB         -1.9302  -12.9521  -43.9383 C.3       4 UNK        -0.1800 
     54 N           0.4023  -13.5611  -43.5273 N.am      4 UNK        -0.5000 
     55 C           1.4725  -14.3602  -43.5743 C.2       3 UNK         0.5000 
     56 O           1.4056  -15.5925  -43.5986 O.2       3 UNK        -0.5000 
     57 CA          2.8391  -13.6501  -43.5787 C.3       3 UNK         0.1400 
     58 CB          3.2243  -13.2265  -42.1522 C.3       3 UNK        -0.1800 
     59 N           3.9135  -14.4797  -44.1226 N.am      3 UNK        -0.5000 
     60 C           3.9962  -14.9202  -45.3841 C.2       2 UNK         0.5000 
     61 O           3.1651  -14.6761  -46.2626 O.2       2 UNK        -0.5000 
     62 CA          5.2114  -15.8180  -45.6890 C.3       2 UNK         0.1400 
     63 CB          4.8631  -17.2866  -45.3974 C.3       2 UNK        -0.1800 
     64 N           5.6979  -15.7225  -47.0668 N.am      2 UNK        -0.5000 
     65 C           6.0963  -14.6072  -47.6967 C.2       1 UNK         0.5000 
     66 O           6.1016  -13.4875  -47.1763 O.2       1 UNK        -0.5000 
     67 C          -0.7032  -22.5325  -47.8669 C.2       11 UNK         0.5000 
     68 O          -1.3221  -23.5188  -48.2643 O.2       11 UNK        -0.5000 
     69 N          -1.1114  -21.7847  -46.8311 N.am      12 UNK        -0.5000 
     70 CA         -2.2815  -22.0678  -45.9958 C.3       12 UNK         0.1400 
     71 CB         -2.5264  -20.8991  -45.0328 C.3       12 UNK        -0.1800 
     72 C          -2.1497  -23.3904  -45.2211 C.2       12 UNK         0.5000 
     73 O          -3.1465  -24.0916  -45.0562 O.2       12 UNK        -0.5000 
     74 N          -0.9162  -23.7482  -44.8352 N.am      13 UNK        -0.5000 
     75 CA         -0.5562  -25.0417  -44.2460 C.3       13 UNK         0.1400 
     76 CB          0.9237  -25.0055  -43.8360 C.3       13 UNK        -0.1800 
     77 C          -0.8258  -26.2463  -45.1745 C.2       13 UNK         0.5000 
     78 O          -1.0730  -27.3467  -44.6807 O.2       13 UNK        -0.5000 
     79 N          -0.7975  -26.0117  -46.4935 N.am      14 UNK        -0.5000 
     80 CA         -1.1349  -26.9804  -47.5384 C.3       14 UNK         0.1400 
     81 CB         -0.1209  -26.8217  -48.6847 C.3       14 UNK        -0.1800 
     82 C          -2.5775  -26.7978  -48.0585 C.2       14 UNK         0.5000 
     83 O          -2.9748  -27.5064  -48.9835 O.2       14 UNK        -0.5000 
     84 N          -3.3190  -25.8346  -47.4872 N.am      15 UNK        -0.5000 
     85 CA         -4.6619  -25.3685  -47.8548 C.3       15 UNK         0.1400 
     86 CB         -5.7048  -26.4945  -47.7094 C.3       15 UNK        -0.1800 
     87 C          -4.7462  -24.6722  -49.2308 C.2       15 UNK         0.5000 
     88 O          -5.8484  -24.3551  -49.6777 O.2       15 UNK        -0.5000 
     89 N          -3.6007  -24.3983  -49.8688 N.am      16 UNK        -0.5000 
     90 CA         -3.5123  -23.7914  -51.1961 C.3       16 UNK         0.1400 
     91 CB         -2.0871  -23.9565  -51.7438 C.3       16 UNK        -0.1800 
     92 C          -3.9380  -22.3161  -51.1912 C.2       16 UNK         0.5000 
     93 O          -4.6808  -21.8954  -52.0772 O.2       16 UNK        -0.5000 
     94 N          -3.5054  -21.5659  -50.1684 N.am      17 UNK        -0.5000 
     95 CA         -3.8978  -20.1662  -49.9831 C.3       17 UNK         0.1400 
     96 CB         -2.8648  -19.4344  -49.1185 C.3       17 UNK        -0.1800 
     97 C          -5.3165  -20.0216  -49.4065 C.2       17 UNK         0.5000 
     98 O          -5.9655  -19.0097  -49.6644 O.2       17 UNK        -0.5000 
     99 N          -5.7945  -21.0467  -48.6849 N.am      18 UNK        -0.5000 
    100 CA        -7.1750  -21.1398  -48.2018 C.3       18 UNK         0.1400 
    101 CB        -7.2776  -22.2429  -47.1372 C.3       18 UNK        -0.1800 
    102 C         -8.1662  -21.3827  -49.3573 C.2       18 UNK         0.5000 
    103 O         -9.2416  -20.7842  -49.3758 O.2       18 UNK        -0.5000 
    104 N         -7.7572  -22.2119  -50.3288 N.am      19 UNK        -0.5000 
    105 CA        -8.4487  -22.4304  -51.6023 C.3       19 UNK         0.1400 
    106 CB        -7.9260  -23.7357  -52.2236 C.3       19 UNK        -0.1800 
    107 C         -8.2816  -21.2616  -52.5982 C.2       19 UNK         0.5000 
    108 O         -8.9872  -21.2272  -53.6068 O.2       19 UNK        -0.5000 
    109 N         -7.3475  -20.3443  -52.3051 N.am      20 UNK        -0.5000 
    110 CA        -6.9372  -19.1798  -53.0953 C.3       20 UNK         0.1400 
    111 CB        -8.0929  -18.1678  -53.2346 C.3       20 UNK        -0.1800 
    112 C         -6.2954  -19.5587  -54.4464 C.2       20 UNK         0.5000 
    113 O         -6.4045  -18.8057  -55.4162 O.2       20 UNK        -0.5000 
    114 N         -5.6006  -20.7052  -54.4824 N.am      21 UNK        -0.5000 
    115 CA        -4.9080  -21.2389  -55.6590 C.3       21 UNK         0.1400 
    116 CB        -4.4305  -22.6672  -55.3543 C.3       21 UNK        -0.1800 
    117 C         -3.7296  -20.3586  -56.1193 C.2       21 UNK         0.5000 
    118 O         -3.4004  -20.3510  -57.3060 O.2       21 UNK        -0.5000 
    119 N         -3.1410  -19.6154  -55.1753 N.am      22 UNK        -0.5000 
    120 CA        -2.1308  -18.5752  -55.4103 C.3       22 UNK         0.1400 
    121 C         -2.6978  -17.2209  -55.9367 C.2       22 UNK         0.5000 
    122 N         -4.0074  -17.0424  -56.0764 N.am      22 UNK        -0.7600 
    123 O         -1.9291  -16.3139  -56.2439 O.2       22 UNK        -0.5000 
    124 C124       -1.2181  -18.3927  -54.1705 C.3       23 UNK        -0.0398 
    125 S125       -2.1225  -17.9843  -52.6330 S.3       23 UNK        -0.2404 
    126 C126       -1.1872  -16.5366  -52.0257 C.3       23 UNK        -0.0205 
    127 H127        8.1303  -11.4154  -50.6335 H         1 UNK         0.0600 
    128 H128        9.8004  -11.9867  -50.5794 H         1 UNK         0.0600 
    129 H129        9.1180  -11.1176  -49.2003 H         1 UNK         0.0600 
    130 H130        6.6358  -13.0356  -50.2828 H         1 UNK         0.3000 
    131 H131        7.3693  -15.5738  -49.0880 H         1 UNK         0.0600 
    132 H132        5.9856  -15.7776  -50.9720 H         1 UNK         0.0800 
    133 H133        4.9786  -16.1974  -49.6213 H         1 UNK         0.0800 
    134 H134        3.1757  -14.2002  -52.8043 H         1 UNK         0.0800 
    135 H135        4.4523  -15.3819  -52.7401 H         1 UNK         0.0800 
    136 H136        0.9137  -14.8684  -52.4635 H         1 UNK         0.1150 
    137 H137       -0.0046  -18.7688  -50.9799 H         1 UNK         0.1150 
    138 H138        4.0694  -17.4777  -51.2085 H         1 UNK         0.1150 
    139 H139        3.6478  -19.6953  -50.5723 H         1 UNK         0.0800 
    140 H140        2.5122  -19.4578  -49.2734 H         1 UNK         0.0800 
    141 H141       -0.5418  -21.4467  -50.3023 H         1 UNK         0.0800 
    142 H142        0.1416  -20.1699  -49.3204 H         1 UNK         0.0800 
    143 H143        1.0238  -23.0597  -48.9862 H         1 UNK         0.0600 
    144 H144        1.3609  -20.6067  -47.3196 H         1 UNK         0.3000 
    145 H145        3.7307  -22.1173  -45.2299 H         1 UNK         0.0600 
    146 H146        5.2960  -20.3599  -45.9739 H         1 UNK         0.0600 
    147 H147        5.1950  -21.6039  -47.2071 H         1 UNK         0.0600 
    148 H148        4.3498  -20.0783  -47.4371 H         1 UNK         0.0600 
    149 H149        2.9578  -19.3953  -45.5160 H         1 UNK         0.3000 
    150 H150       -0.0025  -19.5398  -43.5393 H         1 UNK         0.0600 
    151 H151        2.7603  -18.3771  -42.9664 H         1 UNK         0.0600 
    152 H152        1.9569  -19.5869  -41.9708 H         1 UNK         0.0600 
    153 H153        1.2506  -17.9890  -42.1448 H         1 UNK         0.0600 
    154 H154        0.9259  -17.2166  -44.4042 H         1 UNK         0.3000 
    155 H155        0.0247  -16.0404  -45.9792 H         1 UNK         0.0600 
    156 H156       -0.4258  -17.4186  -48.6741 H         1 UNK         0.0600 
    157 H157        1.1039  -16.7308  -48.1425 H         1 UNK         0.0600 
    158 H158       -0.2824  -15.6843  -48.3958 H         1 UNK         0.0600 
    159 H159       -2.3434  -16.5721  -47.3269 H         1 UNK         0.3000 
    160 H160       -4.3659  -15.8168  -45.6479 H         1 UNK         0.0600 
    161 H161       -4.4082  -18.7774  -46.5025 H         1 UNK         0.0600 
    162 H162       -4.4996  -17.3580  -47.5500 H         1 UNK         0.0600 
    163 H163       -5.8364  -17.7526  -46.5001 H         1 UNK         0.0600 
    164 H164       -3.9580  -17.6943  -43.5828 H         1 UNK         0.3000 
    165 H165       -6.6469  -16.5768  -41.6433 H         1 UNK         0.0600 
    166 H166       -6.7670  -18.9623  -40.9362 H         1 UNK         0.0600 
    167 H167       -7.5850  -18.7328  -42.4738 H         1 UNK         0.0600 
    168 H168       -5.9873  -19.4686  -42.4356 H         1 UNK         0.0600 
    169 H169       -4.2207  -18.1774  -41.3093 H         1 UNK         0.3000 
    170 H170       -2.3197  -15.7182  -39.8828 H         1 UNK         0.0600 
    171 H171       -2.1638  -18.3747  -41.4358 H         1 UNK         0.0600 
    172 H172       -0.9895  -17.7712  -40.2787 H         1 UNK         0.0600 
    173 H173       -2.5940  -18.2169  -39.7287 H         1 UNK         0.0600 
    174 H174       -1.8338  -16.3275  -42.7734 H         1 UNK         0.3000 
    175 H175       -1.0639  -14.8887  -44.1440 H         1 UNK         0.0600 
    176 H176       -1.8670  -12.0579  -43.3169 H         1 UNK         0.0600 
    177 H177       -1.7158  -12.6629  -44.9673 H         1 UNK         0.0600 
    178 H178       -2.9634  -13.3011  -43.9071 H         1 UNK         0.0600 
    179 H179        0.5293  -12.5617  -43.4608 H         1 UNK         0.3000 
    180 H180        2.7593  -12.7571  -44.2022 H         1 UNK         0.0600 
    181 H181        3.3294  -14.0888  -41.4924 H         1 UNK         0.0600 
    182 H182        2.4680  -12.5723  -41.7166 H         1 UNK         0.0600 
    183 H183        4.1670  -12.6789  -42.1431 H         1 UNK         0.0600 
    184 H184        4.6208  -14.7680  -43.4629 H         1 UNK         0.3000 
    185 H185        6.0336  -15.5179  -45.0363 H         1 UNK         0.0600 
    186 H186        4.0677  -17.6444  -46.0522 H         1 UNK         0.0600 
    187 H187        5.7306  -17.9326  -45.5322 H         1 UNK         0.0600 
    188 H188        4.5243  -17.4126  -44.3685 H         1 UNK         0.0600 
    189 H189        5.7283  -16.5948  -47.5721 H         1 UNK         0.3000 
    190 H190       -0.5967  -20.9352  -46.6093 H         1 UNK         0.3000 
    191 H191       -3.1470  -22.1518  -46.6562 H         1 UNK         0.0600 
    192 H192       -2.5687  -19.9512  -45.5657 H         1 UNK         0.0600 
    193 H193       -3.4720  -21.0203  -44.5033 H         1 UNK         0.0600 
    194 H194       -1.7389  -20.8264  -44.2841 H         1 UNK         0.0600 
    195 H195       -0.1623  -23.0780  -44.9456 H         1 UNK         0.3000 
    196 H196       -1.1602  -25.1786  -43.3468 H         1 UNK         0.0600 
    197 H197        1.2313  -25.9516  -43.3888 H         1 UNK         0.0600 
    198 H198        1.1090  -24.2237  -43.0992 H         1 UNK         0.0600 
    199 H199        1.5729  -24.8181  -44.6926 H         1 UNK         0.0600 
    200 H200       -0.6110  -25.0706  -46.8140 H         1 UNK         0.3000 
    201 H201       -1.0545  -27.9977  -47.1504 H         1 UNK         0.0600 
    202 H202       -0.2902  -27.5642  -49.4655 H         1 UNK         0.0600 
    203 H203        0.9005  -26.9558  -48.3282 H         1 UNK         0.0600 
    204 H204       -0.1861  -25.8373  -49.1496 H         1 UNK         0.0600 
    205 H205       -2.9051  -25.3307  -46.7121 H         1 UNK         0.3000 
    206 H206       -4.9142  -24.5999  -47.1236 H         1 UNK         0.0600 
    207 H207       -5.6452  -26.9624  -46.7268 H         1 UNK         0.0600 
    208 H208       -6.7177  -26.1057  -47.8207 H         1 UNK         0.0600 
    209 H209       -5.5722  -27.2720  -48.4618 H         1 UNK         0.0600 
    210 H210       -2.7271  -24.5942  -49.3948 H         1 UNK         0.3000 
    211 H211       -4.1933  -24.3262  -51.8618 H         1 UNK         0.0600 
    212 H212       -1.3422  -23.5183  -51.0806 H         1 UNK         0.0600 
    213 H213       -1.9826  -23.4798  -52.7193 H         1 UNK         0.0600 
    214 H214       -1.8377  -25.0103  -51.8690 H         1 UNK         0.0600 
    215 H215       -2.9178  -21.9924  -49.4673 H         1 UNK         0.3000 
    216 H216       -3.9058  -19.6789  -50.9600 H         1 UNK         0.0600 
    217 H217       -3.1352  -18.3872  -48.9956 H         1 UNK         0.0600 
    218 H218       -1.8941  -19.4339  -49.6039 H         1 UNK         0.0600 
    219 H219       -2.7612  -19.8757  -48.1280 H         1 UNK         0.0600 
    220 H220       -5.2086  -21.8546  -48.5476 H         1 UNK         0.3000 
    221 H221       -7.4355  -20.1899  -47.7295 H         1 UNK         0.0600 
    222 H222       -7.0707  -23.2296  -47.5507 H         1 UNK         0.0600 
    223 H223       -6.5810  -22.0677  -46.3171 H         1 UNK         0.0600 
    224 H224       -8.2806  -22.2745  -46.7100 H         1 UNK         0.0600 
    225 H225       -6.9013  -22.7405  -50.1932 H         1 UNK         0.3000 
    226 H226       -9.5163  -22.5460  -51.4047 H         1 UNK         0.0600 
    227 H227       -8.4415  -23.9611  -53.1579 H         1 UNK         0.0600 
    228 H228       -6.8591  -23.6766  -52.4427 H         1 UNK         0.0600 
    229 H229       -8.0828  -24.5815  -51.5539 H         1 UNK         0.0600 
    230 H230       -6.8219  -20.4913  -51.4558 H         1 UNK         0.3000 
    231 H231       -6.1480  -18.6932  -52.5205 H         1 UNK         0.0600 
    232 H232       -8.8963  -18.5518  -53.8636 H         1 UNK         0.0600 
    233 H233       -7.7448  -17.2366  -53.6830 H         1 UNK         0.0600 
    234 H234       -8.5167  -17.9190  -52.2616 H         1 UNK         0.0600 
    235 H235       -5.4893  -21.2311  -53.6182 H         1 UNK         0.3000 
    236 H236       -5.6279  -21.2841  -56.4786 H         1 UNK         0.0600 
    237 H237       -5.2615  -23.3067  -55.0559 H         1 UNK         0.0600 
    238 H238       -3.9692  -23.1201  -56.2328 H         1 UNK         0.0600 
    239 H239       -3.6919  -22.6814  -54.5522 H         1 UNK         0.0600 
    240 H240       -3.4816  -19.6867  -54.2278 H         1 UNK         0.3000 
    241 H241       -1.4849  -18.9339  -56.2138 H         1 UNK         0.0600 
    242 H242       -4.6720  -17.7728  -55.8509 H         1 UNK         0.3800 
    243 H243       -4.3454  -16.1601  -56.4262 H         1 UNK         0.3800 
    244 H244       -0.6668  -19.3162  -53.9885 H         1 UNK         0.0800 
    245 H245       -0.4557  -17.6377  -54.3695 H         1 UNK         0.0800 
    246 H246       -1.6396  -16.1952  -51.0940 H         1 UNK         0.0800 
    247 H247       -1.3079  -15.7257  -52.7459 H         1 UNK         0.0800 
@<TRIPOS>BOND
     1    1    2 1    
     2    1  127 1    
     3    1  128 1    
     4    1  129 1    
     5    2    3 2    
     6    2    4 am   BACKBONE|DICT|INTERRES
     7    4    5 1    
     8    4  130 1    
     9    5    6 1    
    10    5   65 1    
    11    5  131 1    
    12    6    7 1    
    13    6  132 1    
    14    6  133 1    
    15    7    8 1    
    16    8    9 1    
    17    8  134 1    
    18    8  135 1    
    19    9   10 ar   
    20    9   14 ar   
    21   10   11 ar   
    22   10  136 1    
    23   11   12 ar   
    24   11  126 1    
    25   12   13 ar   
    26   12  137 1    
    27   13   14 ar   
    28   13   15 1    
    29   14  138 1    
    30   15   16 1    
    31   15  139 1    
    32   15  140 1    
    33   16   17 1    
    34   17   18 1    
    35   17  141 1    
    36   17  142 1    
    37   18   19 1    
    38   18   67 1    
    39   18  143 1    
    40   19   20 am   BACKBONE|DICT|INTERRES
    41   19  144 1    
    42   20   21 2    
    43   20   22 1    
    44   22   23 1    
    45   22   24 1    
    46   22  145 1    
    47   23  146 1    
    48   23  147 1    
    49   23  148 1    
    50   24   25 am   BACKBONE|DICT|INTERRES
    51   24  149 1    
    52   25   26 2    
    53   25   27 1    
    54   27   28 1    
    55   27   29 1    
    56   27  150 1    
    57   28  151 1    
    58   28  152 1    
    59   28  153 1    
    60   29   30 am   BACKBONE|DICT|INTERRES
    61   29  154 1    
    62   30   31 2    
    63   30   32 1    
    64   32   33 1    
    65   32   34 1    
    66   32  155 1    
    67   33  156 1    
    68   33  157 1    
    69   33  158 1    
    70   34   35 am   BACKBONE|DICT|INTERRES
    71   34  159 1    
    72   35   36 2    
    73   35   37 1    
    74   37   38 1    
    75   37   39 1    
    76   37  160 1    
    77   38  161 1    
    78   38  162 1    
    79   38  163 1    
    80   39   40 am   BACKBONE|DICT|INTERRES
    81   39  164 1    
    82   40   41 2    
    83   40   42 1    
    84   42   43 1    
    85   42   44 1    
    86   42  165 1    
    87   43  166 1    
    88   43  167 1    
    89   43  168 1    
    90   44   45 am   BACKBONE|DICT|INTERRES
    91   44  169 1    
    92   45   46 2    
    93   45   47 1    
    94   47   48 1    
    95   47   49 1    
    96   47  170 1    
    97   48  171 1    
    98   48  172 1    
    99   48  173 1    
   100   49   50 am   BACKBONE|DICT|INTERRES
   101   49  174 1    
   102   50   51 2    
   103   50   52 1    
   104   52   53 1    
   105   52   54 1    
   106   52  175 1    
   107   53  176 1    
   108   53  177 1    
   109   53  178 1    
   110   54   55 am   BACKBONE|DICT|INTERRES
   111   54  179 1    
   112   55   56 2    
   113   55   57 1    
   114   57   58 1    
   115   57   59 1    
   116   57  180 1    
   117   58  181 1    
   118   58  182 1    
   119   58  183 1    
   120   59   60 am   BACKBONE|DICT|INTERRES
   121   59  184 1    
   122   60   61 2    
   123   60   62 1    
   124   62   63 1    
   125   62   64 1    
   126   62  185 1    
   127   63  186 1    
   128   63  187 1    
   129   63  188 1    
   130   64   65 am   BACKBONE|DICT|INTERRES
   131   64  189 1    
   132   65   66 2    
   133   67   68 2    
   134   67   69 am   BACKBONE|DICT|INTERRES
   135   69   70 1    
   136   69  190 1    
   137   70   71 1    
   138   70   72 1    
   139   70  191 1    
   140   71  192 1    
   141   71  193 1    
   142   71  194 1    
   143   72   73 2    
   144   72   74 am   BACKBONE|DICT|INTERRES
   145   74   75 1    
   146   74  195 1    
   147   75   76 1    
   148   75   77 1    
   149   75  196 1    
   150   76  197 1    
   151   76  198 1    
   152   76  199 1    
   153   77   78 2    
   154   77   79 am   BACKBONE|DICT|INTERRES
   155   79   80 1    
   156   79  200 1    
   157   80   81 1    
   158   80   82 1    
   159   80  201 1    
   160   81  202 1    
   161   81  203 1    
   162   81  204 1    
   163   82   83 2    
   164   82   84 am   BACKBONE|DICT|INTERRES
   165   84   85 1    
   166   84  205 1    
   167   85   86 1    
   168   85   87 1    
   169   85  206 1    
   170   86  207 1    
   171   86  208 1    
   172   86  209 1    
   173   87   88 2    
   174   87   89 am   BACKBONE|DICT|INTERRES
   175   89   90 1    
   176   89  210 1    
   177   90   91 1    
   178   90   92 1    
   179   90  211 1    
   180   91  212 1    
   181   91  213 1    
   182   91  214 1    
   183   92   93 2    
   184   92   94 am   BACKBONE|DICT|INTERRES
   185   94   95 1    
   186   94  215 1    
   187   95   96 1    
   188   95   97 1    
   189   95  216 1    
   190   96  217 1    
   191   96  218 1    
   192   96  219 1    
   193   97   98 2    
   194   97   99 am   BACKBONE|DICT|INTERRES
   195   99  100 1    
   196   99  220 1    
   197  100  101 1    
   198  100  102 1    
   199  100  221 1    
   200  101  222 1    
   201  101  223 1    
   202  101  224 1    
   203  102  103 2    
   204  102  104 am   BACKBONE|DICT|INTERRES
   205  104  105 1    
   206  104  225 1    
   207  105  106 1    
   208  105  107 1    
   209  105  226 1    
   210  106  227 1    
   211  106  228 1    
   212  106  229 1    
   213  107  108 2    
   214  107  109 am   BACKBONE|DICT|INTERRES
   215  109  110 1    
   216  109  230 1    
   217  110  111 1    
   218  110  112 1    
   219  110  231 1    
   220  111  232 1    
   221  111  233 1    
   222  111  234 1    
   223  112  113 2    
   224  112  114 am   BACKBONE|DICT|INTERRES
   225  114  115 1    
   226  114  235 1    
   227  115  116 1    
   228  115  117 1    
   229  115  236 1    
   230  116  237 1    
   231  116  238 1    
   232  116  239 1    
   233  117  118 2    
   234  117  119 am   BACKBONE|DICT|INTERRES
   235  119  120 1    
   236  119  240 1    
   237  120  121 1    
   238  120  124 1    
   239  120  241 1    
   240  121  122 am   BACKBONE|DICT|INTERRES
   241  121  123 2    
   242  122  242 1    
   243  122  243 1    
   244  124  125 1    
   245  124  244 1    
   246  124  245 1    
   247  125  126 1    
   248  126  246 1    
   249  126  247 1    
@<TRIPOS>SUBSTRUCTURE
     1 UNK         1 GROUP             0       ****    0 ROOT    
