@<TRIPOS>MOLECULE
3R540
247   249    1
SMALL
USER_CHARGES


@<TRIPOS>ATOM
      1 CA          4.8316  -14.5623  -46.0913 C.3       0 UNK        -0.1800 
      2 C           3.8336  -13.5121  -45.6280 C.2       0 UNK         0.5000 
      3 O           4.0276  -12.8972  -44.5790 O.2       0 UNK        -0.5000 
      4 N           2.7701  -13.2870  -46.4097 N.am      1 UNK        -0.5000 
      5 CA          1.6947  -12.3298  -46.1098 C.3       1 UNK         0.1400 
      6 C6          0.5086  -12.4444  -47.0955 C.3       23 UNK        -0.0398 
      7 S7         -0.2208  -14.1157  -47.1041 S.3       23 UNK        -0.2404 
      8 C8          0.0794  -14.6280  -48.8239 C.3       23 UNK        -0.0205 
      9 C9         -0.4223  -16.0424  -49.0600 C.ar      23 UNK        -0.0193 
     10 C10        -1.7946  -16.2867  -49.1586 C.ar      23 UNK        -0.1150 
     11 C11        -2.2773  -17.5869  -49.3267 C.ar      23 UNK        -0.0193 
     12 C12        -1.3666  -18.6476  -49.3968 C.ar      23 UNK        -0.1150 
     13 C13         0.0098  -18.4138  -49.3371 C.ar      23 UNK        -0.0193 
     14 C14         0.4768  -17.1073  -49.1675 C.ar      23 UNK        -0.1150 
     15 C15         0.9887  -19.5720  -49.4569 C.3       23 UNK        -0.0205 
     16 S16         1.7142  -19.9876  -47.8430 S.3       23 UNK        -0.2404 
     17 C17         1.7820  -21.8057  -47.9014 C.3       23 UNK        -0.0398 
     18 CA          0.6216  -22.5384  -47.1793 C.3       11 UNK         0.1400 
     19 N           0.3679  -22.0703  -45.8101 N.am      11 UNK        -0.5000 
     20 C          -0.0122  -22.8881  -44.8179 C.2       10 UNK         0.5000 
     21 O          -0.1649  -24.1022  -44.9588 O.2       10 UNK        -0.5000 
     22 CA         -0.2789  -22.2552  -43.4412 C.3       10 UNK         0.1400 
     23 CB          1.0148  -21.7012  -42.8231 C.3       10 UNK        -0.1800 
     24 N          -1.3094  -21.2161  -43.4375 N.am      10 UNK        -0.5000 
     25 C          -2.5923  -21.3893  -43.7880 C.2       9 UNK         0.5000 
     26 O          -3.0236  -22.4118  -44.3191 O.2       9 UNK        -0.5000 
     27 CA         -3.5620  -20.2333  -43.4877 C.3       9 UNK         0.1400 
     28 CB         -3.8714  -20.1636  -41.9839 C.3       9 UNK        -0.1800 
     29 N          -2.9953  -18.9610  -43.9215 N.am      9 UNK        -0.5000 
     30 C          -3.4649  -18.2119  -44.9273 C.2       8 UNK         0.5000 
     31 O          -4.5391  -18.4211  -45.4911 O.2       8 UNK        -0.5000 
     32 CA         -2.5934  -17.0283  -45.4023 C.3       8 UNK         0.1400 
     33 CB         -3.1795  -15.6975  -44.9068 C.3       8 UNK        -0.1800 
     34 N          -1.1831  -17.0947  -45.0103 N.am      8 UNK        -0.5000 
     35 C          -0.3314  -18.0883  -45.3003 C.2       7 UNK         0.5000 
     36 O          -0.6451  -19.1129  -45.9067 O.2       7 UNK        -0.5000 
     37 CA          1.0864  -17.9598  -44.7112 C.3       7 UNK         0.1400 
     38 CB          1.9458  -17.0133  -45.5643 C.3       7 UNK        -0.1800 
     39 N           1.1333  -17.4953  -43.3199 N.am      7 UNK        -0.5000 
     40 C           0.3822  -17.8944  -42.2821 C.2       6 UNK         0.5000 
     41 O          -0.5065  -18.7425  -42.3724 O.2       6 UNK        -0.5000 
     42 CA          0.6606  -17.2492  -40.9054 C.3       6 UNK         0.1400 
     43 CB          0.8942  -18.3317  -39.8380 C.3       6 UNK        -0.1800 
     44 N           1.7945  -16.3171  -40.8788 N.am      6 UNK        -0.5000 
     45 C           1.8211  -15.0975  -41.4312 C.2       5 UNK         0.5000 
     46 O           0.8787  -14.6197  -42.0677 O.2       5 UNK        -0.5000 
     47 CA          3.1498  -14.3282  -41.2896 C.3       5 UNK         0.1400 
     48 CB          4.2690  -15.0288  -42.0783 C.3       5 UNK        -0.1800 
     49 N           3.0349  -12.9496  -41.7621 N.am      5 UNK        -0.5000 
     50 C           2.4377  -11.9607  -41.0822 C.2       4 UNK         0.5000 
     51 O           1.9811  -12.0999  -39.9452 O.2       4 UNK        -0.5000 
     52 CA          2.3327  -10.5946  -41.7948 C.3       4 UNK         0.1400 
     53 CB          2.0971   -9.4177  -40.8247 C.3       4 UNK        -0.1800 
     54 N           3.4628  -10.3212  -42.6879 N.am      4 UNK        -0.5000 
     55 C           4.7589  -10.1923  -42.3600 C.2       3 UNK         0.5000 
     56 O           5.1779  -10.2224  -41.2021 O.2       3 UNK        -0.5000 
     57 CA          5.7657  -10.0187  -43.5171 C.3       3 UNK         0.1400 
     58 CB          6.8399  -11.1194  -43.4773 C.3       3 UNK        -0.1800 
     59 N           5.1111  -10.0579  -44.8259 N.am      3 UNK        -0.5000 
     60 C           4.7141   -8.9871  -45.5270 C.2       2 UNK         0.5000 
     61 O           4.9269   -7.8252  -45.1796 O.2       2 UNK        -0.5000 
     62 CA          3.9253   -9.2563  -46.8259 C.3       2 UNK         0.1400 
     63 CB          4.8583   -9.1865  -48.0443 C.3       2 UNK        -0.1800 
     64 N           3.2330  -10.5485  -46.8315 N.am      2 UNK        -0.5000 
     65 C           2.1993  -10.8723  -46.0402 C.2       1 UNK         0.5000 
     66 O           1.6877  -10.0914  -45.2380 O.2       1 UNK        -0.5000 
     67 C          -0.6740  -22.6057  -48.0112 C.2       11 UNK         0.5000 
     68 O          -0.6980  -23.3135  -49.0171 O.2       11 UNK        -0.5000 
     69 N          -1.7486  -21.9433  -47.5563 N.am      12 UNK        -0.5000 
     70 CA         -3.0990  -22.0919  -48.1032 C.3       12 UNK         0.1400 
     71 CB         -4.0363  -21.0680  -47.4552 C.3       12 UNK        -0.1800 
     72 C          -3.6286  -23.5237  -47.9117 C.2       12 UNK         0.5000 
     73 O          -4.0691  -24.1441  -48.8793 O.2       12 UNK        -0.5000 
     74 N          -3.4925  -24.0521  -46.6857 N.am      13 UNK        -0.5000 
     75 CA         -3.8265  -25.4308  -46.3154 C.3       13 UNK         0.1400 
     76 CB         -3.7162  -25.5824  -44.7911 C.3       13 UNK        -0.1800 
     77 C          -2.9637  -26.4940  -47.0257 C.2       13 UNK         0.5000 
     78 O          -3.3990  -27.6386  -47.1524 O.2       13 UNK        -0.5000 
     79 N          -1.7804  -26.0932  -47.5109 N.am      14 UNK        -0.5000 
     80 CA         -0.8943  -26.8986  -48.3539 C.3       14 UNK         0.1400 
     81 CB          0.5565  -26.4268  -48.1572 C.3       14 UNK        -0.1800 
     82 C          -1.2975  -26.8823  -49.8469 C.2       14 UNK         0.5000 
     83 O          -0.5618  -27.4368  -50.6641 O.2       14 UNK        -0.5000 
     84 N          -2.4482  -26.2709  -50.1742 N.am      15 UNK        -0.5000 
     85 CA         -3.0652  -26.1572  -51.4968 C.3       15 UNK         0.1400 
     86 CB         -3.3607  -27.5491  -52.0959 C.3       15 UNK        -0.1800 
     87 C          -2.2532  -25.2369  -52.4265 C.2       15 UNK         0.5000 
     88 O          -1.7943  -25.6684  -53.4860 O.2       15 UNK        -0.5000 
     89 N          -2.1048  -23.9766  -51.9922 N.am      16 UNK        -0.5000 
     90 CA         -1.3117  -22.9019  -52.6028 C.3       16 UNK         0.1400 
     91 CB         -1.6496  -21.5769  -51.9019 C.3       16 UNK        -0.1800 
     92 C          -1.4665  -22.7266  -54.1258 C.2       16 UNK         0.5000 
     93 O          -0.4648  -22.5179  -54.8112 O.2       16 UNK        -0.5000 
     94 N          -2.7058  -22.8208  -54.6223 N.am      17 UNK        -0.5000 
     95 CA         -3.0437  -22.7160  -56.0445 C.3       17 UNK         0.1400 
     96 CB         -3.8758  -21.4404  -56.2613 C.3       17 UNK        -0.1800 
     97 C          -3.7668  -23.9879  -56.5221 C.2       17 UNK         0.5000 
     98 O          -4.7333  -23.8974  -57.2799 O.2       17 UNK        -0.5000 
     99 N          -3.3236  -25.1499  -56.0128 N.am      18 UNK        -0.5000 
    100 CA        -3.9739  -26.4686  -56.1042 C.3       18 UNK         0.1400 
    101 CB        -4.1023  -26.9469  -57.5652 C.3       18 UNK        -0.1800 
    102 C         -5.3129  -26.5256  -55.3320 C.2       18 UNK         0.5000 
    103 O         -6.1134  -27.4400  -55.5311 O.2       18 UNK        -0.5000 
    104 N         -5.4999  -25.5486  -54.4408 N.am      19 UNK        -0.5000 
    105 CA        -6.6296  -25.2827  -53.5693 C.3       19 UNK         0.1400 
    106 CB        -7.8726  -24.8998  -54.3955 C.3       19 UNK        -0.1800 
    107 C         -6.2073  -24.1178  -52.6606 C.2       19 UNK         0.5000 
    108 O         -5.2407  -23.4097  -52.9718 O.2       19 UNK        -0.5000 
    109 N         -6.9586  -23.9165  -51.5736 N.am      20 UNK        -0.5000 
    110 CA        -6.7593  -22.8431  -50.5932 C.3       20 UNK         0.1400 
    111 CB        -7.3582  -23.2880  -49.2478 C.3       20 UNK        -0.1800 
    112 C         -7.3250  -21.4770  -51.0438 C.2       20 UNK         0.5000 
    113 O         -7.4082  -20.5574  -50.2299 O.2       20 UNK        -0.5000 
    114 N         -7.7122  -21.3619  -52.3224 N.am      21 UNK        -0.5000 
    115 CA        -8.1485  -20.1207  -52.9642 C.3       21 UNK         0.1400 
    116 CB        -8.8165  -20.4642  -54.3046 C.3       21 UNK        -0.1800 
    117 C         -6.9933  -19.1219  -53.1782 C.2       21 UNK         0.5000 
    118 O         -7.2352  -17.9147  -53.1910 O.2       21 UNK        -0.5000 
    119 N         -5.7686  -19.6471  -53.3335 N.am      22 UNK        -0.5000 
    120 CA        -4.4976  -18.9025  -53.4334 C.3       22 UNK         0.1400 
    121 C         -4.3213  -18.0496  -54.7283 C.2       22 UNK         0.5000 
    122 N         -5.1604  -18.2013  -55.7454 N.am      22 UNK        -0.7600 
    123 O         -3.3863  -17.2602  -54.8312 O.2       22 UNK        -0.5000 
    124 C124       -4.1661  -18.0849  -52.1520 C.3       23 UNK        -0.0398 
    125 S125       -4.2716  -19.0728  -50.6223 S.3       23 UNK        -0.2404 
    126 C126       -3.7824  -17.8278  -49.3850 C.3       23 UNK        -0.0205 
    127 H127        5.7971  -14.0972  -46.2891 H         1 UNK         0.0600 
    128 H128        4.9699  -15.3189  -45.3198 H         1 UNK         0.0600 
    129 H129        4.4993  -15.0628  -47.0011 H         1 UNK         0.0600 
    130 H130        2.6512  -13.8282  -47.2532 H         1 UNK         0.3000 
    131 H131        1.3214  -12.5772  -45.1131 H         1 UNK         0.0600 
    132 H132        0.8176  -12.1683  -48.1053 H         1 UNK         0.0800 
    133 H133       -0.2834  -11.7458  -46.8192 H         1 UNK         0.0800 
    134 H134        1.1448  -14.5575  -49.0470 H         1 UNK         0.0800 
    135 H135       -0.4294  -13.9425  -49.5034 H         1 UNK         0.0800 
    136 H136       -2.4874  -15.4609  -49.0764 H         1 UNK         0.1150 
    137 H137       -1.7302  -19.6587  -49.5013 H         1 UNK         0.1150 
    138 H138        1.5402  -16.9259  -49.1021 H         1 UNK         0.1150 
    139 H139        0.4869  -20.4422  -49.8797 H         1 UNK         0.0800 
    140 H140        1.7869  -19.3112  -50.1530 H         1 UNK         0.0800 
    141 H141        1.8767  -22.1428  -48.9353 H         1 UNK         0.0800 
    142 H142        2.7197  -22.0937  -47.4247 H         1 UNK         0.0800 
    143 H143        0.9561  -23.5756  -47.1150 H         1 UNK         0.0600 
    144 H144        0.3994  -21.0686  -45.6616 H         1 UNK         0.3000 
    145 H145       -0.6362  -23.0540  -42.7880 H         1 UNK         0.0600 
    146 H146        0.8481  -21.3614  -41.8006 H         1 UNK         0.0600 
    147 H147        1.7910  -22.4666  -42.7883 H         1 UNK         0.0600 
    148 H148        1.4089  -20.8601  -43.3921 H         1 UNK         0.0600 
    149 H149       -1.0374  -20.3296  -43.0189 H         1 UNK         0.3000 
    150 H150       -4.4952  -20.4419  -44.0147 H         1 UNK         0.0600 
    151 H151       -4.2798  -21.1091  -41.6248 H         1 UNK         0.0600 
    152 H152       -4.6086  -19.3891  -41.7720 H         1 UNK         0.0600 
    153 H153       -2.9793  -19.9445  -41.3956 H         1 UNK         0.0600 
    154 H154       -2.0978  -18.7136  -43.5183 H         1 UNK         0.3000 
    155 H155       -2.6233  -17.0305  -46.4923 H         1 UNK         0.0600 
    156 H156       -2.6382  -14.8475  -45.3220 H         1 UNK         0.0600 
    157 H157       -3.1409  -15.6232  -43.8194 H         1 UNK         0.0600 
    158 H158       -4.2228  -15.5925  -45.2074 H         1 UNK         0.0600 
    159 H159       -0.8304  -16.3131  -44.4776 H         1 UNK         0.3000 
    160 H160        1.5425  -18.9499  -44.7425 H         1 UNK         0.0600 
    161 H161        1.6079  -15.9800  -45.4812 H         1 UNK         0.0600 
    162 H162        1.9072  -17.2840  -46.6190 H         1 UNK         0.0600 
    163 H163        2.9917  -17.0495  -45.2602 H         1 UNK         0.0600 
    164 H164        1.8158  -16.7792  -43.1255 H         1 UNK         0.3000 
    165 H165       -0.2392  -16.6942  -40.6325 H         1 UNK         0.0600 
    166 H166        1.7753  -18.9338  -40.0632 H         1 UNK         0.0600 
    167 H167        1.0309  -17.8903  -38.8506 H         1 UNK         0.0600 
    168 H168        0.0427  -19.0104  -39.7698 H         1 UNK         0.0600 
    169 H169        2.6183  -16.6449  -40.3946 H         1 UNK         0.3000 
    170 H170        3.4274  -14.3116  -40.2336 H         1 UNK         0.0600 
    171 H171        4.5183  -15.9948  -41.6383 H         1 UNK         0.0600 
    172 H172        3.9774  -15.2090  -43.1125 H         1 UNK         0.0600 
    173 H173        5.1826  -14.4336  -42.0866 H         1 UNK         0.0600 
    174 H174        3.3658  -12.7708  -42.7053 H         1 UNK         0.3000 
    175 H175        1.4547  -10.6649  -42.4383 H         1 UNK         0.0600 
    176 H176        2.0204   -8.4730  -41.3629 H         1 UNK         0.0600 
    177 H177        1.1676   -9.5492  -40.2696 H         1 UNK         0.0600 
    178 H178        2.9017   -9.3247  -40.0949 H         1 UNK         0.0600 
    179 H179        3.2228  -10.2708  -43.6695 H         1 UNK         0.3000 
    180 H180        6.2616   -9.0564  -43.3755 H         1 UNK         0.0600 
    181 H181        7.4025  -11.0853  -42.5436 H         1 UNK         0.0600 
    182 H182        6.4022  -12.1149  -43.5588 H         1 UNK         0.0600 
    183 H183        7.5564  -11.0005  -44.2903 H         1 UNK         0.0600 
    184 H184        4.8577  -10.9808  -45.1567 H         1 UNK         0.3000 
    185 H185        3.1745   -8.4692  -46.9232 H         1 UNK         0.0600 
    186 H186        4.3019   -9.3000  -48.9749 H         1 UNK         0.0600 
    187 H187        5.3710   -8.2246  -48.0894 H         1 UNK         0.0600 
    188 H188        5.6223   -9.9643  -48.0113 H         1 UNK         0.0600 
    189 H189        3.6027  -11.2567  -47.4491 H         1 UNK         0.3000 
    190 H190       -1.6432  -21.3618  -46.7361 H         1 UNK         0.3000 
    191 H191       -3.0562  -21.8814  -49.1731 H         1 UNK         0.0600 
    192 H192       -4.9755  -20.9969  -48.0051 H         1 UNK         0.0600 
    193 H193       -3.5800  -20.0806  -47.4508 H         1 UNK         0.0600 
    194 H194       -4.2790  -21.3209  -46.4238 H         1 UNK         0.0600 
    195 H195       -3.1458  -23.4633  -45.9322 H         1 UNK         0.3000 
    196 H196       -4.8644  -25.6095  -46.6035 H         1 UNK         0.0600 
    197 H197       -3.9714  -26.5950  -44.4763 H         1 UNK         0.0600 
    198 H198       -4.3958  -24.9020  -44.2775 H         1 UNK         0.0600 
    199 H199       -2.7047  -25.3724  -44.4404 H         1 UNK         0.0600 
    200 H200       -1.5093  -25.1317  -47.3656 H         1 UNK         0.3000 
    201 H201       -0.9500  -27.9368  -48.0206 H         1 UNK         0.0600 
    202 H202        0.8128  -26.3529  -47.0999 H         1 UNK         0.0600 
    203 H203        0.7331  -25.4561  -48.6181 H         1 UNK         0.0600 
    204 H204        1.2564  -27.1290  -48.6114 H         1 UNK         0.0600 
    205 H205       -2.9468  -25.7852  -49.4372 H         1 UNK         0.3000 
    206 H206       -4.0257  -25.6668  -51.3358 H         1 UNK         0.0600 
    207 H207       -3.9274  -28.1653  -51.3979 H         1 UNK         0.0600 
    208 H208       -3.9533  -27.4661  -53.0041 H         1 UNK         0.0600 
    209 H209       -2.4501  -28.0888  -52.3563 H         1 UNK         0.0600 
    210 H210       -2.5042  -23.7540  -51.0914 H         1 UNK         0.3000 
    211 H211       -0.2631  -23.1338  -52.4075 H         1 UNK         0.0600 
    212 H212       -2.7156  -21.3557  -51.9598 H         1 UNK         0.0600 
    213 H213       -1.1133  -20.7391  -52.3499 H         1 UNK         0.0600 
    214 H214       -1.3728  -21.6059  -50.8514 H         1 UNK         0.0600 
    215 H215       -3.4749  -22.9879  -53.9814 H         1 UNK         0.3000 
    216 H216       -2.1427  -22.6354  -56.6555 H         1 UNK         0.0600 
    217 H217       -4.1405  -21.3114  -57.3114 H         1 UNK         0.0600 
    218 H218       -4.8015  -21.4606  -55.6852 H         1 UNK         0.0600 
    219 H219       -3.3102  -20.5580  -55.9648 H         1 UNK         0.0600 
    220 H220       -2.5382  -25.1143  -55.3699 H         1 UNK         0.3000 
    221 H221       -3.3058  -27.1627  -55.5924 H         1 UNK         0.0600 
    222 H222       -4.8428  -26.3716  -58.1209 H         1 UNK         0.0600 
    223 H223       -3.1508  -26.8695  -58.0911 H         1 UNK         0.0600 
    224 H224       -4.4101  -27.9923  -57.6054 H         1 UNK         0.0600 
    225 H225       -4.7762  -24.8479  -54.3537 H         1 UNK         0.3000 
    226 H226       -6.8299  -26.1657  -52.9598 H         1 UNK         0.0600 
    227 H227       -8.7169  -24.6540  -53.7506 H         1 UNK         0.0600 
    228 H228       -7.6802  -24.0346  -55.0317 H         1 UNK         0.0600 
    229 H229       -8.1925  -25.7195  -55.0385 H         1 UNK         0.0600 
    230 H230       -7.7445  -24.5278  -51.4024 H         1 UNK         0.3000 
    231 H231       -5.6865  -22.6985  -50.4513 H         1 UNK         0.0600 
    232 H232       -7.1554  -22.5562  -48.4648 H         1 UNK         0.0600 
    233 H233       -6.9268  -24.2337  -48.9190 H         1 UNK         0.0600 
    234 H234       -8.4395  -23.4138  -49.3107 H         1 UNK         0.0600 
    235 H235       -7.6266  -22.1732  -52.9148 H         1 UNK         0.3000 
    236 H236       -8.8898  -19.6413  -52.3214 H         1 UNK         0.0600 
    237 H237       -8.1252  -20.9645  -54.9841 H         1 UNK         0.0600 
    238 H238       -9.6770  -21.1179  -54.1601 H         1 UNK         0.0600 
    239 H239       -9.1748  -19.5633  -54.8044 H         1 UNK         0.0600 
    240 H240       -5.6812  -20.6523  -53.3017 H         1 UNK         0.3000 
    241 H241       -3.7317  -19.6738  -53.5190 H         1 UNK         0.0600 
    242 H242       -5.0308  -17.6530  -56.5809 H         1 UNK         0.3800 
    243 H243       -5.9356  -18.8397  -55.6789 H         1 UNK         0.3800 
    244 H244       -4.8385  -17.2307  -52.0613 H         1 UNK         0.0800 
    245 H245       -3.1561  -17.6758  -52.2133 H         1 UNK         0.0800 
    246 H246       -4.3123  -16.8983  -49.5983 H         1 UNK         0.0800 
    247 H247       -4.1260  -18.1447  -48.4015 H         1 UNK         0.0800 
@<TRIPOS>BOND
     1    1    2 1    
     2    1  127 1    
     3    1  128 1    
     4    1  129 1    
     5    2    3 2    
     6    2    4 am   BACKBONE|DICT|INTERRES
     7    4    5 1    
     8    4  130 1    
     9    5    6 1    
    10    5   65 1    
    11    5  131 1    
    12    6    7 1    
    13    6  132 1    
    14    6  133 1    
    15    7    8 1    
    16    8    9 1    
    17    8  134 1    
    18    8  135 1    
    19    9   10 ar   
    20    9   14 ar   
    21   10   11 ar   
    22   10  136 1    
    23   11   12 ar   
    24   11  126 1    
    25   12   13 ar   
    26   12  137 1    
    27   13   14 ar   
    28   13   15 1    
    29   14  138 1    
    30   15   16 1    
    31   15  139 1    
    32   15  140 1    
    33   16   17 1    
    34   17   18 1    
    35   17  141 1    
    36   17  142 1    
    37   18   19 1    
    38   18   67 1    
    39   18  143 1    
    40   19   20 am   BACKBONE|DICT|INTERRES
    41   19  144 1    
    42   20   21 2    
    43   20   22 1    
    44   22   23 1    
    45   22   24 1    
    46   22  145 1    
    47   23  146 1    
    48   23  147 1    
    49   23  148 1    
    50   24   25 am   BACKBONE|DICT|INTERRES
    51   24  149 1    
    52   25   26 2    
    53   25   27 1    
    54   27   28 1    
    55   27   29 1    
    56   27  150 1    
    57   28  151 1    
    58   28  152 1    
    59   28  153 1    
    60   29   30 am   BACKBONE|DICT|INTERRES
    61   29  154 1    
    62   30   31 2    
    63   30   32 1    
    64   32   33 1    
    65   32   34 1    
    66   32  155 1    
    67   33  156 1    
    68   33  157 1    
    69   33  158 1    
    70   34   35 am   BACKBONE|DICT|INTERRES
    71   34  159 1    
    72   35   36 2    
    73   35   37 1    
    74   37   38 1    
    75   37   39 1    
    76   37  160 1    
    77   38  161 1    
    78   38  162 1    
    79   38  163 1    
    80   39   40 am   BACKBONE|DICT|INTERRES
    81   39  164 1    
    82   40   41 2    
    83   40   42 1    
    84   42   43 1    
    85   42   44 1    
    86   42  165 1    
    87   43  166 1    
    88   43  167 1    
    89   43  168 1    
    90   44   45 am   BACKBONE|DICT|INTERRES
    91   44  169 1    
    92   45   46 2    
    93   45   47 1    
    94   47   48 1    
    95   47   49 1    
    96   47  170 1    
    97   48  171 1    
    98   48  172 1    
    99   48  173 1    
   100   49   50 am   BACKBONE|DICT|INTERRES
   101   49  174 1    
   102   50   51 2    
   103   50   52 1    
   104   52   53 1    
   105   52   54 1    
   106   52  175 1    
   107   53  176 1    
   108   53  177 1    
   109   53  178 1    
   110   54   55 am   BACKBONE|DICT|INTERRES
   111   54  179 1    
   112   55   56 2    
   113   55   57 1    
   114   57   58 1    
   115   57   59 1    
   116   57  180 1    
   117   58  181 1    
   118   58  182 1    
   119   58  183 1    
   120   59   60 am   BACKBONE|DICT|INTERRES
   121   59  184 1    
   122   60   61 2    
   123   60   62 1    
   124   62   63 1    
   125   62   64 1    
   126   62  185 1    
   127   63  186 1    
   128   63  187 1    
   129   63  188 1    
   130   64   65 am   BACKBONE|DICT|INTERRES
   131   64  189 1    
   132   65   66 2    
   133   67   68 2    
   134   67   69 am   BACKBONE|DICT|INTERRES
   135   69   70 1    
   136   69  190 1    
   137   70   71 1    
   138   70   72 1    
   139   70  191 1    
   140   71  192 1    
   141   71  193 1    
   142   71  194 1    
   143   72   73 2    
   144   72   74 am   BACKBONE|DICT|INTERRES
   145   74   75 1    
   146   74  195 1    
   147   75   76 1    
   148   75   77 1    
   149   75  196 1    
   150   76  197 1    
   151   76  198 1    
   152   76  199 1    
   153   77   78 2    
   154   77   79 am   BACKBONE|DICT|INTERRES
   155   79   80 1    
   156   79  200 1    
   157   80   81 1    
   158   80   82 1    
   159   80  201 1    
   160   81  202 1    
   161   81  203 1    
   162   81  204 1    
   163   82   83 2    
   164   82   84 am   BACKBONE|DICT|INTERRES
   165   84   85 1    
   166   84  205 1    
   167   85   86 1    
   168   85   87 1    
   169   85  206 1    
   170   86  207 1    
   171   86  208 1    
   172   86  209 1    
   173   87   88 2    
   174   87   89 am   BACKBONE|DICT|INTERRES
   175   89   90 1    
   176   89  210 1    
   177   90   91 1    
   178   90   92 1    
   179   90  211 1    
   180   91  212 1    
   181   91  213 1    
   182   91  214 1    
   183   92   93 2    
   184   92   94 am   BACKBONE|DICT|INTERRES
   185   94   95 1    
   186   94  215 1    
   187   95   96 1    
   188   95   97 1    
   189   95  216 1    
   190   96  217 1    
   191   96  218 1    
   192   96  219 1    
   193   97   98 2    
   194   97   99 am   BACKBONE|DICT|INTERRES
   195   99  100 1    
   196   99  220 1    
   197  100  101 1    
   198  100  102 1    
   199  100  221 1    
   200  101  222 1    
   201  101  223 1    
   202  101  224 1    
   203  102  103 2    
   204  102  104 am   BACKBONE|DICT|INTERRES
   205  104  105 1    
   206  104  225 1    
   207  105  106 1    
   208  105  107 1    
   209  105  226 1    
   210  106  227 1    
   211  106  228 1    
   212  106  229 1    
   213  107  108 2    
   214  107  109 am   BACKBONE|DICT|INTERRES
   215  109  110 1    
   216  109  230 1    
   217  110  111 1    
   218  110  112 1    
   219  110  231 1    
   220  111  232 1    
   221  111  233 1    
   222  111  234 1    
   223  112  113 2    
   224  112  114 am   BACKBONE|DICT|INTERRES
   225  114  115 1    
   226  114  235 1    
   227  115  116 1    
   228  115  117 1    
   229  115  236 1    
   230  116  237 1    
   231  116  238 1    
   232  116  239 1    
   233  117  118 2    
   234  117  119 am   BACKBONE|DICT|INTERRES
   235  119  120 1    
   236  119  240 1    
   237  120  121 1    
   238  120  124 1    
   239  120  241 1    
   240  121  122 am   BACKBONE|DICT|INTERRES
   241  121  123 2    
   242  122  242 1    
   243  122  243 1    
   244  124  125 1    
   245  124  244 1    
   246  124  245 1    
   247  125  126 1    
   248  126  246 1    
   249  126  247 1    
@<TRIPOS>SUBSTRUCTURE
     1 UNK         1 GROUP             0       ****    0 ROOT    
