@<TRIPOS>MOLECULE
3R540
247   249    1
SMALL
USER_CHARGES


@<TRIPOS>ATOM
      1 CA         -4.9526  -13.2830  -45.7397 C.3       0 UNK        -0.1800 
      2 C          -3.6936  -14.1366  -45.6927 C.2       0 UNK         0.5000 
      3 O          -2.7837  -13.8474  -44.9147 O.2       0 UNK        -0.5000 
      4 N          -3.6387  -15.1920  -46.5142 N.am      1 UNK        -0.5000 
      5 CA         -2.5193  -16.1353  -46.6254 C.3       1 UNK         0.1400 
      6 C6         -2.4680  -16.8001  -48.0238 C.3       23 UNK        -0.0398 
      7 S7         -2.1698  -15.5928  -49.3616 S.3       23 UNK        -0.2404 
      8 C8         -0.3592  -15.3842  -49.3063 C.3       23 UNK        -0.0205 
      9 C9          0.3787  -16.5503  -49.9465 C.ar      23 UNK        -0.0193 
     10 C10         0.7126  -16.5179  -51.3039 C.ar      23 UNK        -0.1150 
     11 C11         1.4136  -17.5769  -51.8922 C.ar      23 UNK        -0.0193 
     12 C12         1.7508  -18.6890  -51.1130 C.ar      23 UNK        -0.1150 
     13 C13         1.3968  -18.7434  -49.7632 C.ar      23 UNK        -0.0193 
     14 C14         0.7445  -17.6569  -49.1782 C.ar      23 UNK        -0.1150 
     15 C15         1.6994  -19.9805  -48.9338 C.3       23 UNK        -0.0205 
     16 S16         0.6297  -21.3913  -49.3693 S.3       23 UNK        -0.2404 
     17 C17        -1.0609  -20.7224  -49.1862 C.3       23 UNK        -0.0398 
     18 CA         -1.8708  -21.4318  -48.0790 C.3       11 UNK         0.1400 
     19 N          -1.3816  -21.1203  -46.7353 N.am      11 UNK        -0.5000 
     20 C          -1.7163  -21.7778  -45.6206 C.2       10 UNK         0.5000 
     21 O          -2.4826  -22.7441  -45.6204 O.2       10 UNK        -0.5000 
     22 CA         -1.1287  -21.2442  -44.2933 C.3       10 UNK         0.1400 
     23 CB         -1.4225  -22.1716  -43.1012 C.3       10 UNK        -0.1800 
     24 N           0.3122  -20.9670  -44.3303 N.am      10 UNK        -0.5000 
     25 C           0.8969  -19.9364  -44.9525 C.2       9 UNK         0.5000 
     26 O           0.2840  -19.1297  -45.6591 O.2       9 UNK        -0.5000 
     27 CA          2.4141  -19.7785  -44.7675 C.3       9 UNK         0.1400 
     28 CB          3.2018  -20.9350  -45.4077 C.3       9 UNK        -0.1800 
     29 N           2.7882  -18.5156  -45.3884 N.am      9 UNK        -0.5000 
     30 C           3.7563  -17.6843  -45.0014 C.2       8 UNK         0.5000 
     31 O           4.5748  -17.9521  -44.1186 O.2       8 UNK        -0.5000 
     32 CA          3.8064  -16.3364  -45.7477 C.3       8 UNK         0.1400 
     33 CB          2.4064  -15.7050  -45.8968 C.3       8 UNK        -0.1800 
     34 N           4.6593  -15.3910  -45.0341 N.am      8 UNK        -0.5000 
     35 C           5.7878  -14.8444  -45.5037 C.2       7 UNK         0.5000 
     36 O           6.2513  -15.0920  -46.6181 O.2       7 UNK        -0.5000 
     37 CA          6.5208  -13.8276  -44.6016 C.3       7 UNK         0.1400 
     38 CB          6.3856  -12.4074  -45.1746 C.3       7 UNK        -0.1800 
     39 N           6.0338  -13.8172  -43.2218 N.am      7 UNK        -0.5000 
     40 C           6.3596  -14.7185  -42.2866 C.2       6 UNK         0.5000 
     41 O           7.1863  -15.6143  -42.4611 O.2       6 UNK        -0.5000 
     42 CA          5.6335  -14.6087  -40.9294 C.3       6 UNK         0.1400 
     43 CB          6.5347  -13.9189  -39.8935 C.3       6 UNK        -0.1800 
     44 N           4.3420  -13.9103  -40.9735 N.am      6 UNK        -0.5000 
     45 C           3.2717  -14.3154  -41.6692 C.2       5 UNK         0.5000 
     46 O           3.2791  -15.2804  -42.4337 O.2       5 UNK        -0.5000 
     47 CA          1.9680  -13.5314  -41.4547 C.3       5 UNK         0.1400 
     48 CB          1.3084  -13.1485  -42.7898 C.3       5 UNK        -0.1800 
     49 N           1.0598  -14.3783  -40.6914 N.am      5 UNK        -0.5000 
     50 C           1.0789  -14.4900  -39.3550 C.2       4 UNK         0.5000 
     51 O           1.7249  -13.7442  -38.6176 O.2       4 UNK        -0.5000 
     52 CA          0.2724  -15.6504  -38.7358 C.3       4 UNK         0.1400 
     53 CB         -1.1379  -15.1809  -38.3477 C.3       4 UNK        -0.1800 
     54 N           0.1604  -16.8055  -39.6276 N.am      4 UNK        -0.5000 
     55 C           1.1860  -17.5501  -40.0674 C.2       3 UNK         0.5000 
     56 O           2.3367  -17.4382  -39.6438 O.2       3 UNK        -0.5000 
     57 CA          0.8854  -18.5766  -41.1812 C.3       3 UNK         0.1400 
     58 CB          1.0655  -20.0131  -40.6660 C.3       3 UNK        -0.1800 
     59 N          -0.4492  -18.4454  -41.7817 N.am      3 UNK        -0.5000 
     60 C          -0.8435  -17.4177  -42.5455 C.2       2 UNK         0.5000 
     61 O          -0.1243  -16.4522  -42.8110 O.2       2 UNK        -0.5000 
     62 CA         -2.3060  -17.4362  -43.0144 C.3       2 UNK         0.1400 
     63 CB         -3.2087  -16.7965  -41.9480 C.3       2 UNK        -0.1800 
     64 N          -2.4281  -16.6665  -44.2448 N.am      2 UNK        -0.5000 
     65 C          -2.5473  -17.1682  -45.4766 C.2       1 UNK         0.5000 
     66 O          -2.6979  -18.3684  -45.7167 O.2       1 UNK        -0.5000 
     67 C          -3.3820  -21.1604  -48.2398 C.2       11 UNK         0.5000 
     68 O          -3.9987  -21.7760  -49.1081 O.2       11 UNK        -0.5000 
     69 N          -3.9743  -20.2834  -47.4143 N.am      12 UNK        -0.5000 
     70 CA         -5.4257  -20.0841  -47.3581 C.3       12 UNK         0.1400 
     71 CB         -5.7575  -18.8134  -46.5610 C.3       12 UNK        -0.1800 
     72 C          -6.1558  -21.2992  -46.7570 C.2       12 UNK         0.5000 
     73 O          -7.2126  -21.6793  -47.2599 O.2       12 UNK        -0.5000 
     74 N          -5.5654  -21.9038  -45.7154 N.am      13 UNK        -0.5000 
     75 CA         -6.0920  -23.0937  -45.0424 C.3       13 UNK         0.1400 
     76 CB         -5.4218  -23.2506  -43.6696 C.3       13 UNK        -0.1800 
     77 C          -5.9022  -24.3641  -45.8884 C.2       13 UNK         0.5000 
     78 O          -6.7992  -25.2061  -45.9339 O.2       13 UNK        -0.5000 
     79 N          -4.7530  -24.4592  -46.5726 N.am      14 UNK        -0.5000 
     80 CA         -4.4348  -25.5283  -47.5238 C.3       14 UNK         0.1400 
     81 CB         -2.9191  -25.5278  -47.7756 C.3       14 UNK        -0.1800 
     82 C          -5.1976  -25.4078  -48.8610 C.2       14 UNK         0.5000 
     83 O          -5.1877  -26.3565  -49.6450 O.2       14 UNK        -0.5000 
     84 N          -5.8092  -24.2386  -49.1048 N.am      15 UNK        -0.5000 
     85 CA         -6.5376  -23.8128  -50.3057 C.3       15 UNK         0.1400 
     86 CB         -7.7218  -24.7493  -50.6182 C.3       15 UNK        -0.1800 
     87 C          -5.6402  -23.5693  -51.5373 C.2       15 UNK         0.5000 
     88 O          -6.1617  -23.3026  -52.6189 O.2       15 UNK        -0.5000 
     89 N          -4.3151  -23.5930  -51.3480 N.am      16 UNK        -0.5000 
     90 CA         -3.2962  -23.3060  -52.3573 C.3       16 UNK         0.1400 
     91 CB         -1.9315  -23.7696  -51.8267 C.3       16 UNK        -0.1800 
     92 C          -3.2356  -21.8223  -52.7656 C.2       16 UNK         0.5000 
     93 O          -2.7217  -21.5218  -53.8433 O.2       16 UNK        -0.5000 
     94 N          -3.7395  -20.9237  -51.9092 N.am      17 UNK        -0.5000 
     95 CA         -3.9255  -19.5063  -52.2264 C.3       17 UNK         0.1400 
     96 CB         -3.7192  -18.6610  -50.9607 C.3       17 UNK        -0.1800 
     97 C          -5.3173  -19.2355  -52.8268 C.2       17 UNK         0.5000 
     98 O          -5.4538  -18.3201  -53.6380 O.2       17 UNK        -0.5000 
     99 N          -6.3226  -20.0248  -52.4173 N.am      18 UNK        -0.5000 
    100 CA        -7.7083  -19.9224  -52.8808 C.3       18 UNK         0.1400 
    101 CB        -8.6323  -20.6934  -51.9239 C.3       18 UNK        -0.1800 
    102 C         -7.8526  -20.4231  -54.3273 C.2       18 UNK         0.5000 
    103 O         -8.3289  -19.6849  -55.1902 O.2       18 UNK        -0.5000 
    104 N         -7.3725  -21.6469  -54.5741 N.am      19 UNK        -0.5000 
    105 CA        -7.1289  -22.2023  -55.8992 C.3       19 UNK         0.1400 
    106 CB        -7.4783  -23.7013  -55.8871 C.3       19 UNK        -0.1800 
    107 C         -5.6495  -21.9324  -56.2111 C.2       19 UNK         0.5000 
    108 O         -4.8195  -22.8266  -56.0493 O.2       19 UNK        -0.5000 
    109 N         -5.3678  -20.6649  -56.5498 N.am      20 UNK        -0.5000 
    110 CA        -4.0592  -20.0133  -56.6566 C.3       20 UNK         0.1400 
    111 CB        -4.2507  -18.6349  -57.3112 C.3       20 UNK        -0.1800 
    112 C         -2.9746  -20.8363  -57.3799 C.2       20 UNK         0.5000 
    113 O         -2.8928  -20.8149  -58.6101 O.2       20 UNK        -0.5000 
    114 N         -2.1735  -21.5444  -56.5819 N.am      21 UNK        -0.5000 
    115 CA        -1.0561  -22.3837  -57.0011 C.3       21 UNK         0.1400 
    116 CB        -1.4871  -23.8584  -56.9544 C.3       21 UNK        -0.1800 
    117 C          0.1817  -22.1512  -56.1186 C.2       21 UNK         0.5000 
    118 O          1.2962  -22.3617  -56.5979 O.2       21 UNK        -0.5000 
    119 N         -0.0215  -21.7183  -54.8630 N.am      22 UNK        -0.5000 
    120 CA         1.0228  -21.3715  -53.8783 C.3       22 UNK         0.1400 
    121 C          1.8967  -22.5675  -53.3840 C.2       22 UNK         0.5000 
    122 N          1.5276  -23.8158  -53.6444 N.am      22 UNK        -0.7600 
    123 O          2.9119  -22.3666  -52.7231 O.2       22 UNK        -0.5000 
    124 C124        1.8784  -20.1531  -54.3302 C.3       23 UNK        -0.0398 
    125 S125        0.8926  -18.6175  -54.4366 S.3       23 UNK        -0.2404 
    126 C126        1.8344  -17.4918  -53.3547 C.3       23 UNK        -0.0205 
    127 H127       -5.4359  -13.2740  -44.7627 H         1 UNK         0.0600 
    128 H128       -4.6996  -12.2567  -46.0060 H         1 UNK         0.0600 
    129 H129       -5.6696  -13.6574  -46.4709 H         1 UNK         0.0600 
    130 H130       -4.4223  -15.3775  -47.1231 H         1 UNK         0.3000 
    131 H131       -1.5884  -15.5789  -46.4987 H         1 UNK         0.0600 
    132 H132       -1.7066  -17.5750  -48.0602 H         1 UNK         0.0800 
    133 H133       -3.4078  -17.3094  -48.2373 H         1 UNK         0.0800 
    134 H134       -0.0286  -15.2453  -48.2764 H         1 UNK         0.0800 
    135 H135       -0.1025  -14.4609  -49.8277 H         1 UNK         0.0800 
    136 H136        0.4402  -15.6571  -51.8984 H         1 UNK         0.1150 
    137 H137        2.2804  -19.5224  -51.5481 H         1 UNK         0.1150 
    138 H138        0.4985  -17.6876  -48.1269 H         1 UNK         0.1150 
    139 H139        1.5829  -19.7650  -47.8740 H         1 UNK         0.0800 
    140 H140        2.7422  -20.2672  -49.0766 H         1 UNK         0.0800 
    141 H141       -1.5377  -20.8492  -50.1586 H         1 UNK         0.0800 
    142 H142       -1.0409  -19.6510  -49.0018 H         1 UNK         0.0800 
    143 H143       -1.7436  -22.5054  -48.2228 H         1 UNK         0.0600 
    144 H144       -0.7853  -20.3036  -46.6297 H         1 UNK         0.3000 
    145 H145       -1.6398  -20.3016  -44.1011 H         1 UNK         0.0600 
    146 H146       -2.4947  -22.3158  -42.9711 H         1 UNK         0.0600 
    147 H147       -1.0473  -21.7538  -42.1679 H         1 UNK         0.0600 
    148 H148       -0.9704  -23.1549  -43.2362 H         1 UNK         0.0600 
    149 H149        0.8939  -21.6167  -43.8218 H         1 UNK         0.3000 
    150 H150        2.6249  -19.7397  -43.6973 H         1 UNK         0.0600 
    151 H151        2.9814  -21.0420  -46.4693 H         1 UNK         0.0600 
    152 H152        2.9672  -21.8854  -44.9276 H         1 UNK         0.0600 
    153 H153        4.2762  -20.7809  -45.3058 H         1 UNK         0.0600 
    154 H154        2.0988  -18.1876  -46.0529 H         1 UNK         0.3000 
    155 H155        4.2028  -16.5356  -46.7451 H         1 UNK         0.0600 
    156 H156        1.8964  -15.6324  -44.9353 H         1 UNK         0.0600 
    157 H157        1.7708  -16.2883  -46.5625 H         1 UNK         0.0600 
    158 H158        2.4684  -14.7013  -46.3179 H         1 UNK         0.0600 
    159 H159        4.3818  -15.2147  -44.0731 H         1 UNK         0.3000 
    160 H160        7.5797  -14.0946  -44.6005 H         1 UNK         0.0600 
    161 H161        5.3445  -12.0835  -45.2051 H         1 UNK         0.0600 
    162 H162        6.7750  -12.3564  -46.1923 H         1 UNK         0.0600 
    163 H163        6.9453  -11.6862  -44.5787 H         1 UNK         0.0600 
    164 H164        5.3509  -13.1123  -42.9868 H         1 UNK         0.3000 
    165 H165        5.4406  -15.6279  -40.5879 H         1 UNK         0.0600 
    166 H166        7.4950  -14.4292  -39.8077 H         1 UNK         0.0600 
    167 H167        6.7371  -12.8819  -40.1644 H         1 UNK         0.0600 
    168 H168        6.0765  -13.9256  -38.9042 H         1 UNK         0.0600 
    169 H169        4.2444  -13.1187  -40.3535 H         1 UNK         0.3000 
    170 H170        2.1788  -12.6115  -40.9051 H         1 UNK         0.0600 
    171 H171        0.4051  -12.5606  -42.6262 H         1 UNK         0.0600 
    172 H172        1.0295  -14.0263  -43.3729 H         1 UNK         0.0600 
    173 H173        1.9831  -12.5484  -43.4013 H         1 UNK         0.0600 
    174 H174        0.5560  -15.0720  -41.2319 H         1 UNK         0.3000 
    175 H175        0.7922  -15.9711  -37.8307 H         1 UNK         0.0600 
    176 H176       -1.0921  -14.3328  -37.6632 H         1 UNK         0.0600 
    177 H177       -1.7127  -14.8678  -39.2204 H         1 UNK         0.0600 
    178 H178       -1.6937  -15.9727  -37.8451 H         1 UNK         0.0600 
    179 H179       -0.7520  -16.9859  -40.0167 H         1 UNK         0.3000 
    180 H180        1.6243  -18.4008  -41.9655 H         1 UNK         0.0600 
    181 H181        0.3109  -20.2720  -39.9226 H         1 UNK         0.0600 
    182 H182        2.0432  -20.1444  -40.2001 H         1 UNK         0.0600 
    183 H183        1.0027  -20.7350  -41.4789 H         1 UNK         0.0600 
    184 H184       -1.1077  -19.1796  -41.5654 H         1 UNK         0.3000 
    185 H185       -2.6272  -18.4665  -43.1716 H         1 UNK         0.0600 
    186 H186       -4.2495  -16.7840  -42.2726 H         1 UNK         0.0600 
    187 H187       -3.1690  -17.3536  -41.0112 H         1 UNK         0.0600 
    188 H188       -2.9148  -15.7679  -41.7335 H         1 UNK         0.0600 
    189 H189       -2.2958  -15.6638  -44.1580 H         1 UNK         0.3000 
    190 H190       -3.4130  -19.7610  -46.7447 H         1 UNK         0.3000 
    191 H191       -5.7954  -19.9470  -48.3765 H         1 UNK         0.0600 
    192 H192       -5.3250  -17.9290  -47.0257 H         1 UNK         0.0600 
    193 H193       -6.8355  -18.6548  -46.5115 H         1 UNK         0.0600 
    194 H194       -5.3884  -18.8708  -45.5363 H         1 UNK         0.0600 
    195 H195       -4.6719  -21.5596  -45.3961 H         1 UNK         0.3000 
    196 H196       -7.1629  -22.9516  -44.8817 H         1 UNK         0.0600 
    197 H197       -5.8743  -24.0702  -43.1100 H         1 UNK         0.0600 
    198 H198       -5.5291  -22.3477  -43.0683 H         1 UNK         0.0600 
    199 H199       -4.3589  -23.4712  -43.7639 H         1 UNK         0.0600 
    200 H200       -4.0351  -23.7591  -46.4124 H         1 UNK         0.3000 
    201 H201       -4.7072  -26.4846  -47.0725 H         1 UNK         0.0600 
    202 H202       -2.6261  -26.3759  -48.3957 H         1 UNK         0.0600 
    203 H203       -2.3610  -25.5995  -46.8418 H         1 UNK         0.0600 
    204 H204       -2.5989  -24.6228  -48.2902 H         1 UNK         0.0600 
    205 H205       -5.7181  -23.5245  -48.3953 H         1 UNK         0.3000 
    206 H206       -6.9563  -22.8378  -50.0528 H         1 UNK         0.0600 
    207 H207       -8.3495  -24.8975  -49.7395 H         1 UNK         0.0600 
    208 H208       -8.3552  -24.3305  -51.4011 H         1 UNK         0.0600 
    209 H209       -7.3878  -25.7278  -50.9634 H         1 UNK         0.0600 
    210 H210       -3.9887  -23.7308  -50.4027 H         1 UNK         0.3000 
    211 H211       -3.5334  -23.8801  -53.2556 H         1 UNK         0.0600 
    212 H212       -1.1430  -23.5789  -52.5546 H         1 UNK         0.0600 
    213 H213       -1.9316  -24.8405  -51.6227 H         1 UNK         0.0600 
    214 H214       -1.6592  -23.2539  -50.9055 H         1 UNK         0.0600 
    215 H215       -4.0602  -21.2492  -51.0029 H         1 UNK         0.3000 
    216 H216       -3.1813  -19.1890  -52.9604 H         1 UNK         0.0600 
    217 H217       -2.6976  -18.7433  -50.5931 H         1 UNK         0.0600 
    218 H218       -4.3966  -18.9558  -50.1598 H         1 UNK         0.0600 
    219 H219       -3.8968  -17.6044  -51.1654 H         1 UNK         0.0600 
    220 H220       -6.1134  -20.7765  -51.7808 H         1 UNK         0.3000 
    221 H221       -8.0013  -18.8705  -52.8573 H         1 UNK         0.0600 
    222 H222       -8.4014  -21.7584  -51.9013 H         1 UNK         0.0600 
    223 H223       -8.5530  -20.3118  -50.9057 H         1 UNK         0.0600 
    224 H224       -9.6749  -20.5929  -52.2278 H         1 UNK         0.0600 
    225 H225       -6.9589  -22.1763  -53.8082 H         1 UNK         0.3000 
    226 H226       -7.7468  -21.7116  -56.6542 H         1 UNK         0.0600 
    227 H227       -8.5350  -23.8549  -55.6685 H         1 UNK         0.0600 
    228 H228       -7.2754  -24.1555  -56.8575 H         1 UNK         0.0600 
    229 H229       -6.9019  -24.2483  -55.1397 H         1 UNK         0.0600 
    230 H230       -6.1550  -20.0361  -56.6254 H         1 UNK         0.3000 
    231 H231       -3.7161  -19.8327  -55.6367 H         1 UNK         0.0600 
    232 H232       -4.6849  -18.7189  -58.3082 H         1 UNK         0.0600 
    233 H233       -3.2980  -18.1128  -57.4095 H         1 UNK         0.0600 
    234 H234       -4.9051  -18.0018  -56.7114 H         1 UNK         0.0600 
    235 H235       -2.3865  -21.5422  -55.5863 H         1 UNK         0.3000 
    236 H236       -0.7691  -22.1355  -58.0250 H         1 UNK         0.0600 
    237 H237       -0.6715  -24.5167  -57.2559 H         1 UNK         0.0600 
    238 H238       -1.7994  -24.1528  -55.9515 H         1 UNK         0.0600 
    239 H239       -2.3230  -24.0433  -57.6294 H         1 UNK         0.0600 
    240 H240       -0.9731  -21.5890  -54.5358 H         1 UNK         0.3000 
    241 H241        0.4788  -21.0662  -52.9832 H         1 UNK         0.0600 
    242 H242        2.0957  -24.5782  -53.3105 H         1 UNK         0.3800 
    243 H243        0.7079  -24.0041  -54.1968 H         1 UNK         0.3800 
    244 H244        2.7184  -19.9894  -53.6565 H         1 UNK         0.0800 
    245 H245        2.3342  -20.3378  -55.3030 H         1 UNK         0.0800 
    246 H246        2.9042  -17.6852  -53.4437 H         1 UNK         0.0800 
    247 H247        1.6896  -16.4754  -53.7237 H         1 UNK         0.0800 
@<TRIPOS>BOND
     1    1    2 1    
     2    1  127 1    
     3    1  128 1    
     4    1  129 1    
     5    2    3 2    
     6    2    4 am   BACKBONE|DICT|INTERRES
     7    4    5 1    
     8    4  130 1    
     9    5    6 1    
    10    5   65 1    
    11    5  131 1    
    12    6    7 1    
    13    6  132 1    
    14    6  133 1    
    15    7    8 1    
    16    8    9 1    
    17    8  134 1    
    18    8  135 1    
    19    9   10 ar   
    20    9   14 ar   
    21   10   11 ar   
    22   10  136 1    
    23   11   12 ar   
    24   11  126 1    
    25   12   13 ar   
    26   12  137 1    
    27   13   14 ar   
    28   13   15 1    
    29   14  138 1    
    30   15   16 1    
    31   15  139 1    
    32   15  140 1    
    33   16   17 1    
    34   17   18 1    
    35   17  141 1    
    36   17  142 1    
    37   18   19 1    
    38   18   67 1    
    39   18  143 1    
    40   19   20 am   BACKBONE|DICT|INTERRES
    41   19  144 1    
    42   20   21 2    
    43   20   22 1    
    44   22   23 1    
    45   22   24 1    
    46   22  145 1    
    47   23  146 1    
    48   23  147 1    
    49   23  148 1    
    50   24   25 am   BACKBONE|DICT|INTERRES
    51   24  149 1    
    52   25   26 2    
    53   25   27 1    
    54   27   28 1    
    55   27   29 1    
    56   27  150 1    
    57   28  151 1    
    58   28  152 1    
    59   28  153 1    
    60   29   30 am   BACKBONE|DICT|INTERRES
    61   29  154 1    
    62   30   31 2    
    63   30   32 1    
    64   32   33 1    
    65   32   34 1    
    66   32  155 1    
    67   33  156 1    
    68   33  157 1    
    69   33  158 1    
    70   34   35 am   BACKBONE|DICT|INTERRES
    71   34  159 1    
    72   35   36 2    
    73   35   37 1    
    74   37   38 1    
    75   37   39 1    
    76   37  160 1    
    77   38  161 1    
    78   38  162 1    
    79   38  163 1    
    80   39   40 am   BACKBONE|DICT|INTERRES
    81   39  164 1    
    82   40   41 2    
    83   40   42 1    
    84   42   43 1    
    85   42   44 1    
    86   42  165 1    
    87   43  166 1    
    88   43  167 1    
    89   43  168 1    
    90   44   45 am   BACKBONE|DICT|INTERRES
    91   44  169 1    
    92   45   46 2    
    93   45   47 1    
    94   47   48 1    
    95   47   49 1    
    96   47  170 1    
    97   48  171 1    
    98   48  172 1    
    99   48  173 1    
   100   49   50 am   BACKBONE|DICT|INTERRES
   101   49  174 1    
   102   50   51 2    
   103   50   52 1    
   104   52   53 1    
   105   52   54 1    
   106   52  175 1    
   107   53  176 1    
   108   53  177 1    
   109   53  178 1    
   110   54   55 am   BACKBONE|DICT|INTERRES
   111   54  179 1    
   112   55   56 2    
   113   55   57 1    
   114   57   58 1    
   115   57   59 1    
   116   57  180 1    
   117   58  181 1    
   118   58  182 1    
   119   58  183 1    
   120   59   60 am   BACKBONE|DICT|INTERRES
   121   59  184 1    
   122   60   61 2    
   123   60   62 1    
   124   62   63 1    
   125   62   64 1    
   126   62  185 1    
   127   63  186 1    
   128   63  187 1    
   129   63  188 1    
   130   64   65 am   BACKBONE|DICT|INTERRES
   131   64  189 1    
   132   65   66 2    
   133   67   68 2    
   134   67   69 am   BACKBONE|DICT|INTERRES
   135   69   70 1    
   136   69  190 1    
   137   70   71 1    
   138   70   72 1    
   139   70  191 1    
   140   71  192 1    
   141   71  193 1    
   142   71  194 1    
   143   72   73 2    
   144   72   74 am   BACKBONE|DICT|INTERRES
   145   74   75 1    
   146   74  195 1    
   147   75   76 1    
   148   75   77 1    
   149   75  196 1    
   150   76  197 1    
   151   76  198 1    
   152   76  199 1    
   153   77   78 2    
   154   77   79 am   BACKBONE|DICT|INTERRES
   155   79   80 1    
   156   79  200 1    
   157   80   81 1    
   158   80   82 1    
   159   80  201 1    
   160   81  202 1    
   161   81  203 1    
   162   81  204 1    
   163   82   83 2    
   164   82   84 am   BACKBONE|DICT|INTERRES
   165   84   85 1    
   166   84  205 1    
   167   85   86 1    
   168   85   87 1    
   169   85  206 1    
   170   86  207 1    
   171   86  208 1    
   172   86  209 1    
   173   87   88 2    
   174   87   89 am   BACKBONE|DICT|INTERRES
   175   89   90 1    
   176   89  210 1    
   177   90   91 1    
   178   90   92 1    
   179   90  211 1    
   180   91  212 1    
   181   91  213 1    
   182   91  214 1    
   183   92   93 2    
   184   92   94 am   BACKBONE|DICT|INTERRES
   185   94   95 1    
   186   94  215 1    
   187   95   96 1    
   188   95   97 1    
   189   95  216 1    
   190   96  217 1    
   191   96  218 1    
   192   96  219 1    
   193   97   98 2    
   194   97   99 am   BACKBONE|DICT|INTERRES
   195   99  100 1    
   196   99  220 1    
   197  100  101 1    
   198  100  102 1    
   199  100  221 1    
   200  101  222 1    
   201  101  223 1    
   202  101  224 1    
   203  102  103 2    
   204  102  104 am   BACKBONE|DICT|INTERRES
   205  104  105 1    
   206  104  225 1    
   207  105  106 1    
   208  105  107 1    
   209  105  226 1    
   210  106  227 1    
   211  106  228 1    
   212  106  229 1    
   213  107  108 2    
   214  107  109 am   BACKBONE|DICT|INTERRES
   215  109  110 1    
   216  109  230 1    
   217  110  111 1    
   218  110  112 1    
   219  110  231 1    
   220  111  232 1    
   221  111  233 1    
   222  111  234 1    
   223  112  113 2    
   224  112  114 am   BACKBONE|DICT|INTERRES
   225  114  115 1    
   226  114  235 1    
   227  115  116 1    
   228  115  117 1    
   229  115  236 1    
   230  116  237 1    
   231  116  238 1    
   232  116  239 1    
   233  117  118 2    
   234  117  119 am   BACKBONE|DICT|INTERRES
   235  119  120 1    
   236  119  240 1    
   237  120  121 1    
   238  120  124 1    
   239  120  241 1    
   240  121  122 am   BACKBONE|DICT|INTERRES
   241  121  123 2    
   242  122  242 1    
   243  122  243 1    
   244  124  125 1    
   245  124  244 1    
   246  124  245 1    
   247  125  126 1    
   248  126  246 1    
   249  126  247 1    
@<TRIPOS>SUBSTRUCTURE
     1 UNK         1 GROUP             0       ****    0 ROOT    
