@<TRIPOS>MOLECULE
3R540
247   249    1
SMALL
USER_CHARGES


@<TRIPOS>ATOM
      1 CA         -2.3176  -14.7143  -52.6410 C.3       0 UNK        -0.1800 
      2 C          -1.3980  -14.6930  -51.4291 C.2       0 UNK         0.5000 
      3 O          -0.2129  -14.3887  -51.5636 O.2       0 UNK        -0.5000 
      4 N          -1.9381  -15.0070  -50.2482 N.am      1 UNK        -0.5000 
      5 CA         -1.2394  -14.9806  -48.9663 C.3       1 UNK         0.1400 
      6 C6         -0.2687  -16.1783  -48.7851 C.3       23 UNK        -0.0398 
      7 S7          1.1341  -15.7540  -47.6958 S.3       23 UNK        -0.2404 
      8 C8          2.4939  -15.5296  -48.8863 C.3       23 UNK        -0.0205 
      9 C9          2.9041  -16.8537  -49.5085 C.ar      23 UNK        -0.0193 
     10 C10         2.5577  -17.1515  -50.8282 C.ar      23 UNK        -0.1150 
     11 C11         2.8513  -18.4040  -51.3730 C.ar      23 UNK        -0.0193 
     12 C12         3.5334  -19.3495  -50.6004 C.ar      23 UNK        -0.1150 
     13 C13         3.8849  -19.0602  -49.2771 C.ar      23 UNK        -0.0193 
     14 C14         3.5813  -17.8052  -48.7431 C.ar      23 UNK        -0.1150 
     15 C15         4.5111  -20.1270  -48.3884 C.3       23 UNK        -0.0205 
     16 S16         3.3700  -21.5098  -48.0334 S.3       23 UNK        -0.2404 
     17 C17         1.7664  -20.6587  -47.8375 C.3       23 UNK        -0.0398 
     18 CA          0.6560  -21.6050  -47.3320 C.3       11 UNK         0.1400 
     19 N           0.7370  -21.8535  -45.8915 N.am      11 UNK        -0.5000 
     20 C          -0.0239  -22.7366  -45.2293 C.2       10 UNK         0.5000 
     21 O          -0.8388  -23.4844  -45.7709 O.2       10 UNK        -0.5000 
     22 CA          0.0999  -22.7418  -43.6960 C.3       10 UNK         0.1400 
     23 CB          1.3743  -23.4706  -43.2446 C.3       10 UNK        -0.1800 
     24 N           0.0715  -21.3920  -43.1320 N.am      10 UNK        -0.5000 
     25 C          -0.9649  -20.5473  -43.2404 C.2       9 UNK         0.5000 
     26 O          -2.0283  -20.8310  -43.7912 O.2       9 UNK        -0.5000 
     27 CA         -0.7673  -19.1347  -42.6676 C.3       9 UNK         0.1400 
     28 CB         -0.9099  -19.1583  -41.1367 C.3       9 UNK        -0.1800 
     29 N           0.5253  -18.5562  -43.0354 N.am      9 UNK        -0.5000 
     30 C           0.9361  -18.3058  -44.2878 C.2       8 UNK         0.5000 
     31 O           0.2471  -18.5022  -45.2858 O.2       8 UNK        -0.5000 
     32 CA          2.3908  -17.8335  -44.4598 C.3       8 UNK         0.1400 
     33 CB          2.5409  -16.3327  -44.1723 C.3       8 UNK        -0.1800 
     34 N           3.3076  -18.5843  -43.6043 N.am      8 UNK        -0.5000 
     35 C           3.5774  -19.8897  -43.7420 C.2       7 UNK         0.5000 
     36 O           3.1028  -20.5982  -44.6290 O.2       7 UNK        -0.5000 
     37 CA          4.5014  -20.5104  -42.6794 C.3       7 UNK         0.1400 
     38 CB          5.9757  -20.2674  -43.0349 C.3       7 UNK        -0.1800 
     39 N           4.2302  -19.9907  -41.3369 N.am      7 UNK        -0.5000 
     40 C           3.1108  -20.2477  -40.6455 C.2       6 UNK         0.5000 
     41 O           2.2074  -20.9764  -41.0563 O.2       6 UNK        -0.5000 
     42 CA          2.9560  -19.5296  -39.2902 C.3       6 UNK         0.1400 
     43 CB          3.7211  -20.2787  -38.1889 C.3       6 UNK        -0.1800 
     44 N           3.3853  -18.1257  -39.3174 N.am      6 UNK        -0.5000 
     45 C           2.8271  -17.1850  -40.0893 C.2       5 UNK         0.5000 
     46 O           1.9143  -17.4171  -40.8865 O.2       5 UNK        -0.5000 
     47 CA          3.3883  -15.7588  -39.9861 C.3       5 UNK         0.1400 
     48 CB          4.7871  -15.6659  -40.6225 C.3       5 UNK        -0.1800 
     49 N           2.4628  -14.8848  -40.6948 N.am      5 UNK        -0.5000 
     50 C           2.3294  -13.5605  -40.5863 C.2       4 UNK         0.5000 
     51 O           3.0219  -12.8599  -39.8473 O.2       4 UNK        -0.5000 
     52 CA          1.2341  -12.9088  -41.4579 C.3       4 UNK         0.1400 
     53 CB          1.8592  -12.2496  -42.6970 C.3       4 UNK        -0.1800 
     54 N           0.2148  -13.8629  -41.9055 N.am      4 UNK        -0.5000 
     55 C          -0.7619  -14.3704  -41.1454 C.2       3 UNK         0.5000 
     56 O          -0.9653  -14.0165  -39.9829 O.2       3 UNK        -0.5000 
     57 CA         -1.6408  -15.4630  -41.7967 C.3       3 UNK         0.1400 
     58 CB         -2.7126  -16.0151  -40.8394 C.3       3 UNK        -0.1800 
     59 N          -2.2981  -15.0420  -43.0372 N.am      3 UNK        -0.5000 
     60 C          -1.6988  -14.8718  -44.2211 C.2       2 UNK         0.5000 
     61 O          -0.4830  -14.9924  -44.3909 O.2       2 UNK        -0.5000 
     62 CA         -2.6028  -14.4895  -45.4027 C.3       2 UNK         0.1400 
     63 CB         -3.1450  -13.0566  -45.2571 C.3       2 UNK        -0.1800 
     64 N          -1.8223  -14.5922  -46.6292 N.am      2 UNK        -0.5000 
     65 C          -2.2886  -14.8923  -47.8429 C.2       1 UNK         0.5000 
     66 O          -3.4799  -15.0998  -48.0931 O.2       1 UNK        -0.5000 
     67 C          -0.7315  -21.0818  -47.7499 C.2       11 UNK         0.5000 
     68 O          -1.3064  -21.6200  -48.6939 O.2       11 UNK        -0.5000 
     69 N          -1.2603  -20.0776  -47.0349 N.am      12 UNK        -0.5000 
     70 CA         -2.5808  -19.4916  -47.2733 C.3       12 UNK         0.1400 
     71 CB         -2.8173  -18.3161  -46.3123 C.3       12 UNK        -0.1800 
     72 C          -3.7200  -20.5179  -47.1597 C.2       12 UNK         0.5000 
     73 O          -4.6117  -20.5197  -48.0077 O.2       12 UNK        -0.5000 
     74 N          -3.6486  -21.3906  -46.1458 N.am      13 UNK        -0.5000 
     75 CA         -4.5801  -22.4967  -45.9379 C.3       13 UNK         0.1400 
     76 CB         -4.3342  -23.1252  -44.5577 C.3       13 UNK        -0.1800 
     77 C          -4.4949  -23.5582  -47.0492 C.2       13 UNK         0.5000 
     78 O          -5.5315  -23.9608  -47.5777 O.2       13 UNK        -0.5000 
     79 N          -3.2692  -23.9752  -47.3984 N.am      14 UNK        -0.5000 
     80 CA         -2.9961  -24.9802  -48.4290 C.3       14 UNK         0.1400 
     81 CB         -1.5125  -25.3759  -48.3772 C.3       14 UNK        -0.1800 
     82 C          -3.3837  -24.5194  -49.8461 C.2       14 UNK         0.5000 
     83 O          -3.9581  -25.2998  -50.6059 O.2       14 UNK        -0.5000 
     84 N          -3.0756  -23.2575  -50.1675 N.am      15 UNK        -0.5000 
     85 CA         -3.3708  -22.6248  -51.4525 C.3       15 UNK         0.1400 
     86 CB         -2.4068  -21.4437  -51.6391 C.3       15 UNK        -0.1800 
     87 C          -4.8259  -22.1358  -51.5721 C.2       15 UNK         0.5000 
     88 O          -5.2296  -21.7342  -52.6644 O.2       15 UNK        -0.5000 
     89 N          -5.5662  -22.1188  -50.4529 N.am      16 UNK        -0.5000 
     90 CA         -6.9181  -21.5728  -50.2882 C.3       16 UNK         0.1400 
     91 CB         -7.9452  -22.4239  -51.0640 C.3       16 UNK        -0.1800 
     92 C          -6.9705  -20.0758  -50.6582 C.2       16 UNK         0.5000 
     93 O          -7.7938  -19.6636  -51.4740 O.2       16 UNK        -0.5000 
     94 N          -6.0209  -19.3029  -50.1101 N.am      17 UNK        -0.5000 
     95 CA         -5.7344  -17.8959  -50.4275 C.3       17 UNK         0.1400 
     96 CB         -6.8660  -16.9801  -49.9192 C.3       17 UNK        -0.1800 
     97 C          -5.4035  -17.6761  -51.9232 C.2       17 UNK         0.5000 
     98 O          -5.7614  -16.6476  -52.4975 O.2       17 UNK        -0.5000 
     99 N          -4.7384  -18.6777  -52.5165 N.am      18 UNK        -0.5000 
    100 CA        -4.3615  -18.8263  -53.9251 C.3       18 UNK         0.1400 
    101 CB        -3.4860  -17.6580  -54.4176 C.3       18 UNK        -0.1800 
    102 C         -5.5298  -19.1512  -54.8781 C.2       18 UNK         0.5000 
    103 O         -5.3047  -19.2053  -56.0879 O.2       18 UNK        -0.5000 
    104 N         -6.7313  -19.4399  -54.3524 N.am      19 UNK        -0.5000 
    105 CA        -7.8797  -19.8922  -55.1468 C.3       19 UNK         0.1400 
    106 CB        -9.1652  -19.8066  -54.3116 C.3       19 UNK        -0.1800 
    107 C         -7.6996  -21.3166  -55.7093 C.2       19 UNK         0.5000 
    108 O         -8.2680  -21.6247  -56.7572 O.2       19 UNK        -0.5000 
    109 N         -6.8922  -22.1439  -55.0303 N.am      20 UNK        -0.5000 
    110 CA        -6.4891  -23.4819  -55.4706 C.3       20 UNK         0.1400 
    111 CB        -6.5855  -24.4478  -54.2758 C.3       20 UNK        -0.1800 
    112 C         -5.0724  -23.4769  -56.0870 C.2       20 UNK         0.5000 
    113 O         -4.4923  -24.5495  -56.2609 O.2       20 UNK        -0.5000 
    114 N         -4.5587  -22.2774  -56.4073 N.am      21 UNK        -0.5000 
    115 CA        -3.2114  -21.9274  -56.8689 C.3       21 UNK         0.1400 
    116 CB        -2.7796  -22.7434  -58.1029 C.3       21 UNK        -0.1800 
    117 C         -2.1661  -22.0033  -55.7400 C.2       21 UNK         0.5000 
    118 O         -2.1827  -22.9284  -54.9260 O.2       21 UNK        -0.5000 
    119 N         -1.2719  -21.0094  -55.7109 N.am      22 UNK        -0.5000 
    120 CA        -0.1634  -20.9168  -54.7506 C.3       22 UNK         0.1400 
    121 C          1.0625  -21.7721  -55.1735 C.2       22 UNK         0.5000 
    122 N          1.8485  -22.2525  -54.2199 N.am      22 UNK        -0.7600 
    123 O          1.3273  -21.9760  -56.3566 O.2       22 UNK        -0.5000 
    124 C124        0.2242  -19.4364  -54.4879 C.3       23 UNK        -0.0398 
    125 S125        0.5830  -19.1285  -52.7281 S.3       23 UNK        -0.2404 
    126 C126        2.3623  -18.7484  -52.7695 C.3       23 UNK        -0.0205 
    127 H127       -1.8363  -15.2352  -53.4684 H         1 UNK         0.0600 
    128 H128       -2.5374  -13.6963  -52.9623 H         1 UNK         0.0600 
    129 H129       -3.2609  -15.2160  -52.4237 H         1 UNK         0.0600 
    130 H130       -2.9291  -15.1976  -50.1613 H         1 UNK         0.3000 
    131 H131       -0.6714  -14.0476  -48.9389 H         1 UNK         0.0600 
    132 H132        0.1233  -16.4983  -49.7491 H         1 UNK         0.0800 
    133 H133       -0.7785  -17.0558  -48.3850 H         1 UNK         0.0800 
    134 H134        3.3498  -15.0923  -48.3706 H         1 UNK         0.0800 
    135 H135        2.1927  -14.8121  -49.6517 H         1 UNK         0.0800 
    136 H136        2.0111  -16.4277  -51.4174 H         1 UNK         0.1150 
    137 H137        3.7408  -20.3299  -51.0060 H         1 UNK         0.1150 
    138 H138        3.8264  -17.5817  -47.7144 H         1 UNK         0.1150 
    139 H139        5.4094  -20.5182  -48.8675 H         1 UNK         0.0800 
    140 H140        4.8327  -19.6948  -47.4393 H         1 UNK         0.0800 
    141 H141        1.5005  -20.2522  -48.8154 H         1 UNK         0.0800 
    142 H142        1.8825  -19.8027  -47.1709 H         1 UNK         0.0800 
    143 H143        0.7795  -22.5692  -47.8303 H         1 UNK         0.0600 
    144 H144        1.4176  -21.3032  -45.3756 H         1 UNK         0.3000 
    145 H145       -0.7593  -23.2846  -43.2966 H         1 UNK         0.0600 
    146 H146        1.4252  -23.5375  -42.1577 H         1 UNK         0.0600 
    147 H147        2.2751  -22.9634  -43.5898 H         1 UNK         0.0600 
    148 H148        1.4002  -24.4884  -43.6355 H         1 UNK         0.0600 
    149 H149        0.8956  -21.0931  -42.6210 H         1 UNK         0.3000 
    150 H150       -1.5467  -18.4902  -43.0786 H         1 UNK         0.0600 
    151 H151       -1.9123  -19.4741  -40.8457 H         1 UNK         0.0600 
    152 H152       -0.7367  -18.1776  -40.6974 H         1 UNK         0.0600 
    153 H153       -0.2036  -19.8482  -40.6750 H         1 UNK         0.0600 
    154 H154        1.1499  -18.3262  -42.2661 H         1 UNK         0.3000 
    155 H155        2.6799  -18.0091  -45.4980 H         1 UNK         0.0600 
    156 H156        1.9768  -15.7427  -44.8927 H         1 UNK         0.0600 
    157 H157        3.5810  -16.0146  -44.2424 H         1 UNK         0.0600 
    158 H158        2.1724  -16.0700  -43.1829 H         1 UNK         0.0600 
    159 H159        3.7056  -18.0909  -42.8207 H         1 UNK         0.3000 
    160 H160        4.3252  -21.5882  -42.6726 H         1 UNK         0.0600 
    161 H161        6.2226  -19.2050  -43.0346 H         1 UNK         0.0600 
    162 H162        6.2062  -20.6579  -44.0271 H         1 UNK         0.0600 
    163 H163        6.6387  -20.7667  -42.3282 H         1 UNK         0.0600 
    164 H164        4.9242  -19.3826  -40.9281 H         1 UNK         0.3000 
    165 H165        1.8944  -19.5450  -39.0342 H         1 UNK         0.0600 
    166 H166        3.5351  -19.8372  -37.2096 H         1 UNK         0.0600 
    167 H167        3.4087  -21.3226  -38.1375 H         1 UNK         0.0600 
    168 H168        4.7975  -20.2663  -38.3643 H         1 UNK         0.0600 
    169 H169        4.1339  -17.8692  -38.6898 H         1 UNK         0.3000 
    170 H170        3.4293  -15.4711  -38.9339 H         1 UNK         0.0600 
    171 H171        4.7693  -15.9514  -41.6751 H         1 UNK         0.0600 
    172 H172        5.1833  -14.6523  -40.5602 H         1 UNK         0.0600 
    173 H173        5.4974  -16.3193  -40.1148 H         1 UNK         0.0600 
    174 H174        1.8086  -15.3926  -41.2763 H         1 UNK         0.3000 
    175 H175        0.7507  -12.1331  -40.8603 H         1 UNK         0.0600 
    176 H176        2.3476  -12.9842  -43.3390 H         1 UNK         0.0600 
    177 H177        1.1051  -11.7338  -43.2918 H         1 UNK         0.0600 
    178 H178        2.6093  -11.5109  -42.4117 H         1 UNK         0.0600 
    179 H179        0.2725  -14.1876  -42.8679 H         1 UNK         0.3000 
    180 H180       -0.9635  -16.2811  -42.0426 H         1 UNK         0.0600 
    181 H181       -3.4467  -15.2530  -40.5755 H         1 UNK         0.0600 
    182 H182       -2.2658  -16.3754  -39.9117 H         1 UNK         0.0600 
    183 H183       -3.2449  -16.8550  -41.2863 H         1 UNK         0.0600 
    184 H184       -3.2927  -14.8802  -42.9722 H         1 UNK         0.3000 
    185 H185       -3.4329  -15.1984  -45.4359 H         1 UNK         0.0600 
    186 H186       -2.3364  -12.3265  -45.2008 H         1 UNK         0.0600 
    187 H187       -3.7793  -12.7876  -46.1020 H         1 UNK         0.0600 
    188 H188       -3.7485  -12.9502  -44.3552 H         1 UNK         0.0600 
    189 H189       -0.8208  -14.5402  -46.4770 H         1 UNK         0.3000 
    190 H190       -0.7085  -19.6527  -46.2909 H         1 UNK         0.3000 
    191 H191       -2.5846  -19.1029  -48.2936 H         1 UNK         0.0600 
    192 H192       -2.0296  -17.5689  -46.3962 H         1 UNK         0.0600 
    193 H193       -2.8493  -18.6442  -45.2733 H         1 UNK         0.0600 
    194 H194       -3.7627  -17.8176  -46.5301 H         1 UNK         0.0600 
    195 H195       -2.9032  -21.2873  -45.4622 H         1 UNK         0.3000 
    196 H196       -5.5923  -22.0870  -45.9465 H         1 UNK         0.0600 
    197 H197       -4.4830  -22.3952  -43.7619 H         1 UNK         0.0600 
    198 H198       -3.3197  -23.5144  -44.4660 H         1 UNK         0.0600 
    199 H199       -5.0225  -23.9513  -44.3752 H         1 UNK         0.0600 
    200 H200       -2.4632  -23.6087  -46.8997 H         1 UNK         0.3000 
    201 H201       -3.5902  -25.8663  -48.1959 H         1 UNK         0.0600 
    202 H202       -1.2505  -25.7944  -47.4053 H         1 UNK         0.0600 
    203 H203       -0.8618  -24.5194  -48.5580 H         1 UNK         0.0600 
    204 H204       -1.2812  -26.1308  -49.1297 H         1 UNK         0.0600 
    205 H205       -2.5539  -22.6919  -49.4994 H         1 UNK         0.3000 
    206 H206       -3.1942  -23.3449  -52.2543 H         1 UNK         0.0600 
    207 H207       -1.3692  -21.7603  -51.5319 H         1 UNK         0.0600 
    208 H208       -2.5898  -20.6509  -50.9126 H         1 UNK         0.0600 
    209 H209       -2.5081  -21.0117  -52.6321 H         1 UNK         0.0600 
    210 H210       -5.1253  -22.4394  -49.6012 H         1 UNK         0.3000 
    211 H211       -7.1567  -21.6428  -49.2259 H         1 UNK         0.0600 
    212 H212       -7.7928  -22.3662  -52.1419 H         1 UNK         0.0600 
    213 H213       -8.9623  -22.0871  -50.8610 H         1 UNK         0.0600 
    214 H214       -7.8852  -23.4729  -50.7741 H         1 UNK         0.0600 
    215 H215       -5.4136  -19.7374  -49.4156 H         1 UNK         0.3000 
    216 H216       -4.8297  -17.6368  -49.8753 H         1 UNK         0.0600 
    217 H217       -6.5962  -15.9289  -50.0278 H         1 UNK         0.0600 
    218 H218       -7.0674  -17.1538  -48.8622 H         1 UNK         0.0600 
    219 H219       -7.7942  -17.1387  -50.4690 H         1 UNK         0.0600 
    220 H220       -4.5623  -19.4955  -51.9515 H         1 UNK         0.3000 
    221 H221       -3.7333  -19.7147  -53.9634 H         1 UNK         0.0600 
    222 H222       -4.0445  -16.7240  -54.4778 H         1 UNK         0.0600 
    223 H223       -2.6351  -17.5057  -53.7543 H         1 UNK         0.0600 
    224 H224       -3.0857  -17.8597  -55.4117 H         1 UNK         0.0600 
    225 H225       -6.8594  -19.4124  -53.3467 H         1 UNK         0.3000 
    226 H226       -7.9876  -19.2127  -55.9949 H         1 UNK         0.0600 
    227 H227       -9.2872  -18.8181  -53.8682 H         1 UNK         0.0600 
    228 H228      -10.0424  -19.9973  -54.9308 H         1 UNK         0.0600 
    229 H229       -9.1721  -20.5419  -53.5066 H         1 UNK         0.0600 
    230 H230       -6.4412  -21.8112  -54.1810 H         1 UNK         0.3000 
    231 H231       -7.1701  -23.8432  -56.2435 H         1 UNK         0.0600 
    232 H232       -6.4120  -25.4775  -54.5902 H         1 UNK         0.0600 
    233 H233       -7.5738  -24.4127  -53.8174 H         1 UNK         0.0600 
    234 H234       -5.8499  -24.2152  -53.5063 H         1 UNK         0.0600 
    235 H235       -5.1486  -21.4766  -56.2235 H         1 UNK         0.3000 
    236 H236       -3.2853  -20.8845  -57.1814 H         1 UNK         0.0600 
    237 H237       -2.5912  -23.7889  -57.8581 H         1 UNK         0.0600 
    238 H238       -3.5376  -22.7102  -58.8854 H         1 UNK         0.0600 
    239 H239       -1.8572  -22.3432  -58.5251 H         1 UNK         0.0600 
    240 H240       -1.2786  -20.3184  -56.4469 H         1 UNK         0.3000 
    241 H241       -0.5256  -21.3449  -53.8155 H         1 UNK         0.0600 
    242 H242        2.6536  -22.8011  -54.4789 H         1 UNK         0.3800 
    243 H243        1.6543  -22.0866  -53.2449 H         1 UNK         0.3800 
    244 H244       -0.6046  -18.7744  -54.7416 H         1 UNK         0.0800 
    245 H245        1.0550  -19.1106  -55.1167 H         1 UNK         0.0800 
    246 H246        2.5441  -17.9075  -53.4406 H         1 UNK         0.0800 
    247 H247        2.9124  -19.5997  -53.1733 H         1 UNK         0.0800 
@<TRIPOS>BOND
     1    1    2 1    
     2    1  127 1    
     3    1  128 1    
     4    1  129 1    
     5    2    3 2    
     6    2    4 am   BACKBONE|DICT|INTERRES
     7    4    5 1    
     8    4  130 1    
     9    5    6 1    
    10    5   65 1    
    11    5  131 1    
    12    6    7 1    
    13    6  132 1    
    14    6  133 1    
    15    7    8 1    
    16    8    9 1    
    17    8  134 1    
    18    8  135 1    
    19    9   10 ar   
    20    9   14 ar   
    21   10   11 ar   
    22   10  136 1    
    23   11   12 ar   
    24   11  126 1    
    25   12   13 ar   
    26   12  137 1    
    27   13   14 ar   
    28   13   15 1    
    29   14  138 1    
    30   15   16 1    
    31   15  139 1    
    32   15  140 1    
    33   16   17 1    
    34   17   18 1    
    35   17  141 1    
    36   17  142 1    
    37   18   19 1    
    38   18   67 1    
    39   18  143 1    
    40   19   20 am   BACKBONE|DICT|INTERRES
    41   19  144 1    
    42   20   21 2    
    43   20   22 1    
    44   22   23 1    
    45   22   24 1    
    46   22  145 1    
    47   23  146 1    
    48   23  147 1    
    49   23  148 1    
    50   24   25 am   BACKBONE|DICT|INTERRES
    51   24  149 1    
    52   25   26 2    
    53   25   27 1    
    54   27   28 1    
    55   27   29 1    
    56   27  150 1    
    57   28  151 1    
    58   28  152 1    
    59   28  153 1    
    60   29   30 am   BACKBONE|DICT|INTERRES
    61   29  154 1    
    62   30   31 2    
    63   30   32 1    
    64   32   33 1    
    65   32   34 1    
    66   32  155 1    
    67   33  156 1    
    68   33  157 1    
    69   33  158 1    
    70   34   35 am   BACKBONE|DICT|INTERRES
    71   34  159 1    
    72   35   36 2    
    73   35   37 1    
    74   37   38 1    
    75   37   39 1    
    76   37  160 1    
    77   38  161 1    
    78   38  162 1    
    79   38  163 1    
    80   39   40 am   BACKBONE|DICT|INTERRES
    81   39  164 1    
    82   40   41 2    
    83   40   42 1    
    84   42   43 1    
    85   42   44 1    
    86   42  165 1    
    87   43  166 1    
    88   43  167 1    
    89   43  168 1    
    90   44   45 am   BACKBONE|DICT|INTERRES
    91   44  169 1    
    92   45   46 2    
    93   45   47 1    
    94   47   48 1    
    95   47   49 1    
    96   47  170 1    
    97   48  171 1    
    98   48  172 1    
    99   48  173 1    
   100   49   50 am   BACKBONE|DICT|INTERRES
   101   49  174 1    
   102   50   51 2    
   103   50   52 1    
   104   52   53 1    
   105   52   54 1    
   106   52  175 1    
   107   53  176 1    
   108   53  177 1    
   109   53  178 1    
   110   54   55 am   BACKBONE|DICT|INTERRES
   111   54  179 1    
   112   55   56 2    
   113   55   57 1    
   114   57   58 1    
   115   57   59 1    
   116   57  180 1    
   117   58  181 1    
   118   58  182 1    
   119   58  183 1    
   120   59   60 am   BACKBONE|DICT|INTERRES
   121   59  184 1    
   122   60   61 2    
   123   60   62 1    
   124   62   63 1    
   125   62   64 1    
   126   62  185 1    
   127   63  186 1    
   128   63  187 1    
   129   63  188 1    
   130   64   65 am   BACKBONE|DICT|INTERRES
   131   64  189 1    
   132   65   66 2    
   133   67   68 2    
   134   67   69 am   BACKBONE|DICT|INTERRES
   135   69   70 1    
   136   69  190 1    
   137   70   71 1    
   138   70   72 1    
   139   70  191 1    
   140   71  192 1    
   141   71  193 1    
   142   71  194 1    
   143   72   73 2    
   144   72   74 am   BACKBONE|DICT|INTERRES
   145   74   75 1    
   146   74  195 1    
   147   75   76 1    
   148   75   77 1    
   149   75  196 1    
   150   76  197 1    
   151   76  198 1    
   152   76  199 1    
   153   77   78 2    
   154   77   79 am   BACKBONE|DICT|INTERRES
   155   79   80 1    
   156   79  200 1    
   157   80   81 1    
   158   80   82 1    
   159   80  201 1    
   160   81  202 1    
   161   81  203 1    
   162   81  204 1    
   163   82   83 2    
   164   82   84 am   BACKBONE|DICT|INTERRES
   165   84   85 1    
   166   84  205 1    
   167   85   86 1    
   168   85   87 1    
   169   85  206 1    
   170   86  207 1    
   171   86  208 1    
   172   86  209 1    
   173   87   88 2    
   174   87   89 am   BACKBONE|DICT|INTERRES
   175   89   90 1    
   176   89  210 1    
   177   90   91 1    
   178   90   92 1    
   179   90  211 1    
   180   91  212 1    
   181   91  213 1    
   182   91  214 1    
   183   92   93 2    
   184   92   94 am   BACKBONE|DICT|INTERRES
   185   94   95 1    
   186   94  215 1    
   187   95   96 1    
   188   95   97 1    
   189   95  216 1    
   190   96  217 1    
   191   96  218 1    
   192   96  219 1    
   193   97   98 2    
   194   97   99 am   BACKBONE|DICT|INTERRES
   195   99  100 1    
   196   99  220 1    
   197  100  101 1    
   198  100  102 1    
   199  100  221 1    
   200  101  222 1    
   201  101  223 1    
   202  101  224 1    
   203  102  103 2    
   204  102  104 am   BACKBONE|DICT|INTERRES
   205  104  105 1    
   206  104  225 1    
   207  105  106 1    
   208  105  107 1    
   209  105  226 1    
   210  106  227 1    
   211  106  228 1    
   212  106  229 1    
   213  107  108 2    
   214  107  109 am   BACKBONE|DICT|INTERRES
   215  109  110 1    
   216  109  230 1    
   217  110  111 1    
   218  110  112 1    
   219  110  231 1    
   220  111  232 1    
   221  111  233 1    
   222  111  234 1    
   223  112  113 2    
   224  112  114 am   BACKBONE|DICT|INTERRES
   225  114  115 1    
   226  114  235 1    
   227  115  116 1    
   228  115  117 1    
   229  115  236 1    
   230  116  237 1    
   231  116  238 1    
   232  116  239 1    
   233  117  118 2    
   234  117  119 am   BACKBONE|DICT|INTERRES
   235  119  120 1    
   236  119  240 1    
   237  120  121 1    
   238  120  124 1    
   239  120  241 1    
   240  121  122 am   BACKBONE|DICT|INTERRES
   241  121  123 2    
   242  122  242 1    
   243  122  243 1    
   244  124  125 1    
   245  124  244 1    
   246  124  245 1    
   247  125  126 1    
   248  126  246 1    
   249  126  247 1    
@<TRIPOS>SUBSTRUCTURE
     1 UNK         1 GROUP             0       ****    0 ROOT    
