@<TRIPOS>MOLECULE
3R540
247   249    1
SMALL
USER_CHARGES


@<TRIPOS>ATOM
      1 CA          8.2127  -12.7347  -49.2189 C.3       0 UNK        -0.1800 
      2 C           6.8964  -12.2298  -48.6446 C.2       0 UNK         0.5000 
      3 O           6.6911  -11.0186  -48.5708 O.2       0 UNK        -0.5000 
      4 N           6.0152  -13.1571  -48.2454 N.am      1 UNK        -0.5000 
      5 CA          4.6908  -12.9226  -47.6543 C.3       1 UNK         0.1400 
      6 C6          3.6692  -12.2685  -48.6245 C.3       23 UNK        -0.0398 
      7 S7          3.3089  -13.3526  -50.0500 S.3       23 UNK        -0.2404 
      8 C8          1.7624  -14.1443  -49.5024 C.3       23 UNK        -0.0205 
      9 C9          1.6002  -15.5329  -50.1017 C.ar      23 UNK        -0.0193 
     10 C10         0.6690  -15.7685  -51.1191 C.ar      23 UNK        -0.1150 
     11 C11         0.5176  -17.0483  -51.6644 C.ar      23 UNK        -0.0193 
     12 C12         1.3232  -18.0894  -51.1915 C.ar      23 UNK        -0.1150 
     13 C13         2.2441  -17.8714  -50.1649 C.ar      23 UNK        -0.0193 
     14 C14         2.3765  -16.5917  -49.6214 C.ar      23 UNK        -0.1150 
     15 C15         3.1017  -19.0185  -49.6538 C.3       23 UNK        -0.0205 
     16 S16         2.4079  -19.7670  -48.1482 S.3       23 UNK        -0.2404 
     17 C17         0.8249  -20.4356  -48.7638 C.3       23 UNK        -0.0398 
     18 CA          0.2173  -21.4773  -47.7974 C.3       11 UNK         0.1400 
     19 N          -0.0967  -20.9140  -46.4818 N.am      11 UNK        -0.5000 
     20 C          -0.4750  -21.6288  -45.4138 C.2       10 UNK         0.5000 
     21 O          -0.5481  -22.8571  -45.4047 O.2       10 UNK        -0.5000 
     22 CA         -0.9039  -20.8356  -44.1683 C.3       10 UNK         0.1400 
     23 CB          0.3100  -20.4179  -43.3243 C.3       10 UNK        -0.1800 
     24 N          -1.6893  -19.6566  -44.5325 N.am      10 UNK        -0.5000 
     25 C          -2.9500  -19.7072  -44.9846 C.2       9 UNK         0.5000 
     26 O          -3.5935  -20.7512  -45.0891 O.2       9 UNK        -0.5000 
     27 CA         -3.5878  -18.3766  -45.4245 C.3       9 UNK         0.1400 
     28 CB         -4.2164  -17.6571  -44.2232 C.3       9 UNK        -0.1800 
     29 N          -2.6368  -17.4821  -46.0858 N.am      9 UNK        -0.5000 
     30 C          -2.1011  -17.7191  -47.2922 C.2       8 UNK         0.5000 
     31 O          -2.3576  -18.7123  -47.9704 O.2       8 UNK        -0.5000 
     32 CA         -1.0667  -16.7058  -47.8102 C.3       8 UNK         0.1400 
     33 CB         -1.7692  -15.5027  -48.4558 C.3       8 UNK        -0.1800 
     34 N          -0.1475  -16.2120  -46.7877 N.am      8 UNK        -0.5000 
     35 C           0.6097  -16.9365  -45.9568 C.2       7 UNK         0.5000 
     36 O           0.5610  -18.1626  -45.8884 O.2       7 UNK        -0.5000 
     37 CA          1.5627  -16.1694  -45.0205 C.3       7 UNK         0.1400 
     38 CB          2.8748  -15.8184  -45.7357 C.3       7 UNK        -0.1800 
     39 N           0.9721  -14.9897  -44.3787 N.am      7 UNK        -0.5000 
     40 C           0.4684  -13.8642  -44.9136 C.2       6 UNK         0.5000 
     41 O           0.5130  -13.6044  -46.1177 O.2       6 UNK        -0.5000 
     42 CA         -0.2359  -12.8761  -43.9517 C.3       6 UNK         0.1400 
     43 CB         -1.4717  -12.2180  -44.5988 C.3       6 UNK        -0.1800 
     44 N          -0.5855  -13.4575  -42.6485 N.am      6 UNK        -0.5000 
     45 C          -1.3699  -14.5213  -42.4055 C.2       5 UNK         0.5000 
     46 O          -2.0364  -15.0907  -43.2714 O.2       5 UNK        -0.5000 
     47 CA         -1.3442  -15.0758  -40.9610 C.3       5 UNK         0.1400 
     48 CB         -1.6224  -16.5930  -40.9099 C.3       5 UNK        -0.1800 
     49 N          -0.1027  -14.7563  -40.2374 N.am      5 UNK        -0.5000 
     50 C           1.1512  -15.0809  -40.5905 C.2       4 UNK         0.5000 
     51 O           1.4340  -15.7672  -41.5740 O.2       4 UNK        -0.5000 
     52 CA          2.2794  -14.4598  -39.7429 C.3       4 UNK         0.1400 
     53 CB          3.4029  -15.4746  -39.4734 C.3       4 UNK        -0.1800 
     54 N           2.8596  -13.2721  -40.3779 N.am      4 UNK        -0.5000 
     55 C           2.2051  -12.1500  -40.7124 C.2       3 UNK         0.5000 
     56 O           0.9991  -11.9797  -40.5285 O.2       3 UNK        -0.5000 
     57 CA          3.0240  -11.0182  -41.3659 C.3       3 UNK         0.1400 
     58 CB          3.4571   -9.9946  -40.3054 C.3       3 UNK        -0.1800 
     59 N           4.2064  -11.4589  -42.1132 N.am      3 UNK        -0.5000 
     60 C           4.1713  -12.2141  -43.2184 C.2       2 UNK         0.5000 
     61 O           3.1381  -12.7106  -43.6657 O.2       2 UNK        -0.5000 
     62 CA          5.5223  -12.4666  -43.9199 C.3       2 UNK         0.1400 
     63 CB          6.3210  -13.5398  -43.1625 C.3       2 UNK        -0.1800 
     64 N           5.3782  -12.8959  -45.3141 N.am      2 UNK        -0.5000 
     65 C           4.8026  -12.1908  -46.2993 C.2       1 UNK         0.5000 
     66 O           4.4046  -11.0303  -46.1755 O.2       1 UNK        -0.5000 
     67 C          -1.0117  -22.1666  -48.4250 C.2       11 UNK         0.5000 
     68 O          -0.8779  -23.2779  -48.9352 O.2       11 UNK        -0.5000 
     69 N          -2.1900  -21.5323  -48.3276 N.am      12 UNK        -0.5000 
     70 CA         -3.4737  -22.0900  -48.7572 C.3       12 UNK         0.1400 
     71 CB         -4.5703  -21.0211  -48.6418 C.3       12 UNK        -0.1800 
     72 C          -3.8795  -23.3485  -47.9708 C.2       12 UNK         0.5000 
     73 O          -4.4089  -24.2838  -48.5665 O.2       12 UNK        -0.5000 
     74 N          -3.6176  -23.3587  -46.6561 N.am      13 UNK        -0.5000 
     75 CA         -3.8549  -24.5097  -45.7846 C.3       13 UNK         0.1400 
     76 CB         -3.7389  -24.0793  -44.3146 C.3       13 UNK        -0.1800 
     77 C          -2.9109  -25.6877  -46.0899 C.2       13 UNK         0.5000 
     78 O          -3.3510  -26.8371  -46.0580 O.2       13 UNK        -0.5000 
     79 N          -1.6395  -25.3844  -46.3877 N.am      14 UNK        -0.5000 
     80 CA         -0.6226  -26.3579  -46.7831 C.3       14 UNK         0.1400 
     81 CB          0.7662  -25.7010  -46.7416 C.3       14 UNK        -0.1800 
     82 C          -0.9116  -26.9645  -48.1676 C.2       14 UNK         0.5000 
     83 O          -0.9822  -28.1873  -48.2976 O.2       14 UNK        -0.5000 
     84 N          -1.1161  -26.1024  -49.1708 N.am      15 UNK        -0.5000 
     85 CA         -1.4670  -26.4700  -50.5418 C.3       15 UNK         0.1400 
     86 CB         -0.8416  -25.4477  -51.5087 C.3       15 UNK        -0.1800 
     87 C          -2.9959  -26.5705  -50.6969 C.2       15 UNK         0.5000 
     88 O          -3.5753  -25.8930  -51.5463 O.2       15 UNK        -0.5000 
     89 N          -3.6228  -27.4171  -49.8669 N.am      16 UNK        -0.5000 
     90 CA         -5.0749  -27.5654  -49.7086 C.3       16 UNK         0.1400 
     91 CB         -5.3530  -28.6592  -48.6670 C.3       16 UNK        -0.1800 
     92 C          -5.8513  -27.8575  -51.0080 C.2       16 UNK         0.5000 
     93 O          -6.9995  -27.4328  -51.1394 O.2       16 UNK        -0.5000 
     94 N          -5.2030  -28.5477  -51.9553 N.am      17 UNK        -0.5000 
     95 CA         -5.7350  -28.8602  -53.2830 C.3       17 UNK         0.1400 
     96 CB         -4.8392  -29.9284  -53.9296 C.3       17 UNK        -0.1800 
     97 C          -5.8679  -27.6354  -54.2140 C.2       17 UNK         0.5000 
     98 O          -6.5833  -27.7223  -55.2130 O.2       17 UNK        -0.5000 
     99 N          -5.1831  -26.5310  -53.8896 N.am      18 UNK        -0.5000 
    100 CA        -5.1521  -25.2922  -54.6661 C.3       18 UNK         0.1400 
    101 CB        -3.8316  -25.2301  -55.4556 C.3       18 UNK        -0.1800 
    102 C         -5.3491  -24.0657  -53.7561 C.2       18 UNK         0.5000 
    103 O         -4.8634  -22.9819  -54.0820 O.2       18 UNK        -0.5000 
    104 N         -6.0617  -24.2472  -52.6325 N.am      19 UNK        -0.5000 
    105 CA        -6.2516  -23.2534  -51.5693 C.3       19 UNK         0.1400 
    106 CB        -7.1460  -23.8512  -50.4740 C.3       19 UNK        -0.1800 
    107 C         -6.8318  -21.9101  -52.0483 C.2       19 UNK         0.5000 
    108 O         -6.4320  -20.8572  -51.5499 O.2       19 UNK        -0.5000 
    109 N         -7.7241  -21.9694  -53.0454 N.am      20 UNK        -0.5000 
    110 CA        -8.3726  -20.8209  -53.6809 C.3       20 UNK         0.1400 
    111 CB        -9.4327  -21.3392  -54.6652 C.3       20 UNK        -0.1800 
    112 C         -7.4091  -19.8460  -54.3909 C.2       20 UNK         0.5000 
    113 O         -7.7998  -18.7063  -54.6468 O.2       20 UNK        -0.5000 
    114 N         -6.1798  -20.2893  -54.6956 N.am      21 UNK        -0.5000 
    115 CA        -5.1386  -19.4602  -55.3020 C.3       21 UNK         0.1400 
    116 CB        -4.0284  -20.3629  -55.8618 C.3       21 UNK        -0.1800 
    117 C         -4.5431  -18.4234  -54.3299 C.2       21 UNK         0.5000 
    118 O         -4.0796  -17.3798  -54.7932 O.2       21 UNK        -0.5000 
    119 N         -4.5536  -18.7217  -53.0220 N.am      22 UNK        -0.5000 
    120 CA        -3.9646  -17.8716  -51.9703 C.3       22 UNK         0.1400 
    121 C         -4.9602  -17.5124  -50.8325 C.2       22 UNK         0.5000 
    122 N         -6.0363  -18.2564  -50.6095 N.am      22 UNK        -0.7600 
    123 O         -4.7707  -16.5101  -50.1509 O.2       22 UNK        -0.5000 
    124 C124       -2.6470  -18.4582  -51.3919 C.3       23 UNK        -0.0398 
    125 S125       -1.4002  -18.8528  -52.6657 S.3       23 UNK        -0.2404 
    126 C126       -0.4778  -17.2822  -52.7975 C.3       23 UNK        -0.0205 
    127 H127        8.2605  -13.8238  -49.2305 H         1 UNK         0.0600 
    128 H128        9.0480  -12.3643  -48.6246 H         1 UNK         0.0600 
    129 H129        8.3365  -12.3789  -50.2418 H         1 UNK         0.0600 
    130 H130        6.2668  -14.1300  -48.3482 H         1 UNK         0.3000 
    131 H131        4.3091  -13.9145  -47.4203 H         1 UNK         0.0600 
    132 H132        4.0416  -11.3130  -48.9955 H         1 UNK         0.0800 
    133 H133        2.7338  -12.0445  -48.1078 H         1 UNK         0.0800 
    134 H134        0.9210  -13.5029  -49.7683 H         1 UNK         0.0800 
    135 H135        1.7471  -14.2293  -48.4171 H         1 UNK         0.0800 
    136 H136        0.0653  -14.9521  -51.4899 H         1 UNK         0.1150 
    137 H137        1.2315  -19.0767  -51.6213 H         1 UNK         0.1150 
    138 H138        3.0903  -16.4175  -48.8289 H         1 UNK         0.1150 
    139 H139        3.2176  -19.7848  -50.4218 H         1 UNK         0.0800 
    140 H140        4.1062  -18.6538  -49.4350 H         1 UNK         0.0800 
    141 H141        1.0027  -20.8865  -49.7419 H         1 UNK         0.0800 
    142 H142        0.1321  -19.6081  -48.9237 H         1 UNK         0.0800 
    143 H143        0.9666  -22.2560  -47.6392 H         1 UNK         0.0600 
    144 H144        0.0044  -19.9068  -46.3818 H         1 UNK         0.3000 
    145 H145       -1.5289  -21.4879  -43.5546 H         1 UNK         0.0600 
    146 H146        0.0016  -19.8704  -42.4335 H         1 UNK         0.0600 
    147 H147        1.0001  -19.7862  -43.8834 H         1 UNK         0.0600 
    148 H148        0.8684  -21.2936  -42.9913 H         1 UNK         0.0600 
    149 H149       -1.1957  -18.7753  -44.5625 H         1 UNK         0.3000 
    150 H150       -4.3838  -18.6078  -46.1355 H         1 UNK         0.0600 
    151 H151       -4.9682  -18.2843  -43.7424 H         1 UNK         0.0600 
    152 H152       -4.7084  -16.7332  -44.5276 H         1 UNK         0.0600 
    153 H153       -3.4686  -17.4066  -43.4711 H         1 UNK         0.0600 
    154 H154       -2.3563  -16.6535  -45.5792 H         1 UNK         0.3000 
    155 H155       -0.4645  -17.2053  -48.5709 H         1 UNK         0.0600 
    156 H156       -2.4157  -14.9852  -47.7459 H         1 UNK         0.0600 
    157 H157       -2.3860  -15.8148  -49.2970 H         1 UNK         0.0600 
    158 H158       -1.0508  -14.7783  -48.8366 H         1 UNK         0.0600 
    159 H159       -0.0275  -15.2028  -46.7370 H         1 UNK         0.3000 
    160 H160        1.8088  -16.8499  -44.2038 H         1 UNK         0.0600 
    161 H161        2.6931  -15.1542  -46.5759 H         1 UNK         0.0600 
    162 H162        3.3606  -16.7146  -46.1239 H         1 UNK         0.0600 
    163 H163        3.5742  -15.3286  -45.0583 H         1 UNK         0.0600 
    164 H164        0.9098  -15.0789  -43.3695 H         1 UNK         0.3000 
    165 H165        0.4882  -12.0871  -43.7455 H         1 UNK         0.0600 
    166 H166       -1.9561  -11.5257  -43.9103 H         1 UNK         0.0600 
    167 H167       -1.1927  -11.6482  -45.4858 H         1 UNK         0.0600 
    168 H168       -2.2104  -12.9584  -44.9068 H         1 UNK         0.0600 
    169 H169       -0.0878  -13.0598  -41.8578 H         1 UNK         0.3000 
    170 H170       -2.1503  -14.5710  -40.4271 H         1 UNK         0.0600 
    171 H171       -0.9143  -17.1566  -41.5185 H         1 UNK         0.0600 
    172 H172       -1.5635  -16.9714  -39.8895 H         1 UNK         0.0600 
    173 H173       -2.6231  -16.8189  -41.2786 H         1 UNK         0.0600 
    174 H174       -0.2188  -14.1358  -39.4474 H         1 UNK         0.3000 
    175 H175        1.8636  -14.1568  -38.7798 H         1 UNK         0.0600 
    176 H176        3.9079  -15.7721  -40.3935 H         1 UNK         0.0600 
    177 H177        4.1528  -15.0631  -38.7977 H         1 UNK         0.0600 
    178 H178        3.0084  -16.3789  -39.0084 H         1 UNK         0.0600 
    179 H179        3.8421  -13.3227  -40.6014 H         1 UNK         0.3000 
    180 H180        2.3611  -10.5124  -42.0713 H         1 UNK         0.0600 
    181 H181        3.9430   -9.1326  -40.7630 H         1 UNK         0.0600 
    182 H182        4.1514  -10.4302  -39.5858 H         1 UNK         0.0600 
    183 H183        2.5973   -9.6212  -39.7471 H         1 UNK         0.0600 
    184 H184        5.0952  -11.1007  -41.7940 H         1 UNK         0.3000 
    185 H185        6.0889  -11.5334  -43.9157 H         1 UNK         0.0600 
    186 H186        7.2963  -13.7041  -43.6213 H         1 UNK         0.0600 
    187 H187        6.4990  -13.2445  -42.1278 H         1 UNK         0.0600 
    188 H188        5.7929  -14.4944  -43.1444 H         1 UNK         0.0600 
    189 H189        5.6860  -13.8352  -45.5163 H         1 UNK         0.3000 
    190 H190       -2.2135  -20.5871  -47.9528 H         1 UNK         0.3000 
    191 H191       -3.3758  -22.3707  -49.8077 H         1 UNK         0.0600 
    192 H192       -4.6830  -20.6679  -47.6171 H         1 UNK         0.0600 
    193 H193       -5.5365  -21.4133  -48.9595 H         1 UNK         0.0600 
    194 H194       -4.3517  -20.1583  -49.2674 H         1 UNK         0.0600 
    195 H195       -3.2406  -22.5242  -46.2223 H         1 UNK         0.3000 
    196 H196       -4.8776  -24.8535  -45.9536 H         1 UNK         0.0600 
    197 H197       -4.4518  -23.2892  -44.0780 H         1 UNK         0.0600 
    198 H198       -2.7410  -23.7107  -44.0780 H         1 UNK         0.0600 
    199 H199       -3.9464  -24.9158  -43.6462 H         1 UNK         0.0600 
    200 H200       -1.3428  -24.4155  -46.3220 H         1 UNK         0.3000 
    201 H201       -0.6311  -27.1707  -46.0539 H         1 UNK         0.0600 
    202 H202        1.0004  -25.3417  -45.7393 H         1 UNK         0.0600 
    203 H203        0.8349  -24.8523  -47.4225 H         1 UNK         0.0600 
    204 H204        1.5435  -26.4125  -47.0228 H         1 UNK         0.0600 
    205 H205       -1.0735  -25.1027  -48.9795 H         1 UNK         0.3000 
    206 H206       -1.0477  -27.4494  -50.7805 H         1 UNK         0.0600 
    207 H207        0.2389  -25.3897  -51.3771 H         1 UNK         0.0600 
    208 H208       -1.0291  -25.7258  -52.5465 H         1 UNK         0.0600 
    209 H209       -1.2510  -24.4479  -51.3585 H         1 UNK         0.0600 
    210 H210       -3.0491  -27.9234  -49.2045 H         1 UNK         0.3000 
    211 H211       -5.4515  -26.6216  -49.3134 H         1 UNK         0.0600 
    212 H212       -4.9571  -29.6251  -48.9831 H         1 UNK         0.0600 
    213 H213       -6.4245  -28.7802  -48.5020 H         1 UNK         0.0600 
    214 H214       -4.9049  -28.4112  -47.7049 H         1 UNK         0.0600 
    215 H215       -4.2583  -28.8467  -51.7630 H         1 UNK         0.3000 
    216 H216       -6.7342  -29.2825  -53.1574 H         1 UNK         0.0600 
    217 H217       -5.2210  -30.2197  -54.9091 H         1 UNK         0.0600 
    218 H218       -4.7960  -30.8305  -53.3189 H         1 UNK         0.0600 
    219 H219       -3.8197  -29.5666  -54.0693 H         1 UNK         0.0600 
    220 H220       -4.6323  -26.5153  -53.0339 H         1 UNK         0.3000 
    221 H221       -5.9784  -25.2717  -55.3791 H         1 UNK         0.0600 
    222 H222       -2.9701  -25.1970  -54.7872 H         1 UNK         0.0600 
    223 H223       -3.7195  -26.0985  -56.1049 H         1 UNK         0.0600 
    224 H224       -3.7916  -24.3446  -56.0913 H         1 UNK         0.0600 
    225 H225       -6.4199  -25.1733  -52.4464 H         1 UNK         0.3000 
    226 H226       -5.2692  -23.0522  -51.1399 H         1 UNK         0.0600 
    227 H227       -6.7028  -24.7523  -50.0529 H         1 UNK         0.0600 
    228 H228       -7.2845  -23.1474  -49.6525 H         1 UNK         0.0600 
    229 H229       -8.1335  -24.1121  -50.8565 H         1 UNK         0.0600 
    230 H230       -7.9689  -22.8801  -53.4051 H         1 UNK         0.3000 
    231 H231       -8.8801  -20.2550  -52.8971 H         1 UNK         0.0600 
    232 H232       -9.9672  -20.5135  -55.1369 H         1 UNK         0.0600 
    233 H233      -10.1751  -21.9560  -54.1583 H         1 UNK         0.0600 
    234 H234       -8.9840  -21.9364  -55.4600 H         1 UNK         0.0600 
    235 H235       -5.9148  -21.2368  -54.4469 H         1 UNK         0.3000 
    236 H236       -5.5815  -18.9152  -56.1384 H         1 UNK         0.0600 
    237 H237       -3.5029  -20.8931  -55.0666 H         1 UNK         0.0600 
    238 H238       -4.4290  -21.1043  -56.5534 H         1 UNK         0.0600 
    239 H239       -3.2872  -19.7757  -56.4052 H         1 UNK         0.0600 
    240 H240       -4.9853  -19.5841  -52.7181 H         1 UNK         0.3000 
    241 H241       -3.7040  -16.9057  -52.4064 H         1 UNK         0.0600 
    242 H242       -6.6680  -17.9783  -49.8767 H         1 UNK         0.3800 
    243 H243       -6.1959  -19.1408  -51.0863 H         1 UNK         0.3800 
    244 H244       -2.2022  -17.7742  -50.6685 H         1 UNK         0.0800 
    245 H245       -2.8526  -19.3791  -50.8457 H         1 UNK         0.0800 
    246 H246       -1.1904  -16.4588  -52.8655 H         1 UNK         0.0800 
    247 H247        0.0750  -17.2870  -53.7375 H         1 UNK         0.0800 
@<TRIPOS>BOND
     1    1    2 1    
     2    1  127 1    
     3    1  128 1    
     4    1  129 1    
     5    2    3 2    
     6    2    4 am   BACKBONE|DICT|INTERRES
     7    4    5 1    
     8    4  130 1    
     9    5    6 1    
    10    5   65 1    
    11    5  131 1    
    12    6    7 1    
    13    6  132 1    
    14    6  133 1    
    15    7    8 1    
    16    8    9 1    
    17    8  134 1    
    18    8  135 1    
    19    9   10 ar   
    20    9   14 ar   
    21   10   11 ar   
    22   10  136 1    
    23   11   12 ar   
    24   11  126 1    
    25   12   13 ar   
    26   12  137 1    
    27   13   14 ar   
    28   13   15 1    
    29   14  138 1    
    30   15   16 1    
    31   15  139 1    
    32   15  140 1    
    33   16   17 1    
    34   17   18 1    
    35   17  141 1    
    36   17  142 1    
    37   18   19 1    
    38   18   67 1    
    39   18  143 1    
    40   19   20 am   BACKBONE|DICT|INTERRES
    41   19  144 1    
    42   20   21 2    
    43   20   22 1    
    44   22   23 1    
    45   22   24 1    
    46   22  145 1    
    47   23  146 1    
    48   23  147 1    
    49   23  148 1    
    50   24   25 am   BACKBONE|DICT|INTERRES
    51   24  149 1    
    52   25   26 2    
    53   25   27 1    
    54   27   28 1    
    55   27   29 1    
    56   27  150 1    
    57   28  151 1    
    58   28  152 1    
    59   28  153 1    
    60   29   30 am   BACKBONE|DICT|INTERRES
    61   29  154 1    
    62   30   31 2    
    63   30   32 1    
    64   32   33 1    
    65   32   34 1    
    66   32  155 1    
    67   33  156 1    
    68   33  157 1    
    69   33  158 1    
    70   34   35 am   BACKBONE|DICT|INTERRES
    71   34  159 1    
    72   35   36 2    
    73   35   37 1    
    74   37   38 1    
    75   37   39 1    
    76   37  160 1    
    77   38  161 1    
    78   38  162 1    
    79   38  163 1    
    80   39   40 am   BACKBONE|DICT|INTERRES
    81   39  164 1    
    82   40   41 2    
    83   40   42 1    
    84   42   43 1    
    85   42   44 1    
    86   42  165 1    
    87   43  166 1    
    88   43  167 1    
    89   43  168 1    
    90   44   45 am   BACKBONE|DICT|INTERRES
    91   44  169 1    
    92   45   46 2    
    93   45   47 1    
    94   47   48 1    
    95   47   49 1    
    96   47  170 1    
    97   48  171 1    
    98   48  172 1    
    99   48  173 1    
   100   49   50 am   BACKBONE|DICT|INTERRES
   101   49  174 1    
   102   50   51 2    
   103   50   52 1    
   104   52   53 1    
   105   52   54 1    
   106   52  175 1    
   107   53  176 1    
   108   53  177 1    
   109   53  178 1    
   110   54   55 am   BACKBONE|DICT|INTERRES
   111   54  179 1    
   112   55   56 2    
   113   55   57 1    
   114   57   58 1    
   115   57   59 1    
   116   57  180 1    
   117   58  181 1    
   118   58  182 1    
   119   58  183 1    
   120   59   60 am   BACKBONE|DICT|INTERRES
   121   59  184 1    
   122   60   61 2    
   123   60   62 1    
   124   62   63 1    
   125   62   64 1    
   126   62  185 1    
   127   63  186 1    
   128   63  187 1    
   129   63  188 1    
   130   64   65 am   BACKBONE|DICT|INTERRES
   131   64  189 1    
   132   65   66 2    
   133   67   68 2    
   134   67   69 am   BACKBONE|DICT|INTERRES
   135   69   70 1    
   136   69  190 1    
   137   70   71 1    
   138   70   72 1    
   139   70  191 1    
   140   71  192 1    
   141   71  193 1    
   142   71  194 1    
   143   72   73 2    
   144   72   74 am   BACKBONE|DICT|INTERRES
   145   74   75 1    
   146   74  195 1    
   147   75   76 1    
   148   75   77 1    
   149   75  196 1    
   150   76  197 1    
   151   76  198 1    
   152   76  199 1    
   153   77   78 2    
   154   77   79 am   BACKBONE|DICT|INTERRES
   155   79   80 1    
   156   79  200 1    
   157   80   81 1    
   158   80   82 1    
   159   80  201 1    
   160   81  202 1    
   161   81  203 1    
   162   81  204 1    
   163   82   83 2    
   164   82   84 am   BACKBONE|DICT|INTERRES
   165   84   85 1    
   166   84  205 1    
   167   85   86 1    
   168   85   87 1    
   169   85  206 1    
   170   86  207 1    
   171   86  208 1    
   172   86  209 1    
   173   87   88 2    
   174   87   89 am   BACKBONE|DICT|INTERRES
   175   89   90 1    
   176   89  210 1    
   177   90   91 1    
   178   90   92 1    
   179   90  211 1    
   180   91  212 1    
   181   91  213 1    
   182   91  214 1    
   183   92   93 2    
   184   92   94 am   BACKBONE|DICT|INTERRES
   185   94   95 1    
   186   94  215 1    
   187   95   96 1    
   188   95   97 1    
   189   95  216 1    
   190   96  217 1    
   191   96  218 1    
   192   96  219 1    
   193   97   98 2    
   194   97   99 am   BACKBONE|DICT|INTERRES
   195   99  100 1    
   196   99  220 1    
   197  100  101 1    
   198  100  102 1    
   199  100  221 1    
   200  101  222 1    
   201  101  223 1    
   202  101  224 1    
   203  102  103 2    
   204  102  104 am   BACKBONE|DICT|INTERRES
   205  104  105 1    
   206  104  225 1    
   207  105  106 1    
   208  105  107 1    
   209  105  226 1    
   210  106  227 1    
   211  106  228 1    
   212  106  229 1    
   213  107  108 2    
   214  107  109 am   BACKBONE|DICT|INTERRES
   215  109  110 1    
   216  109  230 1    
   217  110  111 1    
   218  110  112 1    
   219  110  231 1    
   220  111  232 1    
   221  111  233 1    
   222  111  234 1    
   223  112  113 2    
   224  112  114 am   BACKBONE|DICT|INTERRES
   225  114  115 1    
   226  114  235 1    
   227  115  116 1    
   228  115  117 1    
   229  115  236 1    
   230  116  237 1    
   231  116  238 1    
   232  116  239 1    
   233  117  118 2    
   234  117  119 am   BACKBONE|DICT|INTERRES
   235  119  120 1    
   236  119  240 1    
   237  120  121 1    
   238  120  124 1    
   239  120  241 1    
   240  121  122 am   BACKBONE|DICT|INTERRES
   241  121  123 2    
   242  122  242 1    
   243  122  243 1    
   244  124  125 1    
   245  124  244 1    
   246  124  245 1    
   247  125  126 1    
   248  126  246 1    
   249  126  247 1    
@<TRIPOS>SUBSTRUCTURE
     1 UNK         1 GROUP             0       ****    0 ROOT    
