@<TRIPOS>MOLECULE
3R540
247   249    1
SMALL
USER_CHARGES


@<TRIPOS>ATOM
      1 CA          6.3233  -21.5925  -51.7074 C.3       0 UNK        -0.1800 
      2 C           5.5304  -20.6753  -50.7876 C.2       0 UNK         0.5000 
      3 O           5.3121  -21.0148  -49.6252 O.2       0 UNK        -0.5000 
      4 N           5.0924  -19.5207  -51.3052 N.am      1 UNK        -0.5000 
      5 CA          4.3317  -18.5138  -50.5633 C.3       1 UNK         0.1400 
      6 C6          3.6336  -17.5168  -51.5257 C.3       23 UNK        -0.0398 
      7 S7          2.4304  -16.4175  -50.7024 S.3       23 UNK        -0.2404 
      8 C8          1.0157  -17.5376  -50.4720 C.3       23 UNK        -0.0205 
      9 C9          0.0010  -16.9488  -49.5077 C.ar      23 UNK        -0.0193 
     10 C10        -1.2600  -16.5540  -49.9590 C.ar      23 UNK        -0.1150 
     11 C11        -2.1960  -16.0213  -49.0685 C.ar      23 UNK        -0.0193 
     12 C12        -1.8665  -15.8986  -47.7135 C.ar      23 UNK        -0.1150 
     13 C13        -0.6021  -16.2819  -47.2512 C.ar      23 UNK        -0.0193 
     14 C14         0.3242  -16.8059  -48.1555 C.ar      23 UNK        -0.1150 
     15 C15        -0.2175  -16.0790  -45.7909 C.3       23 UNK        -0.0205 
     16 S16        -0.5287  -17.5492  -44.7670 S.3       23 UNK        -0.2404 
     17 C17         0.9700  -18.5626  -45.0071 C.3       23 UNK        -0.0398 
     18 CA          0.7084  -19.9962  -45.5298 C.3       11 UNK         0.1400 
     19 N          -0.1559  -20.7870  -44.6453 N.am      11 UNK        -0.5000 
     20 C          -0.2948  -22.1177  -44.7406 C.2       10 UNK         0.5000 
     21 O           0.3119  -22.8121  -45.5578 O.2       10 UNK        -0.5000 
     22 CA         -1.3048  -22.7816  -43.7938 C.3       10 UNK         0.1400 
     23 CB         -0.7041  -22.9641  -42.3921 C.3       10 UNK        -0.1800 
     24 N          -2.5573  -22.0332  -43.7007 N.am      10 UNK        -0.5000 
     25 C          -3.4871  -21.9886  -44.6637 C.2       9 UNK         0.5000 
     26 O          -3.3482  -22.5102  -45.7682 O.2       9 UNK        -0.5000 
     27 CA         -4.7902  -21.2350  -44.3435 C.3       9 UNK         0.1400 
     28 CB         -5.7640  -22.1435  -43.5785 C.3       9 UNK        -0.1800 
     29 N          -4.5598  -20.0143  -43.5732 N.am      9 UNK        -0.5000 
     30 C          -4.0243  -18.9028  -44.0935 C.2       8 UNK         0.5000 
     31 O          -3.7159  -18.7890  -45.2783 O.2       8 UNK        -0.5000 
     32 CA         -3.7825  -17.7253  -43.1296 C.3       8 UNK         0.1400 
     33 CB         -5.0563  -16.8755  -43.0029 C.3       8 UNK        -0.1800 
     34 N          -3.3135  -18.0860  -41.7857 N.am      8 UNK        -0.5000 
     35 C          -2.3107  -18.9198  -41.4699 C.2       7 UNK         0.5000 
     36 O          -1.6968  -19.6145  -42.2811 O.2       7 UNK        -0.5000 
     37 CA         -1.9297  -18.9467  -39.9790 C.3       7 UNK         0.1400 
     38 CB         -1.3122  -20.2902  -39.5362 C.3       7 UNK        -0.1800 
     39 N          -1.0656  -17.8098  -39.6387 N.am      7 UNK        -0.5000 
     40 C           0.1817  -17.5690  -40.0726 C.2       6 UNK         0.5000 
     41 O           0.8337  -18.3371  -40.7842 O.2       6 UNK        -0.5000 
     42 CA          0.8164  -16.2512  -39.5812 C.3       6 UNK         0.1400 
     43 CB          1.1225  -16.3201  -38.0751 C.3       6 UNK        -0.1800 
     44 N           2.0618  -15.9565  -40.2892 N.am      6 UNK        -0.5000 
     45 C           2.1433  -15.4601  -41.5290 C.2       5 UNK         0.5000 
     46 O           1.1717  -15.0723  -42.1826 O.2       5 UNK        -0.5000 
     47 CA          3.5607  -15.4283  -42.1317 C.3       5 UNK         0.1400 
     48 CB          3.9526  -16.8180  -42.6579 C.3       5 UNK        -0.1800 
     49 N           3.6978  -14.4473  -43.2095 N.am      5 UNK        -0.5000 
     50 C           3.7745  -13.1227  -43.0126 C.2       4 UNK         0.5000 
     51 O           3.7257  -12.6049  -41.8952 O.2       4 UNK        -0.5000 
     52 CA          3.9830  -12.2105  -44.2404 C.3       4 UNK         0.1400 
     53 CB          5.3904  -11.5916  -44.2146 C.3       4 UNK        -0.1800 
     54 N           3.8066  -12.8944  -45.5210 N.am      4 UNK        -0.5000 
     55 C           2.6294  -13.1004  -46.1241 C.2       3 UNK         0.5000 
     56 O           1.5529  -12.7074  -45.6744 O.2       3 UNK        -0.5000 
     57 CA          2.6564  -13.8807  -47.4553 C.3       3 UNK         0.1400 
     58 CB          2.6397  -12.9099  -48.6455 C.3       3 UNK        -0.1800 
     59 N           3.7834  -14.8094  -47.6158 N.am      3 UNK        -0.5000 
     60 C           4.0830  -15.8221  -46.7918 C.2       2 UNK         0.5000 
     61 O           3.4780  -16.0477  -45.7457 O.2       2 UNK        -0.5000 
     62 CA          5.1973  -16.7680  -47.2576 C.3       2 UNK         0.1400 
     63 CB          5.6984  -17.7043  -46.1429 C.3       2 UNK        -0.1800 
     64 N           4.6402  -17.5638  -48.3415 N.am      2 UNK        -0.5000 
     65 C           5.2161  -17.7933  -49.5244 C.2       1 UNK         0.5000 
     66 O           6.3575  -17.4343  -49.8240 O.2       1 UNK        -0.5000 
     67 C           0.2123  -20.0168  -46.9897 C.2       11 UNK         0.5000 
     68 O           1.0333  -20.0630  -47.9065 O.2       11 UNK        -0.5000 
     69 N          -1.1157  -20.0334  -47.1728 N.am      12 UNK        -0.5000 
     70 CA         -1.7655  -20.1819  -48.4685 C.3       12 UNK         0.1400 
     71 CB         -3.2511  -19.8273  -48.3397 C.3       12 UNK        -0.1800 
     72 C          -1.5783  -21.5942  -49.0424 C.2       12 UNK         0.5000 
     73 O          -1.2203  -21.7262  -50.2126 O.2       12 UNK        -0.5000 
     74 N          -1.7943  -22.6287  -48.2158 N.am      13 UNK        -0.5000 
     75 CA         -1.6544  -24.0410  -48.5845 C.3       13 UNK         0.1400 
     76 CB         -2.1064  -24.9367  -47.4229 C.3       13 UNK        -0.1800 
     77 C          -0.2378  -24.4250  -49.0433 C.2       13 UNK         0.5000 
     78 O          -0.1062  -25.2573  -49.9401 O.2       13 UNK        -0.5000 
     79 N           0.7868  -23.7674  -48.4825 N.am      14 UNK        -0.5000 
     80 CA          2.1902  -23.8993  -48.8860 C.3       14 UNK         0.1400 
     81 CB          3.0669  -23.0871  -47.9216 C.3       14 UNK        -0.1800 
     82 C           2.4628  -23.4842  -50.3492 C.2       14 UNK         0.5000 
     83 O           3.3980  -24.0043  -50.9584 O.2       14 UNK        -0.5000 
     84 N           1.6287  -22.5874  -50.8923 N.am      15 UNK        -0.5000 
     85 CA          1.6611  -22.1325  -52.2833 C.3       15 UNK         0.1400 
     86 CB          1.5099  -20.6054  -52.2786 C.3       15 UNK        -0.1800 
     87 C           0.5434  -22.7636  -53.1372 C.2       15 UNK         0.5000 
     88 O           0.4449  -22.4425  -54.3218 O.2       15 UNK        -0.5000 
     89 N          -0.3046  -23.6015  -52.5198 N.am      16 UNK        -0.5000 
     90 CA         -1.5581  -24.1601  -53.0431 C.3       16 UNK         0.1400 
     91 CB         -1.3003  -25.0851  -54.2500 C.3       16 UNK        -0.1800 
     92 C          -2.6435  -23.0951  -53.3291 C.2       16 UNK         0.5000 
     93 O          -3.6047  -23.3772  -54.0453 O.2       16 UNK        -0.5000 
     94 N          -2.5054  -21.9022  -52.7323 N.am      17 UNK        -0.5000 
     95 CA         -3.4428  -20.7834  -52.8484 C.3       17 UNK         0.1400 
     96 CB         -2.7391  -19.4840  -52.4252 C.3       17 UNK        -0.1800 
     97 C          -4.7240  -20.9987  -52.0243 C.2       17 UNK         0.5000 
     98 O          -5.7456  -20.3803  -52.3238 O.2       17 UNK        -0.5000 
     99 N          -4.6636  -21.8925  -51.0251 N.am      18 UNK        -0.5000 
    100 CA        -5.7907  -22.2879  -50.1770 C.3       18 UNK         0.1400 
    101 CB        -5.2884  -23.1888  -49.0394 C.3       18 UNK        -0.1800 
    102 C         -6.9191  -22.9884  -50.9564 C.2       18 UNK         0.5000 
    103 O         -8.0829  -22.8506  -50.5822 O.2       18 UNK        -0.5000 
    104 N         -6.5697  -23.6744  -52.0553 N.am      19 UNK        -0.5000 
    105 CA        -7.5150  -24.3059  -52.9810 C.3       19 UNK         0.1400 
    106 CB        -6.7386  -25.2076  -53.9524 C.3       19 UNK        -0.1800 
    107 C         -8.3723  -23.2851  -53.7572 C.2       19 UNK         0.5000 
    108 O         -9.5004  -23.6019  -54.1353 O.2       19 UNK        -0.5000 
    109 N         -7.8312  -22.0756  -53.9523 N.am      20 UNK        -0.5000 
    110 CA        -8.5139  -20.9235  -54.5411 C.3       20 UNK         0.1400 
    111 CB        -7.5222  -20.2009  -55.4690 C.3       20 UNK        -0.1800 
    112 C         -9.0459  -19.9564  -53.4632 C.2       20 UNK         0.5000 
    113 O         -9.5928  -18.9102  -53.8150 O.2       20 UNK        -0.5000 
    114 N         -8.8362  -20.2867  -52.1781 N.am      21 UNK        -0.5000 
    115 CA        -9.1293  -19.4864  -50.9832 C.3       21 UNK         0.1400 
    116 CB       -10.6513  -19.4339  -50.7395 C.3       21 UNK        -0.1800 
    117 C         -8.4747  -18.0862  -51.0130 C.2       21 UNK         0.5000 
    118 O         -9.0760  -17.1180  -50.5444 O.2       21 UNK        -0.5000 
    119 N         -7.2717  -18.0037  -51.6014 N.am      22 UNK        -0.5000 
    120 CA        -6.5383  -16.7641  -51.9185 C.3       22 UNK         0.1400 
    121 C         -7.2305  -15.8488  -52.9805 C.2       22 UNK         0.5000 
    122 N         -8.2411  -16.3041  -53.7125 N.am      22 UNK        -0.7600 
    123 O         -6.8200  -14.7088  -53.1807 O.2       22 UNK        -0.5000 
    124 C124       -6.0871  -15.9823  -50.6492 C.3       23 UNK        -0.0398 
    125 S125       -4.7698  -16.8544  -49.7331 S.3       23 UNK        -0.2404 
    126 C126       -3.5347  -15.5243  -49.5925 C.3       23 UNK        -0.0205 
    127 H127        7.3180  -21.7668  -51.2973 H         1 UNK         0.0600 
    128 H128        6.4353  -21.1689  -52.7057 H         1 UNK         0.0600 
    129 H129        5.8181  -22.5541  -51.8009 H         1 UNK         0.0600 
    130 H130        5.3417  -19.2774  -52.2531 H         1 UNK         0.3000 
    131 H131        3.5580  -19.0553  -50.0157 H         1 UNK         0.0600 
    132 H132        3.1118  -18.0519  -52.3194 H         1 UNK         0.0800 
    133 H133        4.3746  -16.8939  -52.0300 H         1 UNK         0.0800 
    134 H134        1.3485  -18.4953  -50.0738 H         1 UNK         0.0800 
    135 H135        0.5597  -17.7446  -51.4412 H         1 UNK         0.0800 
    136 H136       -1.5129  -16.6511  -51.0055 H         1 UNK         0.1150 
    137 H137       -2.5859  -15.4824  -47.0224 H         1 UNK         0.1150 
    138 H138        1.3046  -17.0984  -47.8100 H         1 UNK         0.1150 
    139 H139        0.8288  -15.7874  -45.7018 H         1 UNK         0.0800 
    140 H140       -0.7889  -15.2472  -45.3766 H         1 UNK         0.0800 
    141 H141        1.6723  -18.0442  -45.6600 H         1 UNK         0.0800 
    142 H142        1.4674  -18.6263  -44.0387 H         1 UNK         0.0800 
    143 H143        1.6790  -20.4976  -45.5391 H         1 UNK         0.0600 
    144 H144       -0.6876  -20.2796  -43.9429 H         1 UNK         0.3000 
    145 H145       -1.5322  -23.7733  -44.1906 H         1 UNK         0.0600 
    146 H146       -1.4063  -23.4593  -41.7213 H         1 UNK         0.0600 
    147 H147        0.1964  -23.5781  -42.4326 H         1 UNK         0.0600 
    148 H148       -0.4276  -22.0096  -41.9447 H         1 UNK         0.0600 
    149 H149       -2.6816  -21.4636  -42.8745 H         1 UNK         0.3000 
    150 H150       -5.2579  -20.9639  -45.2928 H         1 UNK         0.0600 
    151 H151       -5.9671  -23.0566  -44.1399 H         1 UNK         0.0600 
    152 H152       -6.7196  -21.6459  -43.4127 H         1 UNK         0.0600 
    153 H153       -5.3646  -22.4374  -42.6070 H         1 UNK         0.0600 
    154 H154       -4.7876  -20.0325  -42.5903 H         1 UNK         0.3000 
    155 H155       -3.0161  -17.0914  -43.5735 H         1 UNK         0.0600 
    156 H156       -4.8701  -15.9657  -42.4318 H         1 UNK         0.0600 
    157 H157       -5.8593  -17.4246  -42.5098 H         1 UNK         0.0600 
    158 H158       -5.4217  -16.5701  -43.9846 H         1 UNK         0.0600 
    159 H159       -3.7442  -17.5702  -41.0324 H         1 UNK         0.3000 
    160 H160       -2.8501  -18.8193  -39.4067 H         1 UNK         0.0600 
    161 H161       -0.3773  -20.5083  -40.0516 H         1 UNK         0.0600 
    162 H162       -1.9941  -21.1158  -39.7427 H         1 UNK         0.0600 
    163 H163       -1.1101  -20.2947  -38.4653 H         1 UNK         0.0600 
    164 H164       -1.4987  -17.1097  -39.0528 H         1 UNK         0.3000 
    165 H165        0.1073  -15.4400  -39.7597 H         1 UNK         0.0600 
    166 H166        1.8087  -17.1352  -37.8411 H         1 UNK         0.0600 
    167 H167        1.5719  -15.3918  -37.7214 H         1 UNK         0.0600 
    168 H168        0.2148  -16.4790  -37.4919 H         1 UNK         0.0600 
    169 H169        2.9057  -16.2903  -39.8475 H         1 UNK         0.3000 
    170 H170        4.2628  -15.1584  -41.3397 H         1 UNK         0.0600 
    171 H171        3.9543  -17.5562  -41.8552 H         1 UNK         0.0600 
    172 H172        3.2546  -17.1691  -43.4168 H         1 UNK         0.0600 
    173 H173        4.9509  -16.8105  -43.0949 H         1 UNK         0.0600 
    174 H174        3.6689  -14.8137  -44.1550 H         1 UNK         0.3000 
    175 H175        3.2567  -11.3983  -44.1675 H         1 UNK         0.0600 
    176 H176        6.1668  -12.3551  -44.2778 H         1 UNK         0.0600 
    177 H177        5.5319  -10.8983  -45.0440 H         1 UNK         0.0600 
    178 H178        5.5561  -11.0306  -43.2940 H         1 UNK         0.0600 
    179 H179        4.6396  -13.2554  -45.9619 H         1 UNK         0.3000 
    180 H180        1.7408  -14.4700  -47.4977 H         1 UNK         0.0600 
    181 H181        1.7986  -12.2189  -48.5755 H         1 UNK         0.0600 
    182 H182        2.5382  -13.4450  -49.5898 H         1 UNK         0.0600 
    183 H183        3.5522  -12.3144  -48.6911 H         1 UNK         0.0600 
    184 H184        4.3135  -14.7151  -48.4701 H         1 UNK         0.3000 
    185 H185        6.0326  -16.1575  -47.6070 H         1 UNK         0.0600 
    186 H186        6.1068  -17.1322  -45.3093 H         1 UNK         0.0600 
    187 H187        4.8990  -18.3350  -45.7515 H         1 UNK         0.0600 
    188 H188        6.4900  -18.3587  -46.5078 H         1 UNK         0.0600 
    189 H189        3.6900  -17.8752  -48.1976 H         1 UNK         0.3000 
    190 H190       -1.7201  -19.9484  -46.3666 H         1 UNK         0.3000 
    191 H191       -1.3069  -19.4757  -49.1622 H         1 UNK         0.0600 
    192 H192       -3.7567  -19.8800  -49.3029 H         1 UNK         0.0600 
    193 H193       -3.3712  -18.8092  -47.9702 H         1 UNK         0.0600 
    194 H194       -3.7732  -20.4914  -47.6511 H         1 UNK         0.0600 
    195 H195       -2.1336  -22.4472  -47.2751 H         1 UNK         0.3000 
    196 H196       -2.3219  -24.2238  -49.4285 H         1 UNK         0.0600 
    197 H197       -1.9911  -25.9922  -47.6724 H         1 UNK         0.0600 
    198 H198       -3.1583  -24.7756  -47.1875 H         1 UNK         0.0600 
    199 H199       -1.5256  -24.7463  -46.5202 H         1 UNK         0.0600 
    200 H200        0.5893  -23.1320  -47.7177 H         1 UNK         0.3000 
    201 H201        2.4618  -24.9523  -48.7889 H         1 UNK         0.0600 
    202 H202        2.9126  -23.3963  -46.8876 H         1 UNK         0.0600 
    203 H203        2.8556  -22.0198  -47.9887 H         1 UNK         0.0600 
    204 H204        4.1250  -23.2233  -48.1490 H         1 UNK         0.0600 
    205 H205        0.8724  -22.2209  -50.3259 H         1 UNK         0.3000 
    206 H206        2.6169  -22.3837  -52.7473 H         1 UNK         0.0600 
    207 H207        2.2733  -20.1522  -51.6526 H         1 UNK         0.0600 
    208 H208        1.6189  -20.1911  -53.2815 H         1 UNK         0.0600 
    209 H209        0.5359  -20.2975  -51.8958 H         1 UNK         0.0600 
    210 H210       -0.1049  -23.8352  -51.5552 H         1 UNK         0.3000 
    211 H211       -1.9594  -24.7802  -52.2405 H         1 UNK         0.0600 
    212 H212       -0.9792  -24.5273  -55.1298 H         1 UNK         0.0600 
    213 H213       -2.2041  -25.6304  -54.5243 H         1 UNK         0.0600 
    214 H214       -0.5334  -25.8255  -54.0223 H         1 UNK         0.0600 
    215 H215       -1.7391  -21.7791  -52.0774 H         1 UNK         0.3000 
    216 H216       -3.7389  -20.6858  -53.8948 H         1 UNK         0.0600 
    217 H217       -3.4060  -18.6266  -52.5258 H         1 UNK         0.0600 
    218 H218       -1.8642  -19.2901  -53.0459 H         1 UNK         0.0600 
    219 H219       -2.4097  -19.5186  -51.3875 H         1 UNK         0.0600 
    220 H220       -3.7794  -22.3467  -50.8537 H         1 UNK         0.3000 
    221 H221       -6.2098  -21.3810  -49.7357 H         1 UNK         0.0600 
    222 H222       -4.8087  -24.0910  -49.4196 H         1 UNK         0.0600 
    223 H223       -4.5746  -22.6658  -48.4052 H         1 UNK         0.0600 
    224 H224       -6.1120  -23.5026  -48.3967 H         1 UNK         0.0600 
    225 H225       -5.5931  -23.7201  -52.3094 H         1 UNK         0.3000 
    226 H226       -8.1932  -24.9329  -52.3983 H         1 UNK         0.0600 
    227 H227       -6.1691  -25.9677  -53.4174 H         1 UNK         0.0600 
    228 H228       -7.4176  -25.7274  -54.6296 H         1 UNK         0.0600 
    229 H229       -6.0413  -24.6338  -54.5641 H         1 UNK         0.0600 
    230 H230       -6.9059  -21.8948  -53.5861 H         1 UNK         0.3000 
    231 H231       -9.3669  -21.2516  -55.1383 H         1 UNK         0.0600 
    232 H232       -7.9980  -19.3609  -55.9765 H         1 UNK         0.0600 
    233 H233       -7.1442  -20.8718  -56.2405 H         1 UNK         0.0600 
    234 H234       -6.6668  -19.8085  -54.9174 H         1 UNK         0.0600 
    235 H235       -8.3898  -21.1749  -51.9939 H         1 UNK         0.3000 
    236 H236       -8.6766  -20.0136  -50.1424 H         1 UNK         0.0600 
    237 H237      -11.0783  -20.4362  -50.7040 H         1 UNK         0.0600 
    238 H238      -10.8806  -18.9516  -49.7887 H         1 UNK         0.0600 
    239 H239      -11.1665  -18.8771  -51.5229 H         1 UNK         0.0600 
    240 H240       -6.8410  -18.8609  -51.9383 H         1 UNK         0.3000 
    241 H241       -5.6333  -17.0977  -52.4275 H         1 UNK         0.0600 
    242 H242       -8.6162  -17.2390  -53.5864 H         1 UNK         0.3800 
    243 H243       -8.6585  -15.6963  -54.3989 H         1 UNK         0.3800 
    244 H244       -5.7157  -14.9924  -50.9163 H         1 UNK         0.0800 
    245 H245       -6.9242  -15.8009  -49.9754 H         1 UNK         0.0800 
    246 H246       -3.9260  -14.7401  -48.9425 H         1 UNK         0.0800 
    247 H247       -3.3833  -15.0642  -50.5703 H         1 UNK         0.0800 
@<TRIPOS>BOND
     1    1    2 1    
     2    1  127 1    
     3    1  128 1    
     4    1  129 1    
     5    2    3 2    
     6    2    4 am   BACKBONE|DICT|INTERRES
     7    4    5 1    
     8    4  130 1    
     9    5    6 1    
    10    5   65 1    
    11    5  131 1    
    12    6    7 1    
    13    6  132 1    
    14    6  133 1    
    15    7    8 1    
    16    8    9 1    
    17    8  134 1    
    18    8  135 1    
    19    9   10 ar   
    20    9   14 ar   
    21   10   11 ar   
    22   10  136 1    
    23   11   12 ar   
    24   11  126 1    
    25   12   13 ar   
    26   12  137 1    
    27   13   14 ar   
    28   13   15 1    
    29   14  138 1    
    30   15   16 1    
    31   15  139 1    
    32   15  140 1    
    33   16   17 1    
    34   17   18 1    
    35   17  141 1    
    36   17  142 1    
    37   18   19 1    
    38   18   67 1    
    39   18  143 1    
    40   19   20 am   BACKBONE|DICT|INTERRES
    41   19  144 1    
    42   20   21 2    
    43   20   22 1    
    44   22   23 1    
    45   22   24 1    
    46   22  145 1    
    47   23  146 1    
    48   23  147 1    
    49   23  148 1    
    50   24   25 am   BACKBONE|DICT|INTERRES
    51   24  149 1    
    52   25   26 2    
    53   25   27 1    
    54   27   28 1    
    55   27   29 1    
    56   27  150 1    
    57   28  151 1    
    58   28  152 1    
    59   28  153 1    
    60   29   30 am   BACKBONE|DICT|INTERRES
    61   29  154 1    
    62   30   31 2    
    63   30   32 1    
    64   32   33 1    
    65   32   34 1    
    66   32  155 1    
    67   33  156 1    
    68   33  157 1    
    69   33  158 1    
    70   34   35 am   BACKBONE|DICT|INTERRES
    71   34  159 1    
    72   35   36 2    
    73   35   37 1    
    74   37   38 1    
    75   37   39 1    
    76   37  160 1    
    77   38  161 1    
    78   38  162 1    
    79   38  163 1    
    80   39   40 am   BACKBONE|DICT|INTERRES
    81   39  164 1    
    82   40   41 2    
    83   40   42 1    
    84   42   43 1    
    85   42   44 1    
    86   42  165 1    
    87   43  166 1    
    88   43  167 1    
    89   43  168 1    
    90   44   45 am   BACKBONE|DICT|INTERRES
    91   44  169 1    
    92   45   46 2    
    93   45   47 1    
    94   47   48 1    
    95   47   49 1    
    96   47  170 1    
    97   48  171 1    
    98   48  172 1    
    99   48  173 1    
   100   49   50 am   BACKBONE|DICT|INTERRES
   101   49  174 1    
   102   50   51 2    
   103   50   52 1    
   104   52   53 1    
   105   52   54 1    
   106   52  175 1    
   107   53  176 1    
   108   53  177 1    
   109   53  178 1    
   110   54   55 am   BACKBONE|DICT|INTERRES
   111   54  179 1    
   112   55   56 2    
   113   55   57 1    
   114   57   58 1    
   115   57   59 1    
   116   57  180 1    
   117   58  181 1    
   118   58  182 1    
   119   58  183 1    
   120   59   60 am   BACKBONE|DICT|INTERRES
   121   59  184 1    
   122   60   61 2    
   123   60   62 1    
   124   62   63 1    
   125   62   64 1    
   126   62  185 1    
   127   63  186 1    
   128   63  187 1    
   129   63  188 1    
   130   64   65 am   BACKBONE|DICT|INTERRES
   131   64  189 1    
   132   65   66 2    
   133   67   68 2    
   134   67   69 am   BACKBONE|DICT|INTERRES
   135   69   70 1    
   136   69  190 1    
   137   70   71 1    
   138   70   72 1    
   139   70  191 1    
   140   71  192 1    
   141   71  193 1    
   142   71  194 1    
   143   72   73 2    
   144   72   74 am   BACKBONE|DICT|INTERRES
   145   74   75 1    
   146   74  195 1    
   147   75   76 1    
   148   75   77 1    
   149   75  196 1    
   150   76  197 1    
   151   76  198 1    
   152   76  199 1    
   153   77   78 2    
   154   77   79 am   BACKBONE|DICT|INTERRES
   155   79   80 1    
   156   79  200 1    
   157   80   81 1    
   158   80   82 1    
   159   80  201 1    
   160   81  202 1    
   161   81  203 1    
   162   81  204 1    
   163   82   83 2    
   164   82   84 am   BACKBONE|DICT|INTERRES
   165   84   85 1    
   166   84  205 1    
   167   85   86 1    
   168   85   87 1    
   169   85  206 1    
   170   86  207 1    
   171   86  208 1    
   172   86  209 1    
   173   87   88 2    
   174   87   89 am   BACKBONE|DICT|INTERRES
   175   89   90 1    
   176   89  210 1    
   177   90   91 1    
   178   90   92 1    
   179   90  211 1    
   180   91  212 1    
   181   91  213 1    
   182   91  214 1    
   183   92   93 2    
   184   92   94 am   BACKBONE|DICT|INTERRES
   185   94   95 1    
   186   94  215 1    
   187   95   96 1    
   188   95   97 1    
   189   95  216 1    
   190   96  217 1    
   191   96  218 1    
   192   96  219 1    
   193   97   98 2    
   194   97   99 am   BACKBONE|DICT|INTERRES
   195   99  100 1    
   196   99  220 1    
   197  100  101 1    
   198  100  102 1    
   199  100  221 1    
   200  101  222 1    
   201  101  223 1    
   202  101  224 1    
   203  102  103 2    
   204  102  104 am   BACKBONE|DICT|INTERRES
   205  104  105 1    
   206  104  225 1    
   207  105  106 1    
   208  105  107 1    
   209  105  226 1    
   210  106  227 1    
   211  106  228 1    
   212  106  229 1    
   213  107  108 2    
   214  107  109 am   BACKBONE|DICT|INTERRES
   215  109  110 1    
   216  109  230 1    
   217  110  111 1    
   218  110  112 1    
   219  110  231 1    
   220  111  232 1    
   221  111  233 1    
   222  111  234 1    
   223  112  113 2    
   224  112  114 am   BACKBONE|DICT|INTERRES
   225  114  115 1    
   226  114  235 1    
   227  115  116 1    
   228  115  117 1    
   229  115  236 1    
   230  116  237 1    
   231  116  238 1    
   232  116  239 1    
   233  117  118 2    
   234  117  119 am   BACKBONE|DICT|INTERRES
   235  119  120 1    
   236  119  240 1    
   237  120  121 1    
   238  120  124 1    
   239  120  241 1    
   240  121  122 am   BACKBONE|DICT|INTERRES
   241  121  123 2    
   242  122  242 1    
   243  122  243 1    
   244  124  125 1    
   245  124  244 1    
   246  124  245 1    
   247  125  126 1    
   248  126  246 1    
   249  126  247 1    
@<TRIPOS>SUBSTRUCTURE
     1 UNK         1 GROUP             0       ****    0 ROOT    
