@<TRIPOS>MOLECULE
3R540
247   249    1
SMALL
USER_CHARGES


@<TRIPOS>ATOM
      1 CA          4.3753  -10.7897  -48.1298 C.3       0 UNK        -0.1800 
      2 C           3.3016  -11.3464  -47.2075 C.2       0 UNK         0.5000 
      3 O           3.3581  -11.1193  -45.9993 O.2       0 UNK        -0.5000 
      4 N           2.3148  -12.0548  -47.7732 N.am      1 UNK        -0.5000 
      5 CA          1.2147  -12.7438  -47.0780 C.3       1 UNK         0.1400 
      6 C6          0.3043  -13.4987  -48.0779 C.3       23 UNK        -0.0398 
      7 S7          1.1652  -14.8724  -48.9114 S.3       23 UNK        -0.2404 
      8 C8         -0.2551  -15.7109  -49.6793 C.3       23 UNK        -0.0205 
      9 C9          0.1891  -16.8209  -50.6184 C.ar      23 UNK        -0.0193 
     10 C10         0.6604  -16.5028  -51.8948 C.ar      23 UNK        -0.1150 
     11 C11         1.0428  -17.5106  -52.7838 C.ar      23 UNK        -0.0193 
     12 C12         0.9676  -18.8458  -52.3810 C.ar      23 UNK        -0.1150 
     13 C13         0.4899  -19.1792  -51.1109 C.ar      23 UNK        -0.0193 
     14 C14         0.0993  -18.1622  -50.2326 C.ar      23 UNK        -0.1150 
     15 C15         0.3525  -20.6421  -50.7206 C.3       23 UNK        -0.0205 
     16 S16         1.8001  -21.2567  -49.8073 S.3       23 UNK        -0.2404 
     17 C17         1.3011  -20.9294  -48.0840 C.3       23 UNK        -0.0398 
     18 CA          0.7146  -22.1734  -47.3735 C.3       11 UNK         0.1400 
     19 N           0.7083  -22.0060  -45.9201 N.am      11 UNK        -0.5000 
     20 C           0.4333  -22.9720  -45.0341 C.2       10 UNK         0.5000 
     21 O           0.1985  -24.1385  -45.3467 O.2       10 UNK        -0.5000 
     22 CA          0.3580  -22.5521  -43.5547 C.3       10 UNK         0.1400 
     23 CB          1.7618  -22.4514  -42.9403 C.3       10 UNK        -0.1800 
     24 N          -0.3584  -21.2889  -43.3654 N.am      10 UNK        -0.5000 
     25 C          -1.6530  -21.1055  -43.6640 C.2       9 UNK         0.5000 
     26 O          -2.3885  -21.9965  -44.0875 O.2       9 UNK        -0.5000 
     27 CA         -2.2118  -19.6805  -43.5106 C.3       9 UNK         0.1400 
     28 CB         -2.5314  -19.3739  -42.0401 C.3       9 UNK        -0.1800 
     29 N          -1.3107  -18.6595  -44.0439 N.am      9 UNK        -0.5000 
     30 C          -0.9427  -18.5594  -45.3297 C.2       8 UNK         0.5000 
     31 O          -1.3478  -19.3031  -46.2222 O.2       8 UNK        -0.5000 
     32 CA          0.0981  -17.4783  -45.6653 C.3       8 UNK         0.1400 
     33 CB         -0.5516  -16.0890  -45.6754 C.3       8 UNK        -0.1800 
     34 N           1.2235  -17.4843  -44.7319 N.am      8 UNK        -0.5000 
     35 C           2.0481  -18.5221  -44.5321 C.2       7 UNK         0.5000 
     36 O           1.9852  -19.5789  -45.1576 O.2       7 UNK        -0.5000 
     37 CA          3.0813  -18.3753  -43.4045 C.3       7 UNK         0.1400 
     38 CB          4.3173  -17.6071  -43.8935 C.3       7 UNK        -0.1800 
     39 N           2.5084  -17.7117  -42.2334 N.am      7 UNK        -0.5000 
     40 C           1.5855  -18.2648  -41.4328 C.2       6 UNK         0.5000 
     41 O           1.1527  -19.4086  -41.5757 O.2       6 UNK        -0.5000 
     42 CA          1.0222  -17.3719  -40.3122 C.3       6 UNK         0.1400 
     43 CB          1.9668  -17.3570  -39.1013 C.3       6 UNK        -0.1800 
     44 N           0.7822  -15.9991  -40.7607 N.am      6 UNK        -0.5000 
     45 C          -0.1531  -15.6524  -41.6563 C.2       5 UNK         0.5000 
     46 O          -0.9391  -16.4522  -42.1627 O.2       5 UNK        -0.5000 
     47 CA         -0.1899  -14.1749  -42.0902 C.3       5 UNK         0.1400 
     48 CB         -1.1011  -13.3583  -41.1629 C.3       5 UNK        -0.1800 
     49 N           1.1305  -13.5437  -42.1459 N.am      5 UNK        -0.5000 
     50 C           2.1340  -13.9235  -42.9467 C.2       4 UNK         0.5000 
     51 O           2.0735  -14.9032  -43.6915 O.2       4 UNK        -0.5000 
     52 CA          3.4045  -13.0532  -42.9024 C.3       4 UNK         0.1400 
     53 CB          4.5117  -13.5665  -43.8396 C.3       4 UNK        -0.1800 
     54 N           3.1021  -11.6688  -43.2568 N.am      4 UNK        -0.5000 
     55 C           2.6397  -10.7296  -42.4223 C.2       3 UNK         0.5000 
     56 O           2.3832  -10.9402  -41.2361 O.2       3 UNK        -0.5000 
     57 CA          2.3915   -9.3394  -43.0253 C.3       3 UNK         0.1400 
     58 CB          3.7204   -8.6321  -43.3370 C.3       3 UNK        -0.1800 
     59 N           1.6059   -9.4542  -44.2517 N.am      3 UNK        -0.5000 
     60 C           0.2857   -9.2420  -44.3358 C.2       2 UNK         0.5000 
     61 O          -0.4090   -8.8587  -43.3938 O.2       2 UNK        -0.5000 
     62 CA         -0.3789   -9.5019  -45.7031 C.3       2 UNK         0.1400 
     63 CB         -0.4514   -8.2031  -46.5206 C.3       2 UNK        -0.1800 
     64 N           0.3076  -10.5242  -46.4946 N.am      2 UNK        -0.5000 
     65 C           0.3518  -11.8271  -46.1817 C.2       1 UNK         0.5000 
     66 O          -0.2482  -12.3149  -45.2243 O.2       1 UNK        -0.5000 
     67 C          -0.6849  -22.5489  -47.9081 C.2       11 UNK         0.5000 
     68 O          -0.7993  -23.4830  -48.7008 O.2       11 UNK        -0.5000 
     69 N          -1.7299  -21.8485  -47.4439 N.am      12 UNK        -0.5000 
     70 CA         -3.1266  -22.1246  -47.7864 C.3       12 UNK         0.1400 
     71 CB         -4.0283  -21.0184  -47.2210 C.3       12 UNK        -0.1800 
     72 C          -3.5951  -23.5133  -47.3139 C.2       12 UNK         0.5000 
     73 O          -4.2938  -24.1993  -48.0593 O.2       12 UNK        -0.5000 
     74 N          -3.1669  -23.9223  -46.1113 N.am      13 UNK        -0.5000 
     75 CA         -3.4027  -25.2552  -45.5559 C.3       13 UNK         0.1400 
     76 CB         -2.9976  -25.2796  -44.0746 C.3       13 UNK        -0.1800 
     77 C          -2.6786  -26.3643  -46.3421 C.2       13 UNK         0.5000 
     78 O          -3.2634  -27.4255  -46.5580 O.2       13 UNK        -0.5000 
     79 N          -1.4418  -26.0931  -46.7842 N.am      14 UNK        -0.5000 
     80 CA         -0.6494  -26.9827  -47.6369 C.3       14 UNK         0.1400 
     81 CB          0.8039  -26.4881  -47.6960 C.3       14 UNK        -0.1800 
     82 C          -1.2405  -27.1293  -49.0521 C.2       14 UNK         0.5000 
     83 O          -1.2488  -28.2359  -49.5928 O.2       14 UNK        -0.5000 
     84 N          -1.7551  -26.0237  -49.6110 N.am      15 UNK        -0.5000 
     85 CA         -2.5009  -25.9914  -50.8726 C.3       15 UNK         0.1400 
     86 CB         -2.6813  -24.5311  -51.3200 C.3       15 UNK        -0.1800 
     87 C          -3.8678  -26.6998  -50.7787 C.2       15 UNK         0.5000 
     88 O          -4.3698  -27.1862  -51.7926 O.2       15 UNK        -0.5000 
     89 N          -4.4410  -26.7339  -49.5671 N.am      16 UNK        -0.5000 
     90 CA         -5.6832  -27.3757  -49.1216 C.3       16 UNK         0.1400 
     91 CB         -5.6621  -28.8930  -49.3839 C.3       16 UNK        -0.1800 
     92 C          -6.9637  -26.7244  -49.6724 C.2       16 UNK         0.5000 
     93 O          -7.8943  -26.4745  -48.9055 O.2       16 UNK        -0.5000 
     94 N          -6.9864  -26.4419  -50.9792 N.am      17 UNK        -0.5000 
     95 CA         -8.0666  -25.7355  -51.6670 C.3       17 UNK         0.1400 
     96 CB         -7.9460  -25.9987  -53.1759 C.3       17 UNK        -0.1800 
     97 C          -8.0638  -24.2203  -51.3859 C.2       17 UNK         0.5000 
     98 O          -9.1088  -23.5837  -51.5279 O.2       17 UNK        -0.5000 
     99 N          -6.8948  -23.6794  -51.0043 N.am      18 UNK        -0.5000 
    100 CA        -6.6015  -22.2592  -50.7923 C.3       18 UNK         0.1400 
    101 CB        -7.3097  -21.7422  -49.5206 C.3       18 UNK        -0.1800 
    102 C         -6.8796  -21.4332  -52.0691 C.2       18 UNK         0.5000 
    103 O         -6.4508  -21.8536  -53.1458 O.2       18 UNK        -0.5000 
    104 N         -7.5795  -20.2951  -51.9352 N.am      19 UNK        -0.5000 
    105 CA        -7.9717  -19.3649  -53.0013 C.3       19 UNK         0.1400 
    106 CB        -9.0497  -20.0059  -53.9049 C.3       19 UNK        -0.1800 
    107 C         -6.7393  -18.8328  -53.7621 C.2       19 UNK         0.5000 
    108 O         -5.8919  -18.1826  -53.1460 O.2       19 UNK        -0.5000 
    109 N         -6.6235  -19.1482  -55.0591 N.am      20 UNK        -0.5000 
    110 CA        -5.4485  -18.8981  -55.8973 C.3       20 UNK         0.1400 
    111 CB        -5.8790  -18.9241  -57.3747 C.3       20 UNK        -0.1800 
    112 C         -4.3209  -19.9077  -55.5868 C.2       20 UNK         0.5000 
    113 O         -3.9029  -20.6744  -56.4581 O.2       20 UNK        -0.5000 
    114 N         -3.8593  -19.8958  -54.3296 N.am      21 UNK        -0.5000 
    115 CA        -2.9144  -20.8487  -53.7427 C.3       21 UNK         0.1400 
    116 CB        -2.8497  -20.6073  -52.2268 C.3       21 UNK        -0.1800 
    117 C         -1.5065  -20.8260  -54.3720 C.2       21 UNK         0.5000 
    118 O         -0.7456  -21.7735  -54.1737 O.2       21 UNK        -0.5000 
    119 N         -1.1931  -19.7701  -55.1350 N.am      22 UNK        -0.5000 
    120 CA         0.0073  -19.6669  -55.9788 C.3       22 UNK         0.1400 
    121 C          0.0364  -20.6697  -57.1720 C.2       22 UNK         0.5000 
    122 N         -1.0859  -21.2524  -57.5824 N.am      22 UNK        -0.7600 
    123 O          1.0979  -20.9202  -57.7360 O.2       22 UNK        -0.5000 
    124 C124        0.2480  -18.2255  -56.5055 C.3       23 UNK        -0.0398 
    125 S125        0.0653  -16.8907  -55.2729 S.3       23 UNK        -0.2404 
    126 C126        1.5023  -17.1504  -54.1868 C.3       23 UNK        -0.0205 
    127 H127        5.3520  -11.1791  -47.8428 H         1 UNK         0.0600 
    128 H128        4.1943  -11.0564  -49.1712 H         1 UNK         0.0600 
    129 H129        4.4053   -9.7027  -48.0558 H         1 UNK         0.0600 
    130 H130        2.3396  -12.2027  -48.7723 H         1 UNK         0.3000 
    131 H131        1.6753  -13.4747  -46.4096 H         1 UNK         0.0600 
    132 H132       -0.0782  -12.8143  -48.8374 H         1 UNK         0.0800 
    133 H133       -0.5739  -13.9070  -47.5756 H         1 UNK         0.0800 
    134 H134       -0.8485  -14.9843  -50.2367 H         1 UNK         0.0800 
    135 H135       -0.9068  -16.1092  -48.9007 H         1 UNK         0.0800 
    136 H136        0.7135  -15.4679  -52.2030 H         1 UNK         0.1150 
    137 H137        1.2574  -19.6309  -53.0642 H         1 UNK         0.1150 
    138 H138       -0.2889  -18.4113  -49.2557 H         1 UNK         0.1150 
    139 H139       -0.5578  -20.7851  -50.1389 H         1 UNK         0.0800 
    140 H140        0.2328  -21.2543  -51.6155 H         1 UNK         0.0800 
    141 H141        0.6178  -20.0828  -48.0283 H         1 UNK         0.0800 
    142 H142        2.2061  -20.6095  -47.5668 H         1 UNK         0.0800 
    143 H143        1.3754  -23.0176  -47.5818 H         1 UNK         0.0600 
    144 H144        0.9444  -21.0796  -45.5727 H         1 UNK         0.3000 
    145 H145       -0.1908  -23.3286  -43.0179 H         1 UNK         0.0600 
    146 H146        1.7100  -22.2241  -41.8754 H         1 UNK         0.0600 
    147 H147        2.3025  -23.3925  -43.0467 H         1 UNK         0.0600 
    148 H148        2.3576  -21.6742  -43.4187 H         1 UNK         0.0600 
    149 H149        0.1729  -20.5150  -42.9796 H         1 UNK         0.3000 
    150 H150       -3.1434  -19.6278  -44.0775 H         1 UNK         0.0600 
    151 H151       -3.2098  -20.1194  -41.6235 H         1 UNK         0.0600 
    152 H152       -3.0138  -18.4017  -41.9373 H         1 UNK         0.0600 
    153 H153       -1.6316  -19.3663  -41.4244 H         1 UNK         0.0600 
    154 H154       -0.9636  -17.9724  -43.3808 H         1 UNK         0.3000 
    155 H155        0.4943  -17.6806  -46.6626 H         1 UNK         0.0600 
    156 H156       -1.0610  -15.8682  -44.7386 H         1 UNK         0.0600 
    157 H157       -1.2920  -16.0121  -46.4716 H         1 UNK         0.0600 
    158 H158        0.1942  -15.3124  -45.8334 H         1 UNK         0.0600 
    159 H159        1.3896  -16.6281  -44.2101 H         1 UNK         0.3000 
    160 H160        3.4009  -19.3757  -43.1053 H         1 UNK         0.0600 
    161 H161        5.0424  -17.4666  -43.0919 H         1 UNK         0.0600 
    162 H162        4.0525  -16.6266  -44.2880 H         1 UNK         0.0600 
    163 H163        4.8181  -18.1528  -44.6941 H         1 UNK         0.0600 
    164 H164        2.7662  -16.7474  -42.0862 H         1 UNK         0.3000 
    165 H165        0.0681  -17.7985  -39.9950 H         1 UNK         0.0600 
    166 H166        1.5389  -16.7891  -38.2750 H         1 UNK         0.0600 
    167 H167        2.1502  -18.3691  -38.7380 H         1 UNK         0.0600 
    168 H168        2.9336  -16.9161  -39.3471 H         1 UNK         0.0600 
    169 H169        1.3860  -15.2800  -40.3906 H         1 UNK         0.3000 
    170 H170       -0.6116  -14.1390  -43.0963 H         1 UNK         0.0600 
    171 H171       -2.1014  -13.7911  -41.1179 H         1 UNK         0.0600 
    172 H172       -0.7115  -13.3216  -40.1449 H         1 UNK         0.0600 
    173 H173       -1.2072  -12.3334  -41.5197 H         1 UNK         0.0600 
    174 H174        1.2680  -12.7129  -41.5821 H         1 UNK         0.3000 
    175 H175        3.7914  -13.0865  -41.8819 H         1 UNK         0.0600 
    176 H176        4.1692  -13.6328  -44.8732 H         1 UNK         0.0600 
    177 H177        5.3817  -12.9101  -43.8186 H         1 UNK         0.0600 
    178 H178        4.8499  -14.5569  -43.5359 H         1 UNK         0.0600 
    179 H179        3.2421  -11.4267  -44.2361 H         1 UNK         0.3000 
    180 H180        1.8593   -8.7398  -42.2838 H         1 UNK         0.0600 
    181 H181        4.3031   -9.1703  -44.0858 H         1 UNK         0.0600 
    182 H182        4.3358   -8.5452  -42.4407 H         1 UNK         0.0600 
    183 H183        3.5479   -7.6232  -43.7120 H         1 UNK         0.0600 
    184 H184        2.0911   -9.8254  -45.0608 H         1 UNK         0.3000 
    185 H185       -1.3984   -9.8450  -45.5147 H         1 UNK         0.0600 
    186 H186       -0.9811   -7.4244  -45.9701 H         1 UNK         0.0600 
    187 H187        0.5422   -7.8201  -46.7568 H         1 UNK         0.0600 
    188 H188       -0.9852   -8.3562  -47.4587 H         1 UNK         0.0600 
    189 H189        0.8279  -10.2058  -47.2990 H         1 UNK         0.3000 
    190 H190       -1.5622  -21.0573  -46.8263 H         1 UNK         0.3000 
    191 H191       -3.2099  -22.1020  -48.8749 H         1 UNK         0.0600 
    192 H192       -3.9574  -20.9577  -46.1348 H         1 UNK         0.0600 
    193 H193       -5.0738  -21.1983  -47.4723 H         1 UNK         0.0600 
    194 H194       -3.7580  -20.0441  -47.6283 H         1 UNK         0.0600 
    195 H195       -2.6499  -23.2705  -45.5277 H         1 UNK         0.3000 
    196 H196       -4.4746  -25.4551  -45.6150 H         1 UNK         0.0600 
    197 H197       -3.1884  -26.2586  -43.6335 H         1 UNK         0.0600 
    198 H198       -3.5646  -24.5473  -43.4996 H         1 UNK         0.0600 
    199 H199       -1.9383  -25.0601  -43.9416 H         1 UNK         0.0600 
    200 H200       -1.0032  -25.2208  -46.5055 H         1 UNK         0.3000 
    201 H201       -0.6480  -27.9724  -47.1756 H         1 UNK         0.0600 
    202 H202        1.2461  -26.4454  -46.7005 H         1 UNK         0.0600 
    203 H203        0.8763  -25.4938  -48.1363 H         1 UNK         0.0600 
    204 H204        1.4195  -27.1583  -48.2973 H         1 UNK         0.0600 
    205 H205       -1.6192  -25.1336  -49.1377 H         1 UNK         0.3000 
    206 H206       -1.9102  -26.5112  -51.6295 H         1 UNK         0.0600 
    207 H207       -1.7183  -24.0355  -51.4459 H         1 UNK         0.0600 
    208 H208       -3.2025  -24.4748  -52.2765 H         1 UNK         0.0600 
    209 H209       -3.2595  -23.9559  -50.5970 H         1 UNK         0.0600 
    210 H210       -3.9745  -26.2019  -48.8422 H         1 UNK         0.3000 
    211 H211       -5.7056  -27.2346  -48.0398 H         1 UNK         0.0600 
    212 H212       -5.6554  -29.1255  -50.4490 H         1 UNK         0.0600 
    213 H213       -6.5408  -29.3734  -48.9518 H         1 UNK         0.0600 
    214 H214       -4.7836  -29.3555  -48.9334 H         1 UNK         0.0600 
    215 H215       -6.1701  -26.7001  -51.5279 H         1 UNK         0.3000 
    216 H216       -9.0223  -26.1369  -51.3234 H         1 UNK         0.0600 
    217 H217       -8.7509  -25.5074  -53.7242 H         1 UNK         0.0600 
    218 H218       -8.0062  -27.0646  -53.3966 H         1 UNK         0.0600 
    219 H219       -7.0015  -25.6256  -53.5744 H         1 UNK         0.0600 
    220 H220       -6.1056  -24.3030  -50.9273 H         1 UNK         0.3000 
    221 H221       -5.5266  -22.1944  -50.6177 H         1 UNK         0.0600 
    222 H222       -8.3948  -21.7332  -49.6293 H         1 UNK         0.0600 
    223 H223       -7.0711  -22.3723  -48.6633 H         1 UNK         0.0600 
    224 H224       -6.9879  -20.7307  -49.2704 H         1 UNK         0.0600 
    225 H225       -7.8666  -20.0285  -51.0043 H         1 UNK         0.3000 
    226 H226       -8.4230  -18.5006  -52.5120 H         1 UNK         0.0600 
    227 H227       -9.9206  -20.2988  -53.3182 H         1 UNK         0.0600 
    228 H228       -9.3981  -19.3034  -54.6631 H         1 UNK         0.0600 
    229 H229       -8.6870  -20.8986  -54.4156 H         1 UNK         0.0600 
    230 H230       -7.3412  -19.7294  -55.4669 H         1 UNK         0.3000 
    231 H231       -5.0630  -17.8998  -55.6801 H         1 UNK         0.0600 
    232 H232       -6.6413  -18.1713  -57.5762 H         1 UNK         0.0600 
    233 H233       -6.2835  -19.8960  -57.6603 H         1 UNK         0.0600 
    234 H234       -5.0343  -18.7129  -58.0318 H         1 UNK         0.0600 
    235 H235       -4.2916  -19.2372  -53.6897 H         1 UNK         0.3000 
    236 H236       -3.3227  -21.8481  -53.9070 H         1 UNK         0.0600 
    237 H237       -2.2730  -21.3911  -51.7361 H         1 UNK         0.0600 
    238 H238       -2.3844  -19.6490  -51.9920 H         1 UNK         0.0600 
    239 H239       -3.8435  -20.6152  -51.7802 H         1 UNK         0.0600 
    240 H240       -1.8668  -19.0248  -55.2230 H         1 UNK         0.3000 
    241 H241        0.8580  -19.9304  -55.3495 H         1 UNK         0.0600 
    242 H242       -1.0532  -21.8996  -58.3540 H         1 UNK         0.3800 
    243 H243       -1.9747  -21.0499  -57.1377 H         1 UNK         0.3800 
    244 H244        1.2417  -18.1470  -56.9502 H         1 UNK         0.0800 
    245 H245       -0.4553  -18.0027  -57.3102 H         1 UNK         0.0800 
    246 H246        2.1580  -17.9246  -54.5872 H         1 UNK         0.0800 
    247 H247        2.0954  -16.2351  -54.1572 H         1 UNK         0.0800 
@<TRIPOS>BOND
     1    1    2 1    
     2    1  127 1    
     3    1  128 1    
     4    1  129 1    
     5    2    3 2    
     6    2    4 am   BACKBONE|DICT|INTERRES
     7    4    5 1    
     8    4  130 1    
     9    5    6 1    
    10    5   65 1    
    11    5  131 1    
    12    6    7 1    
    13    6  132 1    
    14    6  133 1    
    15    7    8 1    
    16    8    9 1    
    17    8  134 1    
    18    8  135 1    
    19    9   10 ar   
    20    9   14 ar   
    21   10   11 ar   
    22   10  136 1    
    23   11   12 ar   
    24   11  126 1    
    25   12   13 ar   
    26   12  137 1    
    27   13   14 ar   
    28   13   15 1    
    29   14  138 1    
    30   15   16 1    
    31   15  139 1    
    32   15  140 1    
    33   16   17 1    
    34   17   18 1    
    35   17  141 1    
    36   17  142 1    
    37   18   19 1    
    38   18   67 1    
    39   18  143 1    
    40   19   20 am   BACKBONE|DICT|INTERRES
    41   19  144 1    
    42   20   21 2    
    43   20   22 1    
    44   22   23 1    
    45   22   24 1    
    46   22  145 1    
    47   23  146 1    
    48   23  147 1    
    49   23  148 1    
    50   24   25 am   BACKBONE|DICT|INTERRES
    51   24  149 1    
    52   25   26 2    
    53   25   27 1    
    54   27   28 1    
    55   27   29 1    
    56   27  150 1    
    57   28  151 1    
    58   28  152 1    
    59   28  153 1    
    60   29   30 am   BACKBONE|DICT|INTERRES
    61   29  154 1    
    62   30   31 2    
    63   30   32 1    
    64   32   33 1    
    65   32   34 1    
    66   32  155 1    
    67   33  156 1    
    68   33  157 1    
    69   33  158 1    
    70   34   35 am   BACKBONE|DICT|INTERRES
    71   34  159 1    
    72   35   36 2    
    73   35   37 1    
    74   37   38 1    
    75   37   39 1    
    76   37  160 1    
    77   38  161 1    
    78   38  162 1    
    79   38  163 1    
    80   39   40 am   BACKBONE|DICT|INTERRES
    81   39  164 1    
    82   40   41 2    
    83   40   42 1    
    84   42   43 1    
    85   42   44 1    
    86   42  165 1    
    87   43  166 1    
    88   43  167 1    
    89   43  168 1    
    90   44   45 am   BACKBONE|DICT|INTERRES
    91   44  169 1    
    92   45   46 2    
    93   45   47 1    
    94   47   48 1    
    95   47   49 1    
    96   47  170 1    
    97   48  171 1    
    98   48  172 1    
    99   48  173 1    
   100   49   50 am   BACKBONE|DICT|INTERRES
   101   49  174 1    
   102   50   51 2    
   103   50   52 1    
   104   52   53 1    
   105   52   54 1    
   106   52  175 1    
   107   53  176 1    
   108   53  177 1    
   109   53  178 1    
   110   54   55 am   BACKBONE|DICT|INTERRES
   111   54  179 1    
   112   55   56 2    
   113   55   57 1    
   114   57   58 1    
   115   57   59 1    
   116   57  180 1    
   117   58  181 1    
   118   58  182 1    
   119   58  183 1    
   120   59   60 am   BACKBONE|DICT|INTERRES
   121   59  184 1    
   122   60   61 2    
   123   60   62 1    
   124   62   63 1    
   125   62   64 1    
   126   62  185 1    
   127   63  186 1    
   128   63  187 1    
   129   63  188 1    
   130   64   65 am   BACKBONE|DICT|INTERRES
   131   64  189 1    
   132   65   66 2    
   133   67   68 2    
   134   67   69 am   BACKBONE|DICT|INTERRES
   135   69   70 1    
   136   69  190 1    
   137   70   71 1    
   138   70   72 1    
   139   70  191 1    
   140   71  192 1    
   141   71  193 1    
   142   71  194 1    
   143   72   73 2    
   144   72   74 am   BACKBONE|DICT|INTERRES
   145   74   75 1    
   146   74  195 1    
   147   75   76 1    
   148   75   77 1    
   149   75  196 1    
   150   76  197 1    
   151   76  198 1    
   152   76  199 1    
   153   77   78 2    
   154   77   79 am   BACKBONE|DICT|INTERRES
   155   79   80 1    
   156   79  200 1    
   157   80   81 1    
   158   80   82 1    
   159   80  201 1    
   160   81  202 1    
   161   81  203 1    
   162   81  204 1    
   163   82   83 2    
   164   82   84 am   BACKBONE|DICT|INTERRES
   165   84   85 1    
   166   84  205 1    
   167   85   86 1    
   168   85   87 1    
   169   85  206 1    
   170   86  207 1    
   171   86  208 1    
   172   86  209 1    
   173   87   88 2    
   174   87   89 am   BACKBONE|DICT|INTERRES
   175   89   90 1    
   176   89  210 1    
   177   90   91 1    
   178   90   92 1    
   179   90  211 1    
   180   91  212 1    
   181   91  213 1    
   182   91  214 1    
   183   92   93 2    
   184   92   94 am   BACKBONE|DICT|INTERRES
   185   94   95 1    
   186   94  215 1    
   187   95   96 1    
   188   95   97 1    
   189   95  216 1    
   190   96  217 1    
   191   96  218 1    
   192   96  219 1    
   193   97   98 2    
   194   97   99 am   BACKBONE|DICT|INTERRES
   195   99  100 1    
   196   99  220 1    
   197  100  101 1    
   198  100  102 1    
   199  100  221 1    
   200  101  222 1    
   201  101  223 1    
   202  101  224 1    
   203  102  103 2    
   204  102  104 am   BACKBONE|DICT|INTERRES
   205  104  105 1    
   206  104  225 1    
   207  105  106 1    
   208  105  107 1    
   209  105  226 1    
   210  106  227 1    
   211  106  228 1    
   212  106  229 1    
   213  107  108 2    
   214  107  109 am   BACKBONE|DICT|INTERRES
   215  109  110 1    
   216  109  230 1    
   217  110  111 1    
   218  110  112 1    
   219  110  231 1    
   220  111  232 1    
   221  111  233 1    
   222  111  234 1    
   223  112  113 2    
   224  112  114 am   BACKBONE|DICT|INTERRES
   225  114  115 1    
   226  114  235 1    
   227  115  116 1    
   228  115  117 1    
   229  115  236 1    
   230  116  237 1    
   231  116  238 1    
   232  116  239 1    
   233  117  118 2    
   234  117  119 am   BACKBONE|DICT|INTERRES
   235  119  120 1    
   236  119  240 1    
   237  120  121 1    
   238  120  124 1    
   239  120  241 1    
   240  121  122 am   BACKBONE|DICT|INTERRES
   241  121  123 2    
   242  122  242 1    
   243  122  243 1    
   244  124  125 1    
   245  124  244 1    
   246  124  245 1    
   247  125  126 1    
   248  126  246 1    
   249  126  247 1    
@<TRIPOS>SUBSTRUCTURE
     1 UNK         1 GROUP             0       ****    0 ROOT    
