@<TRIPOS>MOLECULE
3R540
247   249    1
SMALL
USER_CHARGES


@<TRIPOS>ATOM
      1 CA         -3.1507  -12.6692  -50.1292 C.3       0 UNK        -0.1800 
      2 C          -1.7892  -12.3259  -49.5462 C.2       0 UNK         0.5000 
      3 O          -1.5833  -11.2046  -49.0822 O.2       0 UNK        -0.5000 
      4 N          -0.8595  -13.2906  -49.5592 N.am      1 UNK        -0.5000 
      5 CA          0.5070  -13.1381  -49.0398 C.3       1 UNK         0.1400 
      6 C6          1.5040  -14.0979  -49.7451 C.3       23 UNK        -0.0398 
      7 S7          1.4585  -15.8457  -49.2039 S.3       23 UNK        -0.2404 
      8 C8          0.6438  -16.6877  -50.5946 C.3       23 UNK        -0.0205 
      9 C9         -0.8551  -16.4311  -50.6476 C.ar      23 UNK        -0.0193 
     10 C10        -1.4458  -15.9901  -51.8339 C.ar      23 UNK        -0.1150 
     11 C11        -2.8316  -15.8271  -51.9220 C.ar      23 UNK        -0.0193 
     12 C12        -3.6235  -16.0822  -50.7978 C.ar      23 UNK        -0.1150 
     13 C13        -3.0426  -16.4891  -49.5923 C.ar      23 UNK        -0.0193 
     14 C14        -1.6586  -16.6711  -49.5279 C.ar      23 UNK        -0.1150 
     15 C15        -3.9108  -16.6973  -48.3587 C.3       23 UNK        -0.0205 
     16 S16        -4.2199  -18.4569  -48.0100 S.3       23 UNK        -0.2404 
     17 C17        -2.9739  -18.8156  -46.7219 C.3       23 UNK        -0.0398 
     18 CA         -2.6130  -20.3188  -46.6654 C.3       11 UNK         0.1400 
     19 N          -1.2821  -20.5502  -46.0942 N.am      11 UNK        -0.5000 
     20 C          -0.6529  -21.7334  -46.1216 C.2       10 UNK         0.5000 
     21 O          -1.1250  -22.7363  -46.6522 O.2       10 UNK        -0.5000 
     22 CA          0.6960  -21.8348  -45.3892 C.3       10 UNK         0.1400 
     23 CB          1.8265  -21.2153  -46.2242 C.3       10 UNK        -0.1800 
     24 N           0.6511  -21.2214  -44.0617 N.am      10 UNK        -0.5000 
     25 C          -0.1144  -21.6657  -43.0539 C.2       9 UNK         0.5000 
     26 O          -0.8038  -22.6828  -43.1200 O.2       9 UNK        -0.5000 
     27 CA         -0.1575  -20.8102  -41.7742 C.3       9 UNK         0.1400 
     28 CB          1.0291  -21.1384  -40.8564 C.3       9 UNK        -0.1800 
     29 N          -0.1894  -19.3728  -42.0504 N.am      9 UNK        -0.5000 
     30 C          -1.1749  -18.7459  -42.7091 C.2       8 UNK         0.5000 
     31 O          -2.1889  -19.3081  -43.1206 O.2       8 UNK        -0.5000 
     32 CA         -0.9660  -17.2546  -43.0220 C.3       8 UNK         0.1400 
     33 CB         -1.2667  -16.3762  -41.7991 C.3       8 UNK        -0.1800 
     34 N           0.3822  -16.9755  -43.5137 N.am      8 UNK        -0.5000 
     35 C           0.8851  -17.4617  -44.6570 C.2       7 UNK         0.5000 
     36 O           0.2305  -18.1267  -45.4602 O.2       7 UNK        -0.5000 
     37 CA          2.3804  -17.2081  -44.9165 C.3       7 UNK         0.1400 
     38 CB          2.6147  -15.8272  -45.5395 C.3       7 UNK        -0.1800 
     39 N           3.1762  -17.3269  -43.6964 N.am      7 UNK        -0.5000 
     40 C           3.4250  -18.4817  -43.0653 C.2       6 UNK         0.5000 
     41 O           3.0411  -19.5780  -43.4707 O.2       6 UNK        -0.5000 
     42 CA          4.1989  -18.3849  -41.7378 C.3       6 UNK         0.1400 
     43 CB          5.7123  -18.3425  -41.9953 C.3       6 UNK        -0.1800 
     44 N           3.8080  -17.2165  -40.9458 N.am      6 UNK        -0.5000 
     45 C           2.6034  -17.0583  -40.3790 C.2       5 UNK         0.5000 
     46 O           1.7069  -17.8985  -40.4386 O.2       5 UNK        -0.5000 
     47 CA          2.3402  -15.7169  -39.6698 C.3       5 UNK         0.1400 
     48 CB          2.8361  -15.7675  -38.2172 C.3       5 UNK        -0.1800 
     49 N           2.9470  -14.5706  -40.3535 N.am      5 UNK        -0.5000 
     50 C           2.6202  -14.1645  -41.5868 C.2       4 UNK         0.5000 
     51 O           1.7918  -14.7385  -42.2986 O.2       4 UNK        -0.5000 
     52 CA          3.3927  -12.9564  -42.1377 C.3       4 UNK         0.1400 
     53 CB          4.6635  -13.4280  -42.8620 C.3       4 UNK        -0.1800 
     54 N           2.5580  -12.2224  -43.0842 N.am      4 UNK        -0.5000 
     55 C           1.7695  -11.1855  -42.7720 C.2       3 UNK         0.5000 
     56 O           1.7368  -10.6563  -41.6603 O.2       3 UNK        -0.5000 
     57 CA          0.8498  -10.6630  -43.8923 C.3       3 UNK         0.1400 
     58 CB          1.5710   -9.6013  -44.7363 C.3       3 UNK        -0.1800 
     59 N           0.4031  -11.7464  -44.7671 N.am      3 UNK        -0.5000 
     60 C          -0.5461  -12.6364  -44.4607 C.2       2 UNK         0.5000 
     61 O          -1.2536  -12.5364  -43.4569 O.2       2 UNK        -0.5000 
     62 CA         -0.7210  -13.8448  -45.4133 C.3       2 UNK         0.1400 
     63 CB         -2.0831  -14.5405  -45.2408 C.3       2 UNK        -0.1800 
     64 N          -0.5322  -13.5788  -46.8440 N.am      2 UNK        -0.5000 
     65 C           0.5839  -13.2175  -47.4948 C.2       1 UNK         0.5000 
     66 O           1.6462  -12.9552  -46.9292 O.2       1 UNK        -0.5000 
     67 C          -3.7049  -21.1571  -45.9586 C.2       11 UNK         0.5000 
     68 O          -4.5670  -21.7251  -46.6306 O.2       11 UNK        -0.5000 
     69 N          -3.6176  -21.2757  -44.6254 N.am      12 UNK        -0.5000 
     70 CA         -4.4888  -22.1228  -43.8070 C.3       12 UNK         0.1400 
     71 CB         -4.2274  -21.8471  -42.3191 C.3       12 UNK        -0.1800 
     72 C          -4.3488  -23.6269  -44.1168 C.2       12 UNK         0.5000 
     73 O          -5.3351  -24.3579  -44.0129 O.2       12 UNK        -0.5000 
     74 N          -3.1535  -24.0620  -44.5399 N.am      13 UNK        -0.5000 
     75 CA         -2.8512  -25.4160  -45.0083 C.3       13 UNK         0.1400 
     76 CB         -1.3423  -25.6805  -44.8575 C.3       13 UNK        -0.1800 
     77 C          -3.3625  -25.6516  -46.4470 C.2       13 UNK         0.5000 
     78 O          -2.5801  -25.9572  -47.3505 O.2       13 UNK        -0.5000 
     79 N          -4.6822  -25.4953  -46.6240 N.am      14 UNK        -0.5000 
     80 CA         -5.4597  -25.7168  -47.8462 C.3       14 UNK         0.1400 
     81 CB         -5.5459  -27.2276  -48.1489 C.3       14 UNK        -0.1800 
     82 C          -4.9480  -24.8977  -49.0477 C.2       14 UNK         0.5000 
     83 O          -4.7578  -25.4537  -50.1300 O.2       14 UNK        -0.5000 
     84 N          -4.7034  -23.5968  -48.8281 N.am      15 UNK        -0.5000 
     85 CA         -4.1556  -22.6399  -49.7960 C.3       15 UNK         0.1400 
     86 CB         -5.1639  -22.3787  -50.9346 C.3       15 UNK        -0.1800 
     87 C          -2.7636  -23.0683  -50.3012 C.2       15 UNK         0.5000 
     88 O          -2.5229  -23.0843  -51.5085 O.2       15 UNK        -0.5000 
     89 N          -1.8872  -23.4509  -49.3610 N.am      16 UNK        -0.5000 
     90 CA         -0.5433  -23.9953  -49.5743 C.3       16 UNK         0.1400 
     91 CB          0.4026  -22.8964  -50.1025 C.3       16 UNK        -0.1800 
     92 C          -0.5683  -25.2645  -50.4493 C.2       16 UNK         0.5000 
     93 O           0.1786  -25.3606  -51.4230 O.2       16 UNK        -0.5000 
     94 N          -1.4740  -26.1928  -50.1050 N.am      17 UNK        -0.5000 
     95 CA         -1.8190  -27.4064  -50.8553 C.3       17 UNK         0.1400 
     96 CB         -0.6637  -28.4273  -50.8024 C.3       17 UNK        -0.1800 
     97 C          -2.2903  -27.0902  -52.2934 C.2       17 UNK         0.5000 
     98 O          -1.8046  -27.6829  -53.2586 O.2       17 UNK        -0.5000 
     99 N          -3.2211  -26.1316  -52.3915 N.am      18 UNK        -0.5000 
    100 CA        -3.8532  -25.5867  -53.5968 C.3       18 UNK         0.1400 
    101 CB        -4.6625  -26.6761  -54.3305 C.3       18 UNK        -0.1800 
    102 C         -2.9083  -24.8142  -54.5444 C.2       18 UNK         0.5000 
    103 O         -3.2984  -24.5330  -55.6793 O.2       18 UNK        -0.5000 
    104 N         -1.7020  -24.4567  -54.0820 N.am      19 UNK        -0.5000 
    105 CA        -0.7422  -23.6501  -54.8374 C.3       19 UNK         0.1400 
    106 CB         0.6615  -23.8128  -54.2385 C.3       19 UNK        -0.1800 
    107 C         -1.1380  -22.1636  -54.8902 C.2       19 UNK         0.5000 
    108 O         -0.9409  -21.5209  -55.9225 O.2       19 UNK        -0.5000 
    109 N         -1.7189  -21.6434  -53.8005 N.am      20 UNK        -0.5000 
    110 CA        -2.2008  -20.2671  -53.6792 C.3       20 UNK         0.1400 
    111 CB        -2.0775  -19.8066  -52.2145 C.3       20 UNK        -0.1800 
    112 C         -3.6320  -20.1347  -54.2366 C.2       20 UNK         0.5000 
    113 O         -4.5411  -19.6980  -53.5293 O.2       20 UNK        -0.5000 
    114 N         -3.8100  -20.5295  -55.5047 N.am      21 UNK        -0.5000 
    115 CA        -5.0536  -20.3617  -56.2585 C.3       21 UNK         0.1400 
    116 CB        -5.0050  -21.2335  -57.5224 C.3       21 UNK        -0.1800 
    117 C         -5.3032  -18.8832  -56.6123 C.2       21 UNK         0.5000 
    118 O         -6.4323  -18.4079  -56.4883 O.2       21 UNK        -0.5000 
    119 N         -4.2261  -18.1868  -57.0048 N.am      22 UNK        -0.5000 
    120 CA        -4.1404  -16.7258  -57.1955 C.3       22 UNK         0.1400 
    121 C         -5.0243  -16.1446  -58.3424 C.2       22 UNK         0.5000 
    122 N         -5.4928  -16.9509  -59.2869 N.am      22 UNK        -0.7600 
    123 O         -5.2640  -14.9413  -58.4019 O.2       22 UNK        -0.5000 
    124 C124       -4.2915  -15.9422  -55.8596 C.3       23 UNK        -0.0398 
    125 S125       -3.1067  -16.5093  -54.5917 S.3       23 UNK        -0.2404 
    126 C126       -3.4713  -15.3660  -53.2252 C.3       23 UNK        -0.0205 
    127 H127       -3.7920  -11.7882  -50.1596 H         1 UNK         0.0600 
    128 H128       -3.6448  -13.4275  -49.5222 H         1 UNK         0.0600 
    129 H129       -3.0475  -13.0450  -51.1465 H         1 UNK         0.0600 
    130 H130       -1.0838  -14.1995  -49.9440 H         1 UNK         0.3000 
    131 H131        0.8333  -12.1271  -49.2935 H         1 UNK         0.0600 
    132 H132        1.3690  -14.0462  -50.8262 H         1 UNK         0.0800 
    133 H133        2.5206  -13.7426  -49.5691 H         1 UNK         0.0800 
    134 H134        1.1302  -16.3984  -51.5275 H         1 UNK         0.0800 
    135 H135        0.8014  -17.7618  -50.4887 H         1 UNK         0.0800 
    136 H136       -0.8328  -15.8015  -52.7042 H         1 UNK         0.1150 
    137 H137       -4.6946  -15.9486  -50.8560 H         1 UNK         0.1150 
    138 H138       -1.1999  -16.9990  -48.6066 H         1 UNK         0.1150 
    139 H139       -3.4533  -16.2153  -47.4956 H         1 UNK         0.0800 
    140 H140       -4.8740  -16.2035  -48.4954 H         1 UNK         0.0800 
    141 H141       -3.3279  -18.4519  -45.7554 H         1 UNK         0.0800 
    142 H142       -2.0797  -18.2357  -46.9474 H         1 UNK         0.0800 
    143 H143       -2.5513  -20.6791  -47.6942 H         1 UNK         0.0600 
    144 H144       -0.8158  -19.7536  -45.6690 H         1 UNK         0.3000 
    145 H145        0.9209  -22.8952  -45.2566 H         1 UNK         0.0600 
    146 H146        2.7910  -21.3331  -45.7300 H         1 UNK         0.0600 
    147 H147        1.8990  -21.6991  -47.1990 H         1 UNK         0.0600 
    148 H148        1.6683  -20.1516  -46.3987 H         1 UNK         0.0600 
    149 H149        1.2464  -20.4145  -43.9078 H         1 UNK         0.3000 
    150 H150       -1.0754  -21.0622  -41.2396 H         1 UNK         0.0600 
    151 H151        1.0538  -22.2019  -40.6159 H         1 UNK         0.0600 
    152 H152        0.9613  -20.5935  -39.9147 H         1 UNK         0.0600 
    153 H153        1.9815  -20.8849  -41.3215 H         1 UNK         0.0600 
    154 H154        0.5876  -18.8245  -41.6920 H         1 UNK         0.3000 
    155 H155       -1.6702  -16.9922  -43.8124 H         1 UNK         0.0600 
    156 H156       -2.2948  -16.5162  -41.4636 H         1 UNK         0.0600 
    157 H157       -1.1396  -15.3184  -42.0311 H         1 UNK         0.0600 
    158 H158       -0.6132  -16.6131  -40.9601 H         1 UNK         0.0600 
    159 H159        0.9686  -16.3824  -42.9339 H         1 UNK         0.3000 
    160 H160        2.7237  -17.9615  -45.6286 H         1 UNK         0.0600 
    161 H161        2.3793  -15.0185  -44.8493 H         1 UNK         0.0600 
    162 H162        1.9889  -15.6934  -46.4191 H         1 UNK         0.0600 
    163 H163        3.6505  -15.7063  -45.8562 H         1 UNK         0.0600 
    164 H164        3.4869  -16.4672  -43.2706 H         1 UNK         0.3000 
    165 H165        3.9762  -19.2817  -41.1558 H         1 UNK         0.0600 
    166 H166        6.2715  -18.3494  -41.0595 H         1 UNK         0.0600 
    167 H167        6.0340  -19.2114  -42.5711 H         1 UNK         0.0600 
    168 H168        6.0030  -17.4521  -42.5541 H         1 UNK         0.0600 
    169 H169        4.4902  -16.4796  -40.8454 H         1 UNK         0.3000 
    170 H170        1.2596  -15.5604  -39.6542 H         1 UNK         0.0600 
    171 H171        2.3839  -16.6021  -37.6795 H         1 UNK         0.0600 
    172 H172        3.9185  -15.8903  -38.1637 H         1 UNK         0.0600 
    173 H173        2.5739  -14.8564  -37.6790 H         1 UNK         0.0600 
    174 H174        3.6461  -14.0572  -39.8359 H         1 UNK         0.3000 
    175 H175        3.6818  -12.3066  -41.3090 H         1 UNK         0.0600 
    176 H176        4.4341  -14.0886  -43.6987 H         1 UNK         0.0600 
    177 H177        5.2287  -12.5814  -43.2522 H         1 UNK         0.0600 
    178 H178        5.3232  -13.9720  -42.1848 H         1 UNK         0.0600 
    179 H179        2.4736  -12.6234  -44.0064 H         1 UNK         0.3000 
    180 H180       -0.0218  -10.1978  -43.4271 H         1 UNK         0.0600 
    181 H181        2.4474  -10.0125  -45.2390 H         1 UNK         0.0600 
    182 H182        1.9073   -8.7706  -44.1144 H         1 UNK         0.0600 
    183 H183        0.9098   -9.1896  -45.4991 H         1 UNK         0.0600 
    184 H184        0.9565  -11.9288  -45.6008 H         1 UNK         0.3000 
    185 H185        0.0448  -14.5591  -45.1133 H         1 UNK         0.0600 
    186 H186       -2.3043  -14.7473  -44.1939 H         1 UNK         0.0600 
    187 H187       -2.8981  -13.9293  -45.6301 H         1 UNK         0.0600 
    188 H188       -2.0957  -15.4972  -45.7617 H         1 UNK         0.0600 
    189 H189       -1.3477  -13.7267  -47.4188 H         1 UNK         0.3000 
    190 H190       -2.9164  -20.7319  -44.1282 H         1 UNK         0.3000 
    191 H191       -5.5206  -21.8401  -44.0254 H         1 UNK         0.0600 
    192 H192       -3.2073  -22.1038  -42.0352 H         1 UNK         0.0600 
    193 H193       -4.3882  -20.7962  -42.0778 H         1 UNK         0.0600 
    194 H194       -4.8995  -22.4318  -41.6899 H         1 UNK         0.0600 
    195 H195       -2.3922  -23.3960  -44.5902 H         1 UNK         0.3000 
    196 H196       -3.3701  -26.1290  -44.3644 H         1 UNK         0.0600 
    197 H197       -1.0976  -26.7070  -45.1325 H         1 UNK         0.0600 
    198 H198       -1.0179  -25.5337  -43.8272 H         1 UNK         0.0600 
    199 H199       -0.7474  -25.0231  -45.4905 H         1 UNK         0.0600 
    200 H200       -5.2138  -25.1981  -45.8113 H         1 UNK         0.3000 
    201 H201       -6.4702  -25.3608  -47.6413 H         1 UNK         0.0600 
    202 H202       -6.2038  -27.4206  -48.9972 H         1 UNK         0.0600 
    203 H203       -5.9468  -27.7778  -47.2977 H         1 UNK         0.0600 
    204 H204       -4.5690  -27.6485  -48.3896 H         1 UNK         0.0600 
    205 H205       -4.8484  -23.2176  -47.8966 H         1 UNK         0.3000 
    206 H206       -4.0150  -21.6969  -49.2684 H         1 UNK         0.0600 
    207 H207       -6.1255  -22.0514  -50.5397 H         1 UNK         0.0600 
    208 H208       -4.8063  -21.5944  -51.6006 H         1 UNK         0.0600 
    209 H209       -5.3362  -23.2662  -51.5427 H         1 UNK         0.0600 
    210 H210       -2.1626  -23.4062  -48.3866 H         1 UNK         0.3000 
    211 H211       -0.1733  -24.3101  -48.5978 H         1 UNK         0.0600 
    212 H212        0.4336  -22.0477  -49.4192 H         1 UNK         0.0600 
    213 H213        1.4218  -23.2709  -50.2022 H         1 UNK         0.0600 
    214 H214        0.0911  -22.5252  -51.0788 H         1 UNK         0.0600 
    215 H215       -2.0226  -26.0249  -49.2654 H         1 UNK         0.3000 
    216 H216       -2.6744  -27.8490  -50.3428 H         1 UNK         0.0600 
    217 H217       -0.9566  -29.3709  -51.2639 H         1 UNK         0.0600 
    218 H218        0.2215  -28.0678  -51.3277 H         1 UNK         0.0600 
    219 H219       -0.3779  -28.6445  -49.7733 H         1 UNK         0.0600 
    220 H220       -3.5789  -25.7400  -51.5218 H         1 UNK         0.3000 
    221 H221       -4.5658  -24.8451  -53.2348 H         1 UNK         0.0600 
    222 H222       -4.0140  -27.4247  -54.7861 H         1 UNK         0.0600 
    223 H223       -5.3414  -27.1885  -53.6488 H         1 UNK         0.0600 
    224 H224       -5.2708  -26.2447  -55.1262 H         1 UNK         0.0600 
    225 H225       -1.4587  -24.6897  -53.1276 H         1 UNK         0.3000 
    226 H226       -0.7110  -24.0240  -55.8630 H         1 UNK         0.0600 
    227 H227        0.9578  -24.8614  -54.2042 H         1 UNK         0.0600 
    228 H228        1.4037  -23.2828  -54.8365 H         1 UNK         0.0600 
    229 H229        0.7153  -23.4159  -53.2249 H         1 UNK         0.0600 
    230 H230       -1.9193  -22.2547  -53.0101 H         1 UNK         0.3000 
    231 H231       -1.5648  -19.6090  -54.2750 H         1 UNK         0.0600 
    232 H232       -2.3626  -18.7594  -52.1142 H         1 UNK         0.0600 
    233 H233       -1.0536  -19.9004  -51.8529 H         1 UNK         0.0600 
    234 H234       -2.7224  -20.3784  -51.5498 H         1 UNK         0.0600 
    235 H235       -3.0103  -20.9024  -56.0021 H         1 UNK         0.3000 
    236 H236       -5.8838  -20.7061  -55.6380 H         1 UNK         0.0600 
    237 H237       -4.8843  -22.2870  -57.2677 H         1 UNK         0.0600 
    238 H238       -5.9285  -21.1412  -58.0954 H         1 UNK         0.0600 
    239 H239       -4.1804  -20.9518  -58.1783 H         1 UNK         0.0600 
    240 H240       -3.3494  -18.6808  -57.0802 H         1 UNK         0.3000 
    241 H241       -3.1217  -16.5503  -57.5429 H         1 UNK         0.0600 
    242 H242       -6.0547  -16.5707  -60.0325 H         1 UNK         0.3800 
    243 H243       -5.3019  -17.9397  -59.2556 H         1 UNK         0.3800 
    244 H244       -4.1258  -14.8753  -56.0183 H         1 UNK         0.0800 
    245 H245       -5.3050  -16.0445  -55.4691 H         1 UNK         0.0800 
    246 H246       -4.5530  -15.2812  -53.1101 H         1 UNK         0.0800 
    247 H247       -3.1032  -14.3708  -53.4775 H         1 UNK         0.0800 
@<TRIPOS>BOND
     1    1    2 1    
     2    1  127 1    
     3    1  128 1    
     4    1  129 1    
     5    2    3 2    
     6    2    4 am   BACKBONE|DICT|INTERRES
     7    4    5 1    
     8    4  130 1    
     9    5    6 1    
    10    5   65 1    
    11    5  131 1    
    12    6    7 1    
    13    6  132 1    
    14    6  133 1    
    15    7    8 1    
    16    8    9 1    
    17    8  134 1    
    18    8  135 1    
    19    9   10 ar   
    20    9   14 ar   
    21   10   11 ar   
    22   10  136 1    
    23   11   12 ar   
    24   11  126 1    
    25   12   13 ar   
    26   12  137 1    
    27   13   14 ar   
    28   13   15 1    
    29   14  138 1    
    30   15   16 1    
    31   15  139 1    
    32   15  140 1    
    33   16   17 1    
    34   17   18 1    
    35   17  141 1    
    36   17  142 1    
    37   18   19 1    
    38   18   67 1    
    39   18  143 1    
    40   19   20 am   BACKBONE|DICT|INTERRES
    41   19  144 1    
    42   20   21 2    
    43   20   22 1    
    44   22   23 1    
    45   22   24 1    
    46   22  145 1    
    47   23  146 1    
    48   23  147 1    
    49   23  148 1    
    50   24   25 am   BACKBONE|DICT|INTERRES
    51   24  149 1    
    52   25   26 2    
    53   25   27 1    
    54   27   28 1    
    55   27   29 1    
    56   27  150 1    
    57   28  151 1    
    58   28  152 1    
    59   28  153 1    
    60   29   30 am   BACKBONE|DICT|INTERRES
    61   29  154 1    
    62   30   31 2    
    63   30   32 1    
    64   32   33 1    
    65   32   34 1    
    66   32  155 1    
    67   33  156 1    
    68   33  157 1    
    69   33  158 1    
    70   34   35 am   BACKBONE|DICT|INTERRES
    71   34  159 1    
    72   35   36 2    
    73   35   37 1    
    74   37   38 1    
    75   37   39 1    
    76   37  160 1    
    77   38  161 1    
    78   38  162 1    
    79   38  163 1    
    80   39   40 am   BACKBONE|DICT|INTERRES
    81   39  164 1    
    82   40   41 2    
    83   40   42 1    
    84   42   43 1    
    85   42   44 1    
    86   42  165 1    
    87   43  166 1    
    88   43  167 1    
    89   43  168 1    
    90   44   45 am   BACKBONE|DICT|INTERRES
    91   44  169 1    
    92   45   46 2    
    93   45   47 1    
    94   47   48 1    
    95   47   49 1    
    96   47  170 1    
    97   48  171 1    
    98   48  172 1    
    99   48  173 1    
   100   49   50 am   BACKBONE|DICT|INTERRES
   101   49  174 1    
   102   50   51 2    
   103   50   52 1    
   104   52   53 1    
   105   52   54 1    
   106   52  175 1    
   107   53  176 1    
   108   53  177 1    
   109   53  178 1    
   110   54   55 am   BACKBONE|DICT|INTERRES
   111   54  179 1    
   112   55   56 2    
   113   55   57 1    
   114   57   58 1    
   115   57   59 1    
   116   57  180 1    
   117   58  181 1    
   118   58  182 1    
   119   58  183 1    
   120   59   60 am   BACKBONE|DICT|INTERRES
   121   59  184 1    
   122   60   61 2    
   123   60   62 1    
   124   62   63 1    
   125   62   64 1    
   126   62  185 1    
   127   63  186 1    
   128   63  187 1    
   129   63  188 1    
   130   64   65 am   BACKBONE|DICT|INTERRES
   131   64  189 1    
   132   65   66 2    
   133   67   68 2    
   134   67   69 am   BACKBONE|DICT|INTERRES
   135   69   70 1    
   136   69  190 1    
   137   70   71 1    
   138   70   72 1    
   139   70  191 1    
   140   71  192 1    
   141   71  193 1    
   142   71  194 1    
   143   72   73 2    
   144   72   74 am   BACKBONE|DICT|INTERRES
   145   74   75 1    
   146   74  195 1    
   147   75   76 1    
   148   75   77 1    
   149   75  196 1    
   150   76  197 1    
   151   76  198 1    
   152   76  199 1    
   153   77   78 2    
   154   77   79 am   BACKBONE|DICT|INTERRES
   155   79   80 1    
   156   79  200 1    
   157   80   81 1    
   158   80   82 1    
   159   80  201 1    
   160   81  202 1    
   161   81  203 1    
   162   81  204 1    
   163   82   83 2    
   164   82   84 am   BACKBONE|DICT|INTERRES
   165   84   85 1    
   166   84  205 1    
   167   85   86 1    
   168   85   87 1    
   169   85  206 1    
   170   86  207 1    
   171   86  208 1    
   172   86  209 1    
   173   87   88 2    
   174   87   89 am   BACKBONE|DICT|INTERRES
   175   89   90 1    
   176   89  210 1    
   177   90   91 1    
   178   90   92 1    
   179   90  211 1    
   180   91  212 1    
   181   91  213 1    
   182   91  214 1    
   183   92   93 2    
   184   92   94 am   BACKBONE|DICT|INTERRES
   185   94   95 1    
   186   94  215 1    
   187   95   96 1    
   188   95   97 1    
   189   95  216 1    
   190   96  217 1    
   191   96  218 1    
   192   96  219 1    
   193   97   98 2    
   194   97   99 am   BACKBONE|DICT|INTERRES
   195   99  100 1    
   196   99  220 1    
   197  100  101 1    
   198  100  102 1    
   199  100  221 1    
   200  101  222 1    
   201  101  223 1    
   202  101  224 1    
   203  102  103 2    
   204  102  104 am   BACKBONE|DICT|INTERRES
   205  104  105 1    
   206  104  225 1    
   207  105  106 1    
   208  105  107 1    
   209  105  226 1    
   210  106  227 1    
   211  106  228 1    
   212  106  229 1    
   213  107  108 2    
   214  107  109 am   BACKBONE|DICT|INTERRES
   215  109  110 1    
   216  109  230 1    
   217  110  111 1    
   218  110  112 1    
   219  110  231 1    
   220  111  232 1    
   221  111  233 1    
   222  111  234 1    
   223  112  113 2    
   224  112  114 am   BACKBONE|DICT|INTERRES
   225  114  115 1    
   226  114  235 1    
   227  115  116 1    
   228  115  117 1    
   229  115  236 1    
   230  116  237 1    
   231  116  238 1    
   232  116  239 1    
   233  117  118 2    
   234  117  119 am   BACKBONE|DICT|INTERRES
   235  119  120 1    
   236  119  240 1    
   237  120  121 1    
   238  120  124 1    
   239  120  241 1    
   240  121  122 am   BACKBONE|DICT|INTERRES
   241  121  123 2    
   242  122  242 1    
   243  122  243 1    
   244  124  125 1    
   245  124  244 1    
   246  124  245 1    
   247  125  126 1    
   248  126  246 1    
   249  126  247 1    
@<TRIPOS>SUBSTRUCTURE
     1 UNK         1 GROUP             0       ****    0 ROOT    
