@<TRIPOS>MOLECULE
3R540
247   249    1
SMALL
USER_CHARGES


@<TRIPOS>ATOM
      1 CA          5.7310  -17.7478  -45.8398 C.3       0 UNK        -0.1800 
      2 C           4.9227  -16.4628  -45.9331 C.2       0 UNK         0.5000 
      3 O           4.2146  -16.1168  -44.9895 O.2       0 UNK        -0.5000 
      4 N           5.0429  -15.7386  -47.0551 N.am      1 UNK        -0.5000 
      5 CA          4.2968  -14.5077  -47.3631 C.3       1 UNK         0.1400 
      6 C6          4.5809  -14.0111  -48.8036 C.3       23 UNK        -0.0398 
      7 S7          3.0961  -13.3057  -49.5974 S.3       23 UNK        -0.2404 
      8 C8          2.8217  -14.4638  -50.9761 C.3       23 UNK        -0.0205 
      9 C9          2.1582  -15.7587  -50.5280 C.ar      23 UNK        -0.0193 
     10 C10         0.7626  -15.8512  -50.4990 C.ar      23 UNK        -0.1150 
     11 C11         0.1349  -17.0485  -50.1428 C.ar      23 UNK        -0.0193 
     12 C12         0.9205  -18.1546  -49.8079 C.ar      23 UNK        -0.1150 
     13 C13         2.3142  -18.0750  -49.8183 C.ar      23 UNK        -0.0193 
     14 C14         2.9299  -16.8740  -50.1821 C.ar      23 UNK        -0.1150 
     15 C15         3.1368  -19.3074  -49.4768 C.3       23 UNK        -0.0205 
     16 S16         3.1152  -19.6771  -47.6894 S.3       23 UNK        -0.2404 
     17 C17         3.1301  -21.5080  -47.7170 C.3       23 UNK        -0.0398 
     18 CA          1.8076  -22.1988  -47.2839 C.3       11 UNK         0.1400 
     19 N           1.6565  -22.2423  -45.8227 N.am      11 UNK        -0.5000 
     20 C           0.7957  -23.0350  -45.1636 C.2       10 UNK         0.5000 
     21 O          -0.0415  -23.7402  -45.7276 O.2       10 UNK        -0.5000 
     22 CA          0.8774  -23.0499  -43.6248 C.3       10 UNK         0.1400 
     23 CB          1.6525  -24.2869  -43.1457 C.3       10 UNK        -0.1800 
     24 N           1.5103  -21.8505  -43.0720 N.am      10 UNK        -0.5000 
     25 C           0.8939  -20.6701  -42.9390 C.2       9 UNK         0.5000 
     26 O          -0.2862  -20.4816  -43.2399 O.2       9 UNK        -0.5000 
     27 CA          1.7611  -19.5176  -42.4096 C.3       9 UNK         0.1400 
     28 CB          2.6645  -18.9830  -43.5338 C.3       9 UNK        -0.1800 
     29 N           0.9140  -18.4365  -41.9007 N.am      9 UNK        -0.5000 
     30 C           0.8906  -18.0125  -40.6281 C.2       8 UNK         0.5000 
     31 O           1.6580  -18.4396  -39.7639 O.2       8 UNK        -0.5000 
     32 CA         -0.1621  -16.9527  -40.2323 C.3       8 UNK         0.1400 
     33 CB          0.4003  -15.8852  -39.2760 C.3       8 UNK        -0.1800 
     34 N          -0.7352  -16.2780  -41.3945 N.am      8 UNK        -0.5000 
     35 C          -1.9819  -16.4490  -41.8526 C.2       7 UNK         0.5000 
     36 O          -2.8239  -17.1621  -41.3052 O.2       7 UNK        -0.5000 
     37 CA         -2.3492  -15.7170  -43.1595 C.3       7 UNK         0.1400 
     38 CB         -3.0727  -14.3996  -42.8476 C.3       7 UNK        -0.1800 
     39 N          -1.1961  -15.4538  -44.0274 N.am      7 UNK        -0.5000 
     40 C          -0.4440  -16.4152  -44.5848 C.2       6 UNK         0.5000 
     41 O          -0.6716  -17.6119  -44.4173 O.2       6 UNK        -0.5000 
     42 CA          0.7950  -16.0084  -45.4048 C.3       6 UNK         0.1400 
     43 CB          0.9629  -16.8816  -46.6612 C.3       6 UNK        -0.1800 
     44 N           0.8784  -14.5838  -45.7276 N.am      6 UNK        -0.5000 
     45 C           0.0896  -13.8630  -46.5369 C.2       5 UNK         0.5000 
     46 O          -0.8416  -14.3259  -47.1965 O.2       5 UNK        -0.5000 
     47 CA          0.3947  -12.3497  -46.5641 C.3       5 UNK         0.1400 
     48 CB         -0.7665  -11.5036  -47.1276 C.3       5 UNK        -0.1800 
     49 N           0.8328  -11.8513  -45.2499 N.am      5 UNK        -0.5000 
     50 C           0.1129  -11.8593  -44.1171 C.2       4 UNK         0.5000 
     51 O          -1.0515  -12.2530  -44.0561 O.2       4 UNK        -0.5000 
     52 CA          0.8418  -11.4003  -42.8380 C.3       4 UNK         0.1400 
     53 CB         -0.0772  -11.3823  -41.5979 C.3       4 UNK        -0.1800 
     54 N           2.0487  -12.1873  -42.5620 N.am      4 UNK        -0.5000 
     55 C           2.1405  -13.5102  -42.3605 C.2       3 UNK         0.5000 
     56 O           1.1856  -14.2868  -42.4298 O.2       3 UNK        -0.5000 
     57 CA          3.5541  -14.0456  -42.0495 C.3       3 UNK         0.1400 
     58 CB          3.5720  -15.5604  -41.7865 C.3       3 UNK        -0.1800 
     59 N           4.4801  -13.7528  -43.1427 N.am      3 UNK        -0.5000 
     60 C           5.1068  -12.5828  -43.3344 C.2       2 UNK         0.5000 
     61 O           4.9694  -11.6149  -42.5847 O.2       2 UNK        -0.5000 
     62 CA          6.0102  -12.4485  -44.5779 C.3       2 UNK         0.1400 
     63 CB          7.4828  -12.6592  -44.1952 C.3       2 UNK        -0.1800 
     64 N           5.6664  -13.3696  -45.6624 N.am      2 UNK        -0.5000 
     65 C           4.5054  -13.3733  -46.3326 C.2       1 UNK         0.5000 
     66 O           3.6080  -12.5544  -46.1335 O.2       1 UNK        -0.5000 
     67 C           0.5614  -21.6626  -48.0291 C.2       11 UNK         0.5000 
     68 O           0.4212  -21.9152  -49.2259 O.2       11 UNK        -0.5000 
     69 N          -0.3286  -20.9612  -47.3096 N.am      12 UNK        -0.5000 
     70 CA         -1.6106  -20.4639  -47.8074 C.3       12 UNK         0.1400 
     71 CB         -2.2054  -19.4785  -46.7935 C.3       12 UNK        -0.1800 
     72 C          -2.6215  -21.5704  -48.1548 C.2       12 UNK         0.5000 
     73 O          -3.5346  -21.3129  -48.9374 O.2       12 UNK        -0.5000 
     74 N          -2.4396  -22.7863  -47.6182 N.am      13 UNK        -0.5000 
     75 CA         -3.2440  -23.9716  -47.9249 C.3       13 UNK         0.1400 
     76 CB         -3.1408  -24.9627  -46.7524 C.3       13 UNK        -0.1800 
     77 C          -2.8481  -24.6055  -49.2775 C.2       13 UNK         0.5000 
     78 O          -2.5551  -25.8015  -49.3417 O.2       13 UNK        -0.5000 
     79 N          -2.8408  -23.7864  -50.3380 N.am      14 UNK        -0.5000 
     80 CA         -2.5194  -24.1445  -51.7194 C.3       14 UNK         0.1400 
     81 CB         -2.6837  -22.9020  -52.6069 C.3       14 UNK        -0.1800 
     82 C          -3.4057  -25.2940  -52.2256 C.2       14 UNK         0.5000 
     83 O          -4.6322  -25.1621  -52.2089 O.2       14 UNK        -0.5000 
     84 N          -2.7742  -26.4188  -52.5905 N.am      15 UNK        -0.5000 
     85 CA         -3.3943  -27.6827  -53.0174 C.3       15 UNK         0.1400 
     86 CB         -4.0846  -27.4970  -54.3853 C.3       15 UNK        -0.1800 
     87 C          -4.3466  -28.3065  -51.9677 C.2       15 UNK         0.5000 
     88 O          -5.2134  -29.1018  -52.3319 O.2       15 UNK        -0.5000 
     89 N          -4.1978  -27.9008  -50.6949 N.am      16 UNK        -0.5000 
     90 CA         -5.0865  -28.1563  -49.5535 C.3       16 UNK         0.1400 
     91 CB         -5.1569  -29.6621  -49.2257 C.3       16 UNK        -0.1800 
     92 C          -6.4889  -27.5152  -49.6900 C.2       16 UNK         0.5000 
     93 O          -7.3693  -27.8149  -48.8820 O.2       16 UNK        -0.5000 
     94 N          -6.6744  -26.6407  -50.6881 N.am      17 UNK        -0.5000 
     95 CA         -7.9290  -25.9575  -51.0012 C.3       17 UNK         0.1400 
     96 CB         -8.2184  -26.1385  -52.5003 C.3       17 UNK        -0.1800 
     97 C          -7.8675  -24.4590  -50.6650 C.2       17 UNK         0.5000 
     98 O          -8.9147  -23.8503  -50.4437 O.2       17 UNK        -0.5000 
     99 N          -6.6563  -23.8820  -50.6775 N.am      18 UNK        -0.5000 
    100 CA        -6.3001  -22.4674  -50.5112 C.3       18 UNK         0.1400 
    101 CB        -6.8065  -21.8824  -49.1799 C.3       18 UNK        -0.1800 
    102 C         -6.7062  -21.5975  -51.7113 C.2       18 UNK         0.5000 
    103 O         -5.8638  -20.8853  -52.2587 O.2       18 UNK        -0.5000 
    104 N         -7.9632  -21.7306  -52.1523 N.am      19 UNK        -0.5000 
    105 CA        -8.5726  -21.0518  -53.3004 C.3       19 UNK         0.1400 
    106 CB       -10.0482  -21.4707  -53.3849 C.3       19 UNK        -0.1800 
    107 C         -7.8657  -21.2993  -54.6506 C.2       19 UNK         0.5000 
    108 O         -8.0883  -20.5427  -55.5960 O.2       19 UNK        -0.5000 
    109 N         -7.0168  -22.3343  -54.7115 N.am      20 UNK        -0.5000 
    110 CA        -6.1726  -22.6885  -55.8503 C.3       20 UNK         0.1400 
    111 CB        -5.5030  -24.0411  -55.5603 C.3       20 UNK        -0.1800 
    112 C         -5.1072  -21.6291  -56.2038 C.2       20 UNK         0.5000 
    113 O         -4.6702  -21.5982  -57.3554 O.2       20 UNK        -0.5000 
    114 N         -4.7045  -20.7893  -55.2370 N.am      21 UNK        -0.5000 
    115 CA        -3.7121  -19.7295  -55.4505 C.3       21 UNK         0.1400 
    116 CB        -2.2894  -20.3026  -55.3186 C.3       21 UNK        -0.1800 
    117 C         -3.8877  -18.5190  -54.5188 C.2       21 UNK         0.5000 
    118 O         -3.5268  -17.4099  -54.9151 O.2       21 UNK        -0.5000 
    119 N         -4.4177  -18.7353  -53.3101 N.am      22 UNK        -0.5000 
    120 CA        -4.5397  -17.7297  -52.2405 C.3       22 UNK         0.1400 
    121 C         -6.0094  -17.2828  -51.9870 C.2       22 UNK         0.5000 
    122 N         -6.9643  -17.6221  -52.8445 N.am      22 UNK        -0.7600 
    123 O         -6.2905  -16.5917  -51.0117 O.2       22 UNK        -0.5000 
    124 C124       -3.8440  -18.2204  -50.9424 C.3       23 UNK        -0.0398 
    125 S125       -2.0449  -18.4425  -51.1748 S.3       23 UNK        -0.2404 
    126 C126       -1.3851  -17.1375  -50.0870 C.3       23 UNK        -0.0205 
    127 H127        5.0863  -18.5727  -45.5373 H         1 UNK         0.0600 
    128 H128        6.5200  -17.6410  -45.0957 H         1 UNK         0.0600 
    129 H129        6.1886  -18.0086  -46.7943 H         1 UNK         0.0600 
    130 H130        5.6607  -16.0710  -47.7812 H         1 UNK         0.3000 
    131 H131        3.2447  -14.7876  -47.2998 H         1 UNK         0.0600 
    132 H132        5.3800  -13.2674  -48.8264 H         1 UNK         0.0800 
    133 H133        4.9462  -14.8285  -49.4243 H         1 UNK         0.0800 
    134 H134        3.7647  -14.6720  -51.4838 H         1 UNK         0.0800 
    135 H135        2.1901  -13.9719  -51.7174 H         1 UNK         0.0800 
    136 H136        0.1656  -14.9883  -50.7583 H         1 UNK         0.1150 
    137 H137        0.4495  -19.0859  -49.5371 H         1 UNK         0.1150 
    138 H138        4.0080  -16.8153  -50.2130 H         1 UNK         0.1150 
    139 H139        2.7313  -20.1465  -50.0438 H         1 UNK         0.0800 
    140 H140        4.1709  -19.1885  -49.8033 H         1 UNK         0.0800 
    141 H141        3.9479  -21.8453  -47.0789 H         1 UNK         0.0800 
    142 H142        3.4028  -21.8511  -48.7158 H         1 UNK         0.0800 
    143 H143        1.8974  -23.2417  -47.5965 H         1 UNK         0.0600 
    144 H144        2.2961  -21.6740  -45.2885 H         1 UNK         0.3000 
    145 H145       -0.1431  -23.1208  -43.2419 H         1 UNK         0.0600 
    146 H146        1.6638  -24.3481  -42.0573 H         1 UNK         0.0600 
    147 H147        1.1923  -25.2040  -43.5160 H         1 UNK         0.0600 
    148 H148        2.6864  -24.2752  -43.4930 H         1 UNK         0.0600 
    149 H149        2.4775  -21.9385  -42.7939 H         1 UNK         0.3000 
    150 H150        2.3969  -19.9190  -41.6181 H         1 UNK         0.0600 
    151 H151        3.2639  -19.7789  -43.9767 H         1 UNK         0.0600 
    152 H152        3.3653  -18.2401  -43.1584 H         1 UNK         0.0600 
    153 H153        2.0856  -18.5299  -44.3370 H         1 UNK         0.0600 
    154 H154        0.2000  -18.1137  -42.5460 H         1 UNK         0.3000 
    155 H155       -0.9380  -17.4958  -39.6897 H         1 UNK         0.0600 
    156 H156        1.1511  -15.2616  -39.7586 H         1 UNK         0.0600 
    157 H157        0.8578  -16.3364  -38.3948 H         1 UNK         0.0600 
    158 H158       -0.3929  -15.2264  -38.9225 H         1 UNK         0.0600 
    159 H159       -0.1120  -15.6518  -41.8995 H         1 UNK         0.3000 
    160 H160       -3.0370  -16.3594  -43.7129 H         1 UNK         0.0600 
    161 H161       -2.4413  -13.7239  -42.2697 H         1 UNK         0.0600 
    162 H162       -3.9776  -14.5793  -42.2659 H         1 UNK         0.0600 
    163 H163       -3.3698  -13.8847  -43.7614 H         1 UNK         0.0600 
    164 H164       -0.9377  -14.4833  -44.1595 H         1 UNK         0.3000 
    165 H165        1.6430  -16.2056  -44.7505 H         1 UNK         0.0600 
    166 H166        0.1247  -16.7608  -47.3447 H         1 UNK         0.0600 
    167 H167        1.8771  -16.6395  -47.2004 H         1 UNK         0.0600 
    168 H168        1.0142  -17.9399  -46.4061 H         1 UNK         0.0600 
    169 H169        1.5836  -14.0743  -45.2143 H         1 UNK         0.3000 
    170 H170        1.2396  -12.2243  -47.2418 H         1 UNK         0.0600 
    171 H171       -0.9840  -11.7824  -48.1592 H         1 UNK         0.0600 
    172 H172       -1.6847  -11.6368  -46.5551 H         1 UNK         0.0600 
    173 H173       -0.5186  -10.4423  -47.1245 H         1 UNK         0.0600 
    174 H174        1.8077  -11.5792  -45.2058 H         1 UNK         0.3000 
    175 H175        1.1701  -10.3759  -43.0196 H         1 UNK         0.0600 
    176 H176       -0.4506  -12.3773  -41.3529 H         1 UNK         0.0600 
    177 H177        0.4490  -10.9990  -40.7238 H         1 UNK         0.0600 
    178 H178       -0.9431  -10.7402  -41.7628 H         1 UNK         0.0600 
    179 H179        2.9158  -11.6622  -42.5155 H         1 UNK         0.3000 
    180 H180        3.9053  -13.5491  -41.1426 H         1 UNK         0.0600 
    181 H181        3.0725  -16.1060  -42.5853 H         1 UNK         0.0600 
    182 H182        3.0637  -15.8043  -40.8555 H         1 UNK         0.0600 
    183 H183        4.5900  -15.9412  -41.7051 H         1 UNK         0.0600 
    184 H184        4.5896  -14.4891  -43.8332 H         1 UNK         0.3000 
    185 H185        5.8955  -11.4304  -44.9556 H         1 UNK         0.0600 
    186 H186        8.1412  -12.4853  -45.0465 H         1 UNK         0.0600 
    187 H187        7.7847  -11.9684  -43.4067 H         1 UNK         0.0600 
    188 H188        7.6625  -13.6717  -43.8313 H         1 UNK         0.0600 
    189 H189        6.3402  -14.0908  -45.8743 H         1 UNK         0.3000 
    190 H190       -0.1308  -20.7985  -46.3326 H         1 UNK         0.3000 
    191 H191       -1.4262  -19.9205  -48.7322 H         1 UNK         0.0600 
    192 H192       -3.1880  -19.1281  -47.1124 H         1 UNK         0.0600 
    193 H193       -1.5708  -18.5994  -46.6930 H         1 UNK         0.0600 
    194 H194       -2.3173  -19.9293  -45.8065 H         1 UNK         0.0600 
    195 H195       -1.6395  -22.9361  -47.0146 H         1 UNK         0.3000 
    196 H196       -4.2908  -23.6731  -48.0085 H         1 UNK         0.0600 
    197 H197       -2.1221  -25.3311  -46.6259 H         1 UNK         0.0600 
    198 H198       -3.4473  -24.4985  -45.8150 H         1 UNK         0.0600 
    199 H199       -3.7862  -25.8274  -46.9118 H         1 UNK         0.0600 
    200 H200       -3.0856  -22.8167  -50.1687 H         1 UNK         0.3000 
    201 H201       -1.4730  -24.4540  -51.7466 H         1 UNK         0.0600 
    202 H202       -3.7118  -22.5399  -52.6111 H         1 UNK         0.0600 
    203 H203       -2.4108  -23.1212  -53.6399 H         1 UNK         0.0600 
    204 H204       -2.0450  -22.0869  -52.2653 H         1 UNK         0.0600 
    205 H205       -1.7656  -26.4391  -52.5272 H         1 UNK         0.3000 
    206 H206       -2.5796  -28.3961  -53.1490 H         1 UNK         0.0600 
    207 H207       -3.4098  -27.0430  -55.1110 H         1 UNK         0.0600 
    208 H208       -4.4045  -28.4545  -54.7977 H         1 UNK         0.0600 
    209 H209       -4.9691  -26.8637  -54.3086 H         1 UNK         0.0600 
    210 H210       -3.4519  -27.2410  -50.4963 H         1 UNK         0.3000 
    211 H211       -4.6188  -27.6611  -48.7016 H         1 UNK         0.0600 
    212 H212       -5.6682  -29.8317  -48.2775 H         1 UNK         0.0600 
    213 H213       -4.1599  -30.0933  -49.1358 H         1 UNK         0.0600 
    214 H214       -5.6982  -30.2209  -49.9892 H         1 UNK         0.0600 
    215 H215       -5.8897  -26.4290  -51.2947 H         1 UNK         0.3000 
    216 H216       -8.7566  -26.3911  -50.4363 H         1 UNK         0.0600 
    217 H217       -7.4238  -25.7174  -53.1182 H         1 UNK         0.0600 
    218 H218       -9.1510  -25.6482  -52.7830 H         1 UNK         0.0600 
    219 H219       -8.3149  -27.1938  -52.7563 H         1 UNK         0.0600 
    220 H220       -5.8858  -24.4623  -50.9964 H         1 UNK         0.3000 
    221 H221       -5.2132  -22.4498  -50.4838 H         1 UNK         0.0600 
    222 H222       -6.4833  -22.4892  -48.3346 H         1 UNK         0.0600 
    223 H223       -7.8935  -21.8091  -49.1461 H         1 UNK         0.0600 
    224 H224       -6.4095  -20.8779  -49.0276 H         1 UNK         0.0600 
    225 H225       -8.5606  -22.3686  -51.6342 H         1 UNK         0.3000 
    226 H226       -8.5312  -19.9793  -53.1058 H         1 UNK         0.0600 
    227 H227      -10.1508  -22.5447  -53.5461 H         1 UNK         0.0600 
    228 H228      -10.5835  -21.2163  -52.4699 H         1 UNK         0.0600 
    229 H229      -10.5549  -20.9640  -54.2074 H         1 UNK         0.0600 
    230 H230       -6.9007  -22.8913  -53.8785 H         1 UNK         0.3000 
    231 H231       -6.8208  -22.8050  -56.7212 H         1 UNK         0.0600 
    232 H232       -4.8470  -23.9846  -54.6915 H         1 UNK         0.0600 
    233 H233       -4.8975  -24.3689  -56.4062 H         1 UNK         0.0600 
    234 H234       -6.2435  -24.8186  -55.3717 H         1 UNK         0.0600 
    235 H235       -5.1236  -20.8639  -54.3190 H         1 UNK         0.3000 
    236 H236       -3.8296  -19.3433  -56.4654 H         1 UNK         0.0600 
    237 H237       -2.1224  -21.1272  -56.0115 H         1 UNK         0.0600 
    238 H238       -1.5409  -19.5398  -55.5365 H         1 UNK         0.0600 
    239 H239       -2.0984  -20.6652  -54.3090 H         1 UNK         0.0600 
    240 H240       -4.7423  -19.6586  -53.0394 H         1 UNK         0.3000 
    241 H241       -4.0308  -16.8132  -52.5434 H         1 UNK         0.0600 
    242 H242       -7.9084  -17.3096  -52.6833 H         1 UNK         0.3800 
    243 H243       -6.7396  -18.1577  -53.6668 H         1 UNK         0.3800 
    244 H244       -4.0090  -17.5218  -50.1208 H         1 UNK         0.0800 
    245 H245       -4.2709  -19.1711  -50.6184 H         1 UNK         0.0800 
    246 H246       -1.8340  -16.1831  -50.3667 H         1 UNK         0.0800 
    247 H247       -1.6896  -17.3340  -49.0582 H         1 UNK         0.0800 
@<TRIPOS>BOND
     1    1    2 1    
     2    1  127 1    
     3    1  128 1    
     4    1  129 1    
     5    2    3 2    
     6    2    4 am   BACKBONE|DICT|INTERRES
     7    4    5 1    
     8    4  130 1    
     9    5    6 1    
    10    5   65 1    
    11    5  131 1    
    12    6    7 1    
    13    6  132 1    
    14    6  133 1    
    15    7    8 1    
    16    8    9 1    
    17    8  134 1    
    18    8  135 1    
    19    9   10 ar   
    20    9   14 ar   
    21   10   11 ar   
    22   10  136 1    
    23   11   12 ar   
    24   11  126 1    
    25   12   13 ar   
    26   12  137 1    
    27   13   14 ar   
    28   13   15 1    
    29   14  138 1    
    30   15   16 1    
    31   15  139 1    
    32   15  140 1    
    33   16   17 1    
    34   17   18 1    
    35   17  141 1    
    36   17  142 1    
    37   18   19 1    
    38   18   67 1    
    39   18  143 1    
    40   19   20 am   BACKBONE|DICT|INTERRES
    41   19  144 1    
    42   20   21 2    
    43   20   22 1    
    44   22   23 1    
    45   22   24 1    
    46   22  145 1    
    47   23  146 1    
    48   23  147 1    
    49   23  148 1    
    50   24   25 am   BACKBONE|DICT|INTERRES
    51   24  149 1    
    52   25   26 2    
    53   25   27 1    
    54   27   28 1    
    55   27   29 1    
    56   27  150 1    
    57   28  151 1    
    58   28  152 1    
    59   28  153 1    
    60   29   30 am   BACKBONE|DICT|INTERRES
    61   29  154 1    
    62   30   31 2    
    63   30   32 1    
    64   32   33 1    
    65   32   34 1    
    66   32  155 1    
    67   33  156 1    
    68   33  157 1    
    69   33  158 1    
    70   34   35 am   BACKBONE|DICT|INTERRES
    71   34  159 1    
    72   35   36 2    
    73   35   37 1    
    74   37   38 1    
    75   37   39 1    
    76   37  160 1    
    77   38  161 1    
    78   38  162 1    
    79   38  163 1    
    80   39   40 am   BACKBONE|DICT|INTERRES
    81   39  164 1    
    82   40   41 2    
    83   40   42 1    
    84   42   43 1    
    85   42   44 1    
    86   42  165 1    
    87   43  166 1    
    88   43  167 1    
    89   43  168 1    
    90   44   45 am   BACKBONE|DICT|INTERRES
    91   44  169 1    
    92   45   46 2    
    93   45   47 1    
    94   47   48 1    
    95   47   49 1    
    96   47  170 1    
    97   48  171 1    
    98   48  172 1    
    99   48  173 1    
   100   49   50 am   BACKBONE|DICT|INTERRES
   101   49  174 1    
   102   50   51 2    
   103   50   52 1    
   104   52   53 1    
   105   52   54 1    
   106   52  175 1    
   107   53  176 1    
   108   53  177 1    
   109   53  178 1    
   110   54   55 am   BACKBONE|DICT|INTERRES
   111   54  179 1    
   112   55   56 2    
   113   55   57 1    
   114   57   58 1    
   115   57   59 1    
   116   57  180 1    
   117   58  181 1    
   118   58  182 1    
   119   58  183 1    
   120   59   60 am   BACKBONE|DICT|INTERRES
   121   59  184 1    
   122   60   61 2    
   123   60   62 1    
   124   62   63 1    
   125   62   64 1    
   126   62  185 1    
   127   63  186 1    
   128   63  187 1    
   129   63  188 1    
   130   64   65 am   BACKBONE|DICT|INTERRES
   131   64  189 1    
   132   65   66 2    
   133   67   68 2    
   134   67   69 am   BACKBONE|DICT|INTERRES
   135   69   70 1    
   136   69  190 1    
   137   70   71 1    
   138   70   72 1    
   139   70  191 1    
   140   71  192 1    
   141   71  193 1    
   142   71  194 1    
   143   72   73 2    
   144   72   74 am   BACKBONE|DICT|INTERRES
   145   74   75 1    
   146   74  195 1    
   147   75   76 1    
   148   75   77 1    
   149   75  196 1    
   150   76  197 1    
   151   76  198 1    
   152   76  199 1    
   153   77   78 2    
   154   77   79 am   BACKBONE|DICT|INTERRES
   155   79   80 1    
   156   79  200 1    
   157   80   81 1    
   158   80   82 1    
   159   80  201 1    
   160   81  202 1    
   161   81  203 1    
   162   81  204 1    
   163   82   83 2    
   164   82   84 am   BACKBONE|DICT|INTERRES
   165   84   85 1    
   166   84  205 1    
   167   85   86 1    
   168   85   87 1    
   169   85  206 1    
   170   86  207 1    
   171   86  208 1    
   172   86  209 1    
   173   87   88 2    
   174   87   89 am   BACKBONE|DICT|INTERRES
   175   89   90 1    
   176   89  210 1    
   177   90   91 1    
   178   90   92 1    
   179   90  211 1    
   180   91  212 1    
   181   91  213 1    
   182   91  214 1    
   183   92   93 2    
   184   92   94 am   BACKBONE|DICT|INTERRES
   185   94   95 1    
   186   94  215 1    
   187   95   96 1    
   188   95   97 1    
   189   95  216 1    
   190   96  217 1    
   191   96  218 1    
   192   96  219 1    
   193   97   98 2    
   194   97   99 am   BACKBONE|DICT|INTERRES
   195   99  100 1    
   196   99  220 1    
   197  100  101 1    
   198  100  102 1    
   199  100  221 1    
   200  101  222 1    
   201  101  223 1    
   202  101  224 1    
   203  102  103 2    
   204  102  104 am   BACKBONE|DICT|INTERRES
   205  104  105 1    
   206  104  225 1    
   207  105  106 1    
   208  105  107 1    
   209  105  226 1    
   210  106  227 1    
   211  106  228 1    
   212  106  229 1    
   213  107  108 2    
   214  107  109 am   BACKBONE|DICT|INTERRES
   215  109  110 1    
   216  109  230 1    
   217  110  111 1    
   218  110  112 1    
   219  110  231 1    
   220  111  232 1    
   221  111  233 1    
   222  111  234 1    
   223  112  113 2    
   224  112  114 am   BACKBONE|DICT|INTERRES
   225  114  115 1    
   226  114  235 1    
   227  115  116 1    
   228  115  117 1    
   229  115  236 1    
   230  116  237 1    
   231  116  238 1    
   232  116  239 1    
   233  117  118 2    
   234  117  119 am   BACKBONE|DICT|INTERRES
   235  119  120 1    
   236  119  240 1    
   237  120  121 1    
   238  120  124 1    
   239  120  241 1    
   240  121  122 am   BACKBONE|DICT|INTERRES
   241  121  123 2    
   242  122  242 1    
   243  122  243 1    
   244  124  125 1    
   245  124  244 1    
   246  124  245 1    
   247  125  126 1    
   248  126  246 1    
   249  126  247 1    
@<TRIPOS>SUBSTRUCTURE
     1 UNK         1 GROUP             0       ****    0 ROOT    
