@<TRIPOS>MOLECULE
3R540
247   249    1
SMALL
USER_CHARGES


@<TRIPOS>ATOM
      1 CA          3.4987  -16.7011  -46.4564 C.3       0 UNK        -0.1800 
      2 C           3.4075  -15.2831  -45.9154 C.2       0 UNK         0.5000 
      3 O           3.9013  -15.0119  -44.8227 O.2       0 UNK        -0.5000 
      4 N           2.7929  -14.3770  -46.6881 N.am      1 UNK        -0.5000 
      5 CA          2.4822  -12.9805  -46.3348 C.3       1 UNK         0.1400 
      6 C6          1.7832  -12.2311  -47.4976 C.3       23 UNK        -0.0398 
      7 S7          0.2925  -13.0849  -48.1115 S.3       23 UNK        -0.2404 
      8 C8          0.9010  -13.8830  -49.6330 C.3       23 UNK        -0.0205 
      9 C9          0.4791  -15.3434  -49.7093 C.ar      23 UNK        -0.0193 
     10 C10        -0.8627  -15.6721  -49.9134 C.ar      23 UNK        -0.1150 
     11 C11        -1.2571  -17.0062  -50.0363 C.ar      23 UNK        -0.0193 
     12 C12        -0.2982  -18.0175  -49.9399 C.ar      23 UNK        -0.1150 
     13 C13         1.0518  -17.7100  -49.7231 C.ar      23 UNK        -0.0193 
     14 C14         1.4281  -16.3665  -49.6136 C.ar      23 UNK        -0.1150 
     15 C15         2.1424  -18.7831  -49.6437 C.3       23 UNK        -0.0205 
     16 S16         1.5792  -20.4868  -49.2945 S.3       23 UNK        -0.2404 
     17 C17         0.9322  -20.3033  -47.5993 C.3       23 UNK        -0.0398 
     18 CA          0.1175  -21.5213  -47.0978 C.3       11 UNK         0.1400 
     19 N          -0.2108  -21.3881  -45.6773 N.am      11 UNK        -0.5000 
     20 C          -0.7864  -22.3295  -44.9170 C.2       10 UNK         0.5000 
     21 O          -1.0444  -23.4658  -45.3121 O.2       10 UNK        -0.5000 
     22 CA         -1.1863  -21.9140  -43.4886 C.3       10 UNK         0.1400 
     23 CB          0.0180  -21.9850  -42.5386 C.3       10 UNK        -0.1800 
     24 N          -1.7796  -20.5755  -43.4390 N.am      10 UNK        -0.5000 
     25 C          -2.9343  -20.2399  -44.0329 C.2       9 UNK         0.5000 
     26 O          -3.6492  -21.0421  -44.6316 O.2       9 UNK        -0.5000 
     27 CA         -3.3365  -18.7542  -43.9989 C.3       9 UNK         0.1400 
     28 CB         -3.9906  -18.3894  -42.6583 C.3       9 UNK        -0.1800 
     29 N          -2.2086  -17.8604  -44.2618 N.am      9 UNK        -0.5000 
     30 C          -1.5304  -17.8151  -45.4174 C.2       8 UNK         0.5000 
     31 O          -1.8189  -18.4901  -46.4043 O.2       8 UNK        -0.5000 
     32 CA         -0.2913  -16.9032  -45.4600 C.3       8 UNK         0.1400 
     33 CB         -0.7044  -15.4436  -45.6781 C.3       8 UNK        -0.1800 
     34 N           0.5250  -17.0135  -44.2486 N.am      8 UNK        -0.5000 
     35 C           1.1403  -18.1368  -43.8514 C.2       7 UNK         0.5000 
     36 O           1.1595  -19.1714  -44.5154 O.2       7 UNK        -0.5000 
     37 CA          1.7848  -18.1304  -42.4545 C.3       7 UNK         0.1400 
     38 CB          3.2155  -17.5769  -42.4918 C.3       7 UNK        -0.1800 
     39 N           0.9838  -17.3757  -41.4921 N.am      7 UNK        -0.5000 
     40 C          -0.1916  -17.7947  -41.0023 C.2       6 UNK         0.5000 
     41 O          -0.6922  -18.8857  -41.2736 O.2       6 UNK        -0.5000 
     42 CA         -0.9526  -16.8125  -40.0922 C.3       6 UNK         0.1400 
     43 CB         -0.4667  -16.9347  -38.6405 C.3       6 UNK        -0.1800 
     44 N          -0.8163  -15.4230  -40.5325 N.am      6 UNK        -0.5000 
     45 C          -1.3232  -14.9349  -41.6742 C.2       5 UNK         0.5000 
     46 O          -2.0270  -15.5925  -42.4389 O.2       5 UNK        -0.5000 
     47 CA         -0.9298  -13.4909  -42.0485 C.3       5 UNK         0.1400 
     48 CB         -1.9462  -12.4894  -41.4816 C.3       5 UNK        -0.1800 
     49 N           0.4161  -13.1357  -41.5859 N.am      5 UNK        -0.5000 
     50 C           1.5384  -13.7171  -42.0288 C.2       4 UNK         0.5000 
     51 O           1.5560  -14.5544  -42.9322 O.2       4 UNK        -0.5000 
     52 CA          2.8230  -13.3856  -41.2590 C.3       4 UNK         0.1400 
     53 CB          2.8399  -14.1810  -39.9345 C.3       4 UNK        -0.1800 
     54 N           4.0017  -13.7111  -42.0619 N.am      4 UNK        -0.5000 
     55 C           5.2603  -13.3837  -41.7348 C.2       3 UNK         0.5000 
     56 O           5.5583  -12.7156  -40.7434 O.2       3 UNK        -0.5000 
     57 CA          6.3784  -13.8635  -42.6716 C.3       3 UNK         0.1400 
     58 CB          6.5132  -15.3955  -42.6517 C.3       3 UNK        -0.1800 
     59 N           6.1345  -13.4027  -44.0337 N.am      3 UNK        -0.5000 
     60 C           6.6012  -12.2537  -44.5418 C.2       2 UNK         0.5000 
     61 O           7.3526  -11.4916  -43.9317 O.2       2 UNK        -0.5000 
     62 CA          6.1644  -11.8841  -45.9739 C.3       2 UNK         0.1400 
     63 CB          7.2424  -12.2972  -46.9878 C.3       2 UNK        -0.1800 
     64 N           4.8907  -12.4868  -46.3668 N.am      2 UNK        -0.5000 
     65 C           3.6964  -12.1551  -45.8569 C.2       1 UNK         0.5000 
     66 O           3.5300  -11.2490  -45.0396 O.2       1 UNK        -0.5000 
     67 C          -1.1478  -21.7912  -47.9423 C.2       11 UNK         0.5000 
     68 O          -1.1646  -22.7547  -48.7068 O.2       11 UNK        -0.5000 
     69 N          -2.2015  -20.9868  -47.7395 N.am      12 UNK        -0.5000 
     70 CA         -3.5077  -21.1441  -48.3830 C.3       12 UNK         0.1400 
     71 CB         -4.4245  -19.9816  -47.9671 C.3       12 UNK        -0.1800 
     72 C          -4.1796  -22.4948  -48.0686 C.2       12 UNK         0.5000 
     73 O          -4.7105  -23.1397  -48.9729 O.2       12 UNK        -0.5000 
     74 N          -4.1231  -22.9075  -46.7937 N.am      13 UNK        -0.5000 
     75 CA         -4.6442  -24.1846  -46.3065 C.3       13 UNK         0.1400 
     76 CB         -4.6069  -24.2043  -44.7710 C.3       13 UNK        -0.1800 
     77 C          -3.9034  -25.4042  -46.8851 C.2       13 UNK         0.5000 
     78 O          -4.5444  -26.4227  -47.1473 O.2       13 UNK        -0.5000 
     79 N          -2.5825  -25.2805  -47.0841 N.am      14 UNK        -0.5000 
     80 CA         -1.7500  -26.2727  -47.7627 C.3       14 UNK         0.1400 
     81 CB         -0.2611  -25.9595  -47.5373 C.3       14 UNK        -0.1800 
     82 C          -2.1064  -26.3617  -49.2576 C.2       14 UNK         0.5000 
     83 O          -2.5837  -27.4095  -49.6940 O.2       14 UNK        -0.5000 
     84 N          -1.9161  -25.2483  -49.9781 N.am      15 UNK        -0.5000 
     85 CA         -2.3501  -24.9699  -51.3485 C.3       15 UNK         0.1400 
     86 CB         -2.0714  -26.1257  -52.3362 C.3       15 UNK        -0.1800 
     87 C          -1.6437  -23.7058  -51.8582 C.2       15 UNK         0.5000 
     88 O          -0.4373  -23.5537  -51.6514 O.2       15 UNK        -0.5000 
     89 N          -2.3865  -22.8630  -52.5792 N.am      16 UNK        -0.5000 
     90 CA         -1.8883  -21.6884  -53.2848 C.3       16 UNK         0.1400 
     91 CB         -1.7846  -20.4892  -52.3302 C.3       16 UNK        -0.1800 
     92 C          -2.8273  -21.4071  -54.4644 C.2       16 UNK         0.5000 
     93 O          -4.0414  -21.5602  -54.3271 O.2       16 UNK        -0.5000 
     94 N          -2.2473  -21.0341  -55.6137 N.am      17 UNK        -0.5000 
     95 CA         -2.9231  -20.8437  -56.9064 C.3       17 UNK         0.1400 
     96 CB         -3.8987  -19.6494  -56.8532 C.3       17 UNK        -0.1800 
     97 C          -3.5779  -22.1390  -57.4433 C.2       17 UNK         0.5000 
     98 O          -4.6286  -22.0832  -58.0845 O.2       17 UNK        -0.5000 
     99 N          -2.9249  -23.2809  -57.1718 N.am      18 UNK        -0.5000 
    100 CA        -3.2958  -24.6451  -57.5721 C.3       18 UNK         0.1400 
    101 CB        -3.2321  -24.8025  -59.1065 C.3       18 UNK        -0.1800 
    102 C         -4.6305  -25.1427  -56.9717 C.2       18 UNK         0.5000 
    103 O         -5.3020  -25.9809  -57.5768 O.2       18 UNK        -0.5000 
    104 N         -4.9830  -24.6425  -55.7830 N.am      19 UNK        -0.5000 
    105 CA        -6.1670  -25.0190  -55.0175 C.3       19 UNK         0.1400 
    106 CB        -7.3678  -24.1787  -55.4898 C.3       19 UNK        -0.1800 
    107 C         -5.8888  -24.7829  -53.5273 C.2       19 UNK         0.5000 
    108 O         -4.9184  -24.1049  -53.1854 O.2       19 UNK        -0.5000 
    109 N         -6.7668  -25.2928  -52.6562 N.am      20 UNK        -0.5000 
    110 CA        -6.7777  -24.9978  -51.2193 C.3       20 UNK         0.1400 
    111 CB        -7.4287  -26.1742  -50.4707 C.3       20 UNK        -0.1800 
    112 C         -7.4834  -23.6495  -50.9548 C.2       20 UNK         0.5000 
    113 O         -8.5062  -23.6003  -50.2683 O.2       20 UNK        -0.5000 
    114 N         -6.9493  -22.5878  -51.5633 N.am      21 UNK        -0.5000 
    115 CA        -7.4582  -21.2240  -51.5438 C.3       21 UNK         0.1400 
    116 CB        -8.6014  -21.0752  -52.5716 C.3       21 UNK        -0.1800 
    117 C         -6.2690  -20.2760  -51.7731 C.2       21 UNK         0.5000 
    118 O         -5.2104  -20.4933  -51.1864 O.2       21 UNK        -0.5000 
    119 N         -6.4441  -19.2477  -52.6064 N.am      22 UNK        -0.5000 
    120 CA        -5.4006  -18.3024  -53.0157 C.3       22 UNK         0.1400 
    121 C         -5.7846  -17.6000  -54.3481 C.2       22 UNK         0.5000 
    122 N         -4.9142  -16.7590  -54.8883 N.am      22 UNK        -0.7600 
    123 O         -6.8664  -17.8020  -54.8979 O.2       22 UNK        -0.5000 
    124 C124       -5.0291  -17.3005  -51.8839 C.3       23 UNK        -0.0398 
    125 S125       -3.2674  -16.8237  -51.9276 S.3       23 UNK        -0.2404 
    126 C126       -2.7185  -17.3504  -50.2746 C.3       23 UNK        -0.0205 
    127 H127        2.5946  -16.9708  -46.9996 H         1 UNK         0.0600 
    128 H128        3.6223  -17.4133  -45.6411 H         1 UNK         0.0600 
    129 H129        4.3525  -16.7970  -47.1266 H         1 UNK         0.0600 
    130 H130        2.3973  -14.6805  -47.5649 H         1 UNK         0.3000 
    131 H131        1.7886  -13.0231  -45.4926 H         1 UNK         0.0600 
    132 H132        1.4677  -11.2405  -47.1646 H         1 UNK         0.0800 
    133 H133        2.4746  -12.0575  -48.3239 H         1 UNK         0.0800 
    134 H134        1.9860  -13.8026  -49.7067 H         1 UNK         0.0800 
    135 H135        0.5010  -13.3473  -50.4951 H         1 UNK         0.0800 
    136 H136       -1.6009  -14.8862  -49.9927 H         1 UNK         0.1150 
    137 H137       -0.6140  -19.0443  -50.0368 H         1 UNK         0.1150 
    138 H138        2.4706  -16.1181  -49.4729 H         1 UNK         0.1150 
    139 H139        2.6739  -18.7930  -50.5959 H         1 UNK         0.0800 
    140 H140        2.8777  -18.5070  -48.8870 H         1 UNK         0.0800 
    141 H141        0.3338  -19.3955  -47.5396 H         1 UNK         0.0800 
    142 H142        1.7888  -20.1407  -46.9440 H         1 UNK         0.0800 
    143 H143        0.7563  -22.4026  -47.1870 H         1 UNK         0.0600 
    144 H144        0.0266  -20.4989  -45.2459 H         1 UNK         0.3000 
    145 H145       -1.9373  -22.6230  -43.1344 H         1 UNK         0.0600 
    146 H146       -0.2712  -21.7419  -41.5161 H         1 UNK         0.0600 
    147 H147        0.4455  -22.9884  -42.5268 H         1 UNK         0.0600 
    148 H148        0.8083  -21.2960  -42.8357 H         1 UNK         0.0600 
    149 H149       -1.2769  -19.8702  -42.9096 H         1 UNK         0.3000 
    150 H150       -4.0746  -18.5940  -44.7875 H         1 UNK         0.0600 
    151 H151       -4.8593  -19.0199  -42.4648 H         1 UNK         0.0600 
    152 H152       -4.3322  -17.3542  -42.6556 H         1 UNK         0.0600 
    153 H153       -3.3017  -18.5158  -41.8235 H         1 UNK         0.0600 
    154 H154       -1.9501  -17.2187  -43.5183 H         1 UNK         0.3000 
    155 H155        0.3235  -17.2110  -46.3073 H         1 UNK         0.0600 
    156 H156       -1.4185  -15.1017  -44.9306 H         1 UNK         0.0600 
    157 H157       -1.1733  -15.3208  -46.6551 H         1 UNK         0.0600 
    158 H158        0.1579  -14.7811  -45.6392 H         1 UNK         0.0600 
    159 H159        0.6219  -16.1797  -43.6787 H         1 UNK         0.3000 
    160 H160        1.8408  -19.1660  -42.1130 H         1 UNK         0.0600 
    161 H161        3.2354  -16.5311  -42.7905 H         1 UNK         0.0600 
    162 H162        3.8316  -18.1319  -43.2001 H         1 UNK         0.0600 
    163 H163        3.6938  -17.6527  -41.5153 H         1 UNK         0.0600 
    164 H164        1.3027  -16.4462  -41.2674 H         1 UNK         0.3000 
    165 H165       -2.0112  -17.0788  -40.1235 H         1 UNK         0.0600 
    166 H166       -1.0477  -16.2957  -37.9752 H         1 UNK         0.0600 
    167 H167       -0.5719  -17.9587  -38.2793 H         1 UNK         0.0600 
    168 H168        0.5836  -16.6575  -38.5406 H         1 UNK         0.0600 
    169 H169       -0.2659  -14.8112  -39.9494 H         1 UNK         0.3000 
    170 H170       -0.9447  -13.4144  -43.1377 H         1 UNK         0.0600 
    171 H171       -2.9545  -12.7188  -41.8290 H         1 UNK         0.0600 
    172 H172       -1.9631  -12.5042  -40.3911 H         1 UNK         0.0600 
    173 H173       -1.7176  -11.4724  -41.8009 H         1 UNK         0.0600 
    174 H174        0.4721  -12.4586  -40.8385 H         1 UNK         0.3000 
    175 H175        2.8283  -12.3144  -41.0479 H         1 UNK         0.0600 
    176 H176        2.9083  -15.2547  -40.1133 H         1 UNK         0.0600 
    177 H177        3.6814  -13.8977  -39.3030 H         1 UNK         0.0600 
    178 H178        1.9383  -14.0014  -39.3480 H         1 UNK         0.0600 
    179 H179        3.8127  -14.2259  -42.9194 H         1 UNK         0.3000 
    180 H180        7.3215  -13.4515  -42.3059 H         1 UNK         0.0600 
    181 H181        5.6208  -15.8928  -43.0294 H         1 UNK         0.0600 
    182 H182        6.6848  -15.7579  -41.6375 H         1 UNK         0.0600 
    183 H183        7.3564  -15.7214  -43.2606 H         1 UNK         0.0600 
    184 H184        5.4586  -13.9417  -44.5673 H         1 UNK         0.3000 
    185 H185        6.0546  -10.7984  -46.0148 H         1 UNK         0.0600 
    186 H186        8.2032  -11.8421  -46.7436 H         1 UNK         0.0600 
    187 H187        7.3861  -13.3784  -47.0040 H         1 UNK         0.0600 
    188 H188        6.9798  -11.9770  -47.9963 H         1 UNK         0.0600 
    189 H189        4.9339  -13.2516  -47.0242 H         1 UNK         0.3000 
    190 H190       -2.0996  -20.1921  -47.1120 H         1 UNK         0.3000 
    191 H191       -3.3436  -21.0935  -49.4607 H         1 UNK         0.0600 
    192 H192       -4.6389  -19.9983  -46.8990 H         1 UNK         0.0600 
    193 H193       -5.3791  -20.0322  -48.4917 H         1 UNK         0.0600 
    194 H194       -3.9767  -19.0162  -48.1962 H         1 UNK         0.0600 
    195 H195       -3.7196  -22.2868  -46.0972 H         1 UNK         0.3000 
    196 H196       -5.6878  -24.2553  -46.6199 H         1 UNK         0.0600 
    197 H197       -5.0132  -25.1386  -44.3819 H         1 UNK         0.0600 
    198 H198       -5.2006  -23.3920  -44.3516 H         1 UNK         0.0600 
    199 H199       -3.5894  -24.1055  -44.3925 H         1 UNK         0.0600 
    200 H200       -2.1231  -24.4264  -46.7865 H         1 UNK         0.3000 
    201 H201       -1.9530  -27.2469  -47.3128 H         1 UNK         0.0600 
    202 H202       -0.0130  -25.9847  -46.4761 H         1 UNK         0.0600 
    203 H203        0.0160  -24.9766  -47.9171 H         1 UNK         0.0600 
    204 H204        0.3707  -26.6944  -48.0373 H         1 UNK         0.0600 
    205 H205       -1.5196  -24.4345  -49.5085 H         1 UNK         0.3000 
    206 H206       -3.4211  -24.7818  -51.2987 H         1 UNK         0.0600 
    207 H207       -1.0454  -26.4857  -52.2546 H         1 UNK         0.0600 
    208 H208       -2.7442  -26.9672  -52.1758 H         1 UNK         0.0600 
    209 H209       -2.2266  -25.8060  -53.3678 H         1 UNK         0.0600 
    210 H210       -3.3642  -23.0864  -52.7639 H         1 UNK         0.3000 
    211 H211       -0.8950  -21.9110  -53.6805 H         1 UNK         0.0600 
    212 H212       -2.7531  -20.2272  -51.9077 H         1 UNK         0.0600 
    213 H213       -1.4004  -19.6071  -52.8434 H         1 UNK         0.0600 
    214 H214       -1.1089  -20.7099  -51.5044 H         1 UNK         0.0600 
    215 H215       -1.2428  -20.9225  -55.6318 H         1 UNK         0.3000 
    216 H216       -2.1399  -20.5888  -57.6218 H         1 UNK         0.0600 
    217 H217       -4.2734  -19.4058  -57.8478 H         1 UNK         0.0600 
    218 H218       -3.4079  -18.7571  -56.4653 H         1 UNK         0.0600 
    219 H219       -4.7638  -19.8583  -56.2235 H         1 UNK         0.0600 
    220 H220       -2.0749  -23.2077  -56.6314 H         1 UNK         0.3000 
    221 H221       -2.5282  -25.2958  -57.1509 H         1 UNK         0.0600 
    222 H222       -4.0202  -24.2377  -59.6051 H         1 UNK         0.0600 
    223 H223       -2.2743  -24.4610  -59.4990 H         1 UNK         0.0600 
    224 H224       -3.3453  -25.8471  -59.3988 H         1 UNK         0.0600 
    225 H225       -4.3879  -23.9666  -55.3194 H         1 UNK         0.3000 
    226 H226       -6.3767  -26.0812  -55.1591 H         1 UNK         0.0600 
    227 H227       -7.5757  -24.3452  -56.5469 H         1 UNK         0.0600 
    228 H228       -8.2734  -24.4333  -54.9385 H         1 UNK         0.0600 
    229 H229       -7.1860  -23.1119  -55.3502 H         1 UNK         0.0600 
    230 H230       -7.5578  -25.8130  -53.0077 H         1 UNK         0.3000 
    231 H231       -5.7529  -24.9067  -50.8548 H         1 UNK         0.0600 
    232 H232       -6.8830  -27.1013  -50.6465 H         1 UNK         0.0600 
    233 H233       -8.4633  -26.3286  -50.7795 H         1 UNK         0.0600 
    234 H234       -7.4268  -25.9982  -49.3941 H         1 UNK         0.0600 
    235 H235       -6.0763  -22.7130  -52.0658 H         1 UNK         0.3000 
    236 H236       -7.8470  -21.0050  -50.5475 H         1 UNK         0.0600 
    237 H237       -8.2512  -21.2484  -53.5902 H         1 UNK         0.0600 
    238 H238       -9.4034  -21.7866  -52.3741 H         1 UNK         0.0600 
    239 H239       -9.0466  -20.0805  -52.5313 H         1 UNK         0.0600 
    240 H240       -7.3188  -19.1410  -53.1033 H         1 UNK         0.3000 
    241 H241       -4.5270  -18.9125  -53.2544 H         1 UNK         0.0600 
    242 H242       -4.0340  -16.5620  -54.4359 H         1 UNK         0.3800 
    243 H243       -5.1490  -16.2917  -55.7498 H         1 UNK         0.3800 
    244 H244       -5.6450  -16.4009  -51.9325 H         1 UNK         0.0800 
    245 H245       -5.2376  -17.7350  -50.9057 H         1 UNK         0.0800 
    246 H246       -2.8805  -18.4246  -50.1761 H         1 UNK         0.0800 
    247 H247       -3.3296  -16.8666  -49.5113 H         1 UNK         0.0800 
@<TRIPOS>BOND
     1    1    2 1    
     2    1  127 1    
     3    1  128 1    
     4    1  129 1    
     5    2    3 2    
     6    2    4 am   BACKBONE|DICT|INTERRES
     7    4    5 1    
     8    4  130 1    
     9    5    6 1    
    10    5   65 1    
    11    5  131 1    
    12    6    7 1    
    13    6  132 1    
    14    6  133 1    
    15    7    8 1    
    16    8    9 1    
    17    8  134 1    
    18    8  135 1    
    19    9   10 ar   
    20    9   14 ar   
    21   10   11 ar   
    22   10  136 1    
    23   11   12 ar   
    24   11  126 1    
    25   12   13 ar   
    26   12  137 1    
    27   13   14 ar   
    28   13   15 1    
    29   14  138 1    
    30   15   16 1    
    31   15  139 1    
    32   15  140 1    
    33   16   17 1    
    34   17   18 1    
    35   17  141 1    
    36   17  142 1    
    37   18   19 1    
    38   18   67 1    
    39   18  143 1    
    40   19   20 am   BACKBONE|DICT|INTERRES
    41   19  144 1    
    42   20   21 2    
    43   20   22 1    
    44   22   23 1    
    45   22   24 1    
    46   22  145 1    
    47   23  146 1    
    48   23  147 1    
    49   23  148 1    
    50   24   25 am   BACKBONE|DICT|INTERRES
    51   24  149 1    
    52   25   26 2    
    53   25   27 1    
    54   27   28 1    
    55   27   29 1    
    56   27  150 1    
    57   28  151 1    
    58   28  152 1    
    59   28  153 1    
    60   29   30 am   BACKBONE|DICT|INTERRES
    61   29  154 1    
    62   30   31 2    
    63   30   32 1    
    64   32   33 1    
    65   32   34 1    
    66   32  155 1    
    67   33  156 1    
    68   33  157 1    
    69   33  158 1    
    70   34   35 am   BACKBONE|DICT|INTERRES
    71   34  159 1    
    72   35   36 2    
    73   35   37 1    
    74   37   38 1    
    75   37   39 1    
    76   37  160 1    
    77   38  161 1    
    78   38  162 1    
    79   38  163 1    
    80   39   40 am   BACKBONE|DICT|INTERRES
    81   39  164 1    
    82   40   41 2    
    83   40   42 1    
    84   42   43 1    
    85   42   44 1    
    86   42  165 1    
    87   43  166 1    
    88   43  167 1    
    89   43  168 1    
    90   44   45 am   BACKBONE|DICT|INTERRES
    91   44  169 1    
    92   45   46 2    
    93   45   47 1    
    94   47   48 1    
    95   47   49 1    
    96   47  170 1    
    97   48  171 1    
    98   48  172 1    
    99   48  173 1    
   100   49   50 am   BACKBONE|DICT|INTERRES
   101   49  174 1    
   102   50   51 2    
   103   50   52 1    
   104   52   53 1    
   105   52   54 1    
   106   52  175 1    
   107   53  176 1    
   108   53  177 1    
   109   53  178 1    
   110   54   55 am   BACKBONE|DICT|INTERRES
   111   54  179 1    
   112   55   56 2    
   113   55   57 1    
   114   57   58 1    
   115   57   59 1    
   116   57  180 1    
   117   58  181 1    
   118   58  182 1    
   119   58  183 1    
   120   59   60 am   BACKBONE|DICT|INTERRES
   121   59  184 1    
   122   60   61 2    
   123   60   62 1    
   124   62   63 1    
   125   62   64 1    
   126   62  185 1    
   127   63  186 1    
   128   63  187 1    
   129   63  188 1    
   130   64   65 am   BACKBONE|DICT|INTERRES
   131   64  189 1    
   132   65   66 2    
   133   67   68 2    
   134   67   69 am   BACKBONE|DICT|INTERRES
   135   69   70 1    
   136   69  190 1    
   137   70   71 1    
   138   70   72 1    
   139   70  191 1    
   140   71  192 1    
   141   71  193 1    
   142   71  194 1    
   143   72   73 2    
   144   72   74 am   BACKBONE|DICT|INTERRES
   145   74   75 1    
   146   74  195 1    
   147   75   76 1    
   148   75   77 1    
   149   75  196 1    
   150   76  197 1    
   151   76  198 1    
   152   76  199 1    
   153   77   78 2    
   154   77   79 am   BACKBONE|DICT|INTERRES
   155   79   80 1    
   156   79  200 1    
   157   80   81 1    
   158   80   82 1    
   159   80  201 1    
   160   81  202 1    
   161   81  203 1    
   162   81  204 1    
   163   82   83 2    
   164   82   84 am   BACKBONE|DICT|INTERRES
   165   84   85 1    
   166   84  205 1    
   167   85   86 1    
   168   85   87 1    
   169   85  206 1    
   170   86  207 1    
   171   86  208 1    
   172   86  209 1    
   173   87   88 2    
   174   87   89 am   BACKBONE|DICT|INTERRES
   175   89   90 1    
   176   89  210 1    
   177   90   91 1    
   178   90   92 1    
   179   90  211 1    
   180   91  212 1    
   181   91  213 1    
   182   91  214 1    
   183   92   93 2    
   184   92   94 am   BACKBONE|DICT|INTERRES
   185   94   95 1    
   186   94  215 1    
   187   95   96 1    
   188   95   97 1    
   189   95  216 1    
   190   96  217 1    
   191   96  218 1    
   192   96  219 1    
   193   97   98 2    
   194   97   99 am   BACKBONE|DICT|INTERRES
   195   99  100 1    
   196   99  220 1    
   197  100  101 1    
   198  100  102 1    
   199  100  221 1    
   200  101  222 1    
   201  101  223 1    
   202  101  224 1    
   203  102  103 2    
   204  102  104 am   BACKBONE|DICT|INTERRES
   205  104  105 1    
   206  104  225 1    
   207  105  106 1    
   208  105  107 1    
   209  105  226 1    
   210  106  227 1    
   211  106  228 1    
   212  106  229 1    
   213  107  108 2    
   214  107  109 am   BACKBONE|DICT|INTERRES
   215  109  110 1    
   216  109  230 1    
   217  110  111 1    
   218  110  112 1    
   219  110  231 1    
   220  111  232 1    
   221  111  233 1    
   222  111  234 1    
   223  112  113 2    
   224  112  114 am   BACKBONE|DICT|INTERRES
   225  114  115 1    
   226  114  235 1    
   227  115  116 1    
   228  115  117 1    
   229  115  236 1    
   230  116  237 1    
   231  116  238 1    
   232  116  239 1    
   233  117  118 2    
   234  117  119 am   BACKBONE|DICT|INTERRES
   235  119  120 1    
   236  119  240 1    
   237  120  121 1    
   238  120  124 1    
   239  120  241 1    
   240  121  122 am   BACKBONE|DICT|INTERRES
   241  121  123 2    
   242  122  242 1    
   243  122  243 1    
   244  124  125 1    
   245  124  244 1    
   246  124  245 1    
   247  125  126 1    
   248  126  246 1    
   249  126  247 1    
@<TRIPOS>SUBSTRUCTURE
     1 UNK         1 GROUP             0       ****    0 ROOT    
