@<TRIPOS>MOLECULE
3R540
247   249    1
SMALL
USER_CHARGES


@<TRIPOS>ATOM
      1 CA          2.5498  -13.6898  -43.1385 C.3       0 UNK        -0.1800 
      2 C           3.5023  -13.8106  -44.3176 C.2       0 UNK         0.5000 
      3 O           4.7106  -13.6573  -44.1384 O.2       0 UNK        -0.5000 
      4 N           2.9579  -14.0657  -45.5165 N.am      1 UNK        -0.5000 
      5 CA          3.6673  -14.0870  -46.8068 C.3       1 UNK         0.1400 
      6 C6          4.6769  -15.2675  -46.9417 C.3       23 UNK        -0.0398 
      7 S7          3.8369  -16.8526  -47.2776 S.3       23 UNK        -0.2404 
      8 C8          4.3853  -17.1730  -48.9860 C.3       23 UNK        -0.0205 
      9 C9          3.4434  -18.1067  -49.7317 C.ar      23 UNK        -0.0193 
     10 C10         2.4442  -17.5747  -50.5515 C.ar      23 UNK        -0.1150 
     11 C11         1.6023  -18.4163  -51.2823 C.ar      23 UNK        -0.0193 
     12 C12         1.7503  -19.8007  -51.1708 C.ar      23 UNK        -0.1150 
     13 C13         2.7383  -20.3518  -50.3496 C.ar      23 UNK        -0.0193 
     14 C14         3.5916  -19.4948  -49.6406 C.ar      23 UNK        -0.1150 
     15 C15         2.8696  -21.8731  -50.2691 C.3       23 UNK        -0.0205 
     16 S16         3.2491  -22.5236  -48.6059 S.3       23 UNK        -0.2404 
     17 C17         1.9162  -21.7882  -47.6029 C.3       23 UNK        -0.0398 
     18 CA          0.8385  -22.7878  -47.1275 C.3       11 UNK         0.1400 
     19 N           0.0370  -22.2056  -46.0510 N.am      11 UNK        -0.5000 
     20 C          -0.8751  -22.8507  -45.3144 C.2       10 UNK         0.5000 
     21 O          -1.1129  -24.0531  -45.4235 O.2       10 UNK        -0.5000 
     22 CA         -1.6939  -21.9920  -44.3308 C.3       10 UNK         0.1400 
     23 CB         -0.9017  -21.7192  -43.0439 C.3       10 UNK        -0.1800 
     24 N          -2.1188  -20.7222  -44.9252 N.am      10 UNK        -0.5000 
     25 C          -2.9762  -20.6220  -45.9516 C.2       9 UNK         0.5000 
     26 O          -3.5546  -21.5850  -46.4531 O.2       9 UNK        -0.5000 
     27 CA         -3.1838  -19.2224  -46.5529 C.3       9 UNK         0.1400 
     28 CB         -4.2545  -18.4332  -45.7854 C.3       9 UNK        -0.1800 
     29 N          -1.9420  -18.4529  -46.6080 N.am      9 UNK        -0.5000 
     30 C          -0.9191  -18.7380  -47.4273 C.2       8 UNK         0.5000 
     31 O          -0.9153  -19.6845  -48.2117 O.2       8 UNK        -0.5000 
     32 CA          0.3370  -17.8611  -47.2911 C.3       8 UNK         0.1400 
     33 CB          0.1505  -16.5297  -48.0334 C.3       8 UNK        -0.1800 
     34 N           0.6777  -17.5958  -45.8927 N.am      8 UNK        -0.5000 
     35 C           1.0354  -18.5331  -45.0033 C.2       7 UNK         0.5000 
     36 O           1.1422  -19.7258  -45.2756 O.2       7 UNK        -0.5000 
     37 CA          1.2518  -18.0807  -43.5474 C.3       7 UNK         0.1400 
     38 CB          2.7128  -17.6582  -43.3351 C.3       7 UNK        -0.1800 
     39 N           0.3687  -16.9863  -43.1459 N.am      7 UNK        -0.5000 
     40 C          -0.9702  -17.0042  -43.1973 C.2       6 UNK         0.5000 
     41 O          -1.6307  -17.9948  -43.5140 O.2       6 UNK        -0.5000 
     42 CA         -1.6878  -15.6727  -42.9029 C.3       6 UNK         0.1400 
     43 CB         -0.9873  -14.8338  -41.8148 C.3       6 UNK        -0.1800 
     44 N          -1.9148  -14.8545  -44.1019 N.am      6 UNK        -0.5000 
     45 C          -1.0411  -14.4998  -45.0592 C.2       5 UNK         0.5000 
     46 O           0.1321  -14.8699  -45.1146 O.2       5 UNK        -0.5000 
     47 CA         -1.5623  -13.5229  -46.1251 C.3       5 UNK         0.1400 
     48 CB         -2.9752  -13.8819  -46.6197 C.3       5 UNK        -0.1800 
     49 N          -1.5560  -12.1627  -45.5929 N.am      5 UNK        -0.5000 
     50 C          -0.4533  -11.4284  -45.4012 C.2       4 UNK         0.5000 
     51 O           0.6824  -11.7743  -45.7442 O.2       4 UNK        -0.5000 
     52 CA         -0.6508  -10.0978  -44.6582 C.3       4 UNK         0.1400 
     53 CB         -0.3716  -10.2865  -43.1587 C.3       4 UNK        -0.1800 
     54 N           0.2746   -9.1053  -45.1907 N.am      4 UNK        -0.5000 
     55 C           0.0083   -8.2748  -46.2070 C.2       3 UNK         0.5000 
     56 O          -1.1125   -8.1161  -46.6926 O.2       3 UNK        -0.5000 
     57 CA          1.2148   -7.5214  -46.8030 C.3       3 UNK         0.1400 
     58 CB          1.4208   -6.1751  -46.0921 C.3       3 UNK        -0.1800 
     59 N           2.4500   -8.3072  -46.7206 N.am      3 UNK        -0.5000 
     60 C           2.6771   -9.4325  -47.4134 C.2       2 UNK         0.5000 
     61 O           1.9255   -9.8471  -48.2983 O.2       2 UNK        -0.5000 
     62 CA          3.9299  -10.2471  -47.0530 C.3       2 UNK         0.1400 
     63 CB          4.6891   -9.7443  -45.8056 C.3       2 UNK        -0.1800 
     64 N           3.5284  -11.6361  -46.8531 N.am      2 UNK        -0.5000 
     65 C           4.2899  -12.7035  -47.1226 C.2       1 UNK         0.5000 
     66 O           5.4297  -12.6180  -47.5851 O.2       1 UNK        -0.5000 
     67 C          -0.0493  -23.2945  -48.2839 C.2       11 UNK         0.5000 
     68 O           0.1337  -24.4234  -48.7362 O.2       11 UNK        -0.5000 
     69 N          -1.0361  -22.4891  -48.7014 N.am      12 UNK        -0.5000 
     70 CA         -2.0300  -22.8596  -49.7092 C.3       12 UNK         0.1400 
     71 CB         -2.8436  -21.6233  -50.1084 C.3       12 UNK        -0.1800 
     72 C          -2.9666  -23.9953  -49.2556 C.2       12 UNK         0.5000 
     73 O          -3.4291  -24.7678  -50.0940 O.2       12 UNK        -0.5000 
     74 N          -3.2594  -24.0813  -47.9515 N.am      13 UNK        -0.5000 
     75 CA         -4.0244  -25.1796  -47.3612 C.3       13 UNK         0.1400 
     76 CB         -4.5153  -24.7917  -45.9595 C.3       13 UNK        -0.1800 
     77 C          -3.2128  -26.4875  -47.3345 C.2       13 UNK         0.5000 
     78 O          -3.7558  -27.5442  -47.6565 O.2       13 UNK        -0.5000 
     79 N          -1.9175  -26.3923  -47.0028 N.am      14 UNK        -0.5000 
     80 CA         -0.9659  -27.5040  -47.0641 C.3       14 UNK         0.1400 
     81 CB          0.3577  -27.0873  -46.4053 C.3       14 UNK        -0.1800 
     82 C          -0.7349  -28.0065  -48.5033 C.2       14 UNK         0.5000 
     83 O          -0.6282  -29.2152  -48.7176 O.2       14 UNK        -0.5000 
     84 N          -0.7087  -27.0786  -49.4693 N.am      15 UNK        -0.5000 
     85 CA         -0.6098  -27.3275  -50.9075 C.3       15 UNK         0.1400 
     86 CB         -0.1211  -26.0451  -51.6032 C.3       15 UNK        -0.1800 
     87 C          -1.9328  -27.8563  -51.5047 C.2       15 UNK         0.5000 
     88 O          -2.5436  -27.2000  -52.3501 O.2       15 UNK        -0.5000 
     89 N          -2.3380  -29.0508  -51.0543 N.am      16 UNK        -0.5000 
     90 CA         -3.4717  -29.8489  -51.5324 C.3       16 UNK         0.1400 
     91 CB         -3.2190  -30.3333  -52.9762 C.3       16 UNK        -0.1800 
     92 C          -4.8463  -29.1672  -51.3581 C.2       16 UNK         0.5000 
     93 O          -5.7266  -29.3394  -52.2035 O.2       16 UNK        -0.5000 
     94 N          -5.0155  -28.4365  -50.2457 N.am      17 UNK        -0.5000 
     95 CA         -6.2597  -27.8054  -49.7926 C.3       17 UNK         0.1400 
     96 CB         -7.2984  -28.8775  -49.3989 C.3       17 UNK        -0.1800 
     97 C          -6.8226  -26.7445  -50.7606 C.2       17 UNK         0.5000 
     98 O          -8.0423  -26.6300  -50.8976 O.2       17 UNK        -0.5000 
     99 N          -5.9357  -25.9653  -51.3982 N.am      18 UNK        -0.5000 
    100 CA        -6.3182  -24.8068  -52.2104 C.3       18 UNK         0.1400 
    101 CB        -5.1266  -24.3459  -53.0650 C.3       18 UNK        -0.1800 
    102 C         -6.8489  -23.6639  -51.3247 C.2       18 UNK         0.5000 
    103 O         -7.8981  -23.0943  -51.6239 O.2       18 UNK        -0.5000 
    104 N         -6.1227  -23.3979  -50.2274 N.am      19 UNK        -0.5000 
    105 CA        -6.4707  -22.5268  -49.0944 C.3       19 UNK         0.1400 
    106 CB        -7.6068  -23.1708  -48.2749 C.3       19 UNK        -0.1800 
    107 C         -6.7617  -21.0484  -49.4443 C.2       19 UNK         0.5000 
    108 O         -7.3852  -20.3454  -48.6468 O.2       19 UNK        -0.5000 
    109 N         -6.3015  -20.5914  -50.6156 N.am      20 UNK        -0.5000 
    110 CA        -6.3977  -19.2046  -51.0692 C.3       20 UNK         0.1400 
    111 CB        -6.0751  -19.1574  -52.5710 C.3       20 UNK        -0.1800 
    112 C         -5.4357  -18.2918  -50.2888 C.2       20 UNK         0.5000 
    113 O         -4.3804  -18.7520  -49.8563 O.2       20 UNK        -0.5000 
    114 N         -5.7911  -17.0067  -50.1569 N.am      21 UNK        -0.5000 
    115 CA        -4.9561  -15.9916  -49.5031 C.3       21 UNK         0.1400 
    116 CB        -5.7745  -14.7050  -49.3173 C.3       21 UNK        -0.1800 
    117 C         -3.6474  -15.7010  -50.2653 C.2       21 UNK         0.5000 
    118 O         -2.6388  -15.4009  -49.6290 O.2       21 UNK        -0.5000 
    119 N         -3.7165  -15.8045  -51.6009 N.am      22 UNK        -0.5000 
    120 CA        -2.6580  -15.8001  -52.6330 C.3       22 UNK         0.1400 
    121 C         -1.5500  -14.6999  -52.6141 C.2       22 UNK         0.5000 
    122 N         -1.3918  -13.9134  -51.5622 N.am      22 UNK        -0.7600 
    123 O         -0.8420  -14.5327  -53.6037 O.2       22 UNK        -0.5000 
    124 C124       -2.0891  -17.2213  -52.8983 C.3       23 UNK        -0.0398 
    125 S125       -1.1143  -17.9394  -51.5313 S.3       23 UNK        -0.2404 
    126 C126        0.5613  -17.8349  -52.2253 C.3       23 UNK        -0.0205 
    127 H127        2.9366  -12.9781  -42.4090 H         1 UNK         0.0600 
    128 H128        1.5726  -13.3321  -43.4618 H         1 UNK         0.0600 
    129 H129        2.4310  -14.6539  -42.6460 H         1 UNK         0.0600 
    130 H130        1.9502  -14.1853  -45.5675 H         1 UNK         0.3000 
    131 H131        2.8986  -14.2193  -47.5696 H         1 UNK         0.0600 
    132 H132        5.3933  -15.0946  -47.7453 H         1 UNK         0.0800 
    133 H133        5.2808  -15.3756  -46.0408 H         1 UNK         0.0800 
    134 H134        4.4591  -16.2312  -49.5320 H         1 UNK         0.0800 
    135 H135        5.3918  -17.5937  -48.9664 H         1 UNK         0.0800 
    136 H136        2.3322  -16.5027  -50.6339 H         1 UNK         0.1150 
    137 H137        1.0936  -20.4491  -51.7340 H         1 UNK         0.1150 
    138 H138        4.3708  -19.9055  -49.0142 H         1 UNK         0.1150 
    139 H139        1.9507  -22.3505  -50.6138 H         1 UNK         0.0800 
    140 H140        3.6561  -22.1897  -50.9549 H         1 UNK         0.0800 
    141 H141        1.4568  -20.9435  -48.1156 H         1 UNK         0.0800 
    142 H142        2.4194  -21.3622  -46.7352 H         1 UNK         0.0800 
    143 H143        1.3479  -23.6558  -46.7036 H         1 UNK         0.0600 
    144 H144        0.2141  -21.2240  -45.8509 H         1 UNK         0.3000 
    145 H145       -2.5911  -22.5543  -44.0640 H         1 UNK         0.0600 
    146 H146       -1.4904  -21.1383  -42.3336 H         1 UNK         0.0600 
    147 H147       -0.6257  -22.6530  -42.5526 H         1 UNK         0.0600 
    148 H148        0.0185  -21.1704  -43.2434 H         1 UNK         0.0600 
    149 H149       -1.7133  -19.8730  -44.5486 H         1 UNK         0.3000 
    150 H150       -3.5373  -19.3612  -47.5737 H         1 UNK         0.0600 
    151 H151       -5.2056  -18.9671  -45.7921 H         1 UNK         0.0600 
    152 H152       -4.4271  -17.4578  -46.2401 H         1 UNK         0.0600 
    153 H153       -3.9753  -18.2742  -44.7439 H         1 UNK         0.0600 
    154 H154       -1.8305  -17.7178  -45.9258 H         1 UNK         0.3000 
    155 H155        1.1732  -18.3953  -47.7464 H         1 UNK         0.0600 
    156 H156       -0.0044  -16.6985  -49.0984 H         1 UNK         0.0600 
    157 H157        1.0238  -15.8870  -47.9305 H         1 UNK         0.0600 
    158 H158       -0.7169  -15.9822  -47.6676 H         1 UNK         0.0600 
    159 H159        0.6001  -16.6328  -45.5778 H         1 UNK         0.3000 
    160 H160        1.0393  -18.9310  -42.8969 H         1 UNK         0.0600 
    161 H161        2.8976  -17.3683  -42.3007 H         1 UNK         0.0600 
    162 H162        2.9851  -16.8194  -43.9767 H         1 UNK         0.0600 
    163 H163        3.3920  -18.4791  -43.5693 H         1 UNK         0.0600 
    164 H164        0.8144  -16.1066  -42.9353 H         1 UNK         0.3000 
    165 H165       -2.6739  -15.9408  -42.5204 H         1 UNK         0.0600 
    166 H166       -1.6172  -14.0004  -41.5037 H         1 UNK         0.0600 
    167 H167       -0.7829  -15.4320  -40.9258 H         1 UNK         0.0600 
    168 H168       -0.0434  -14.4159  -42.1585 H         1 UNK         0.0600 
    169 H169       -2.8548  -14.4962  -44.1886 H         1 UNK         0.3000 
    170 H170       -0.8848  -13.5726  -46.9806 H         1 UNK         0.0600 
    171 H171       -3.0291  -14.9272  -46.9272 H         1 UNK         0.0600 
    172 H172       -3.7389  -13.7204  -45.8586 H         1 UNK         0.0600 
    173 H173       -3.2414  -13.2780  -47.4871 H         1 UNK         0.0600 
    174 H174       -2.4420  -11.8034  -45.2687 H         1 UNK         0.3000 
    175 H175       -1.6808   -9.7569  -44.7839 H         1 UNK         0.0600 
    176 H176       -0.5027   -9.3519  -42.6130 H         1 UNK         0.0600 
    177 H177       -1.0548  -11.0166  -42.7226 H         1 UNK         0.0600 
    178 H178        0.6444  -10.6408  -42.9780 H         1 UNK         0.0600 
    179 H179        1.2362   -9.2036  -44.9023 H         1 UNK         0.3000 
    180 H180        1.0002   -7.3247  -47.8557 H         1 UNK         0.0600 
    181 H181        1.6528   -6.3079  -45.0346 H         1 UNK         0.0600 
    182 H182        0.5226   -5.5594  -46.1562 H         1 UNK         0.0600 
    183 H183        2.2343   -5.6094  -46.5467 H         1 UNK         0.0600 
    184 H184        3.1259   -8.0194  -46.0277 H         1 UNK         0.3000 
    185 H185        4.5954  -10.1792  -47.9160 H         1 UNK         0.0600 
    186 H186        5.5688  -10.3585  -45.6116 H         1 UNK         0.0600 
    187 H187        5.0429   -8.7212  -45.9381 H         1 UNK         0.0600 
    188 H188        4.0653   -9.7770  -44.9112 H         1 UNK         0.0600 
    189 H189        2.5806  -11.7749  -46.5101 H         1 UNK         0.3000 
    190 H190       -1.0936  -21.5406  -48.3358 H         1 UNK         0.3000 
    191 H191       -1.4931  -23.2040  -50.5940 H         1 UNK         0.0600 
    192 H192       -3.4090  -21.2280  -49.2644 H         1 UNK         0.0600 
    193 H193       -3.5525  -21.8580  -50.9026 H         1 UNK         0.0600 
    194 H194       -2.1985  -20.8252  -50.4769 H         1 UNK         0.0600 
    195 H195       -2.9324  -23.3560  -47.3227 H         1 UNK         0.3000 
    196 H196       -4.9070  -25.3478  -47.9806 H         1 UNK         0.0600 
    197 H197       -3.6887  -24.6001  -45.2763 H         1 UNK         0.0600 
    198 H198       -5.1206  -25.5884  -45.5257 H         1 UNK         0.0600 
    199 H199       -5.1347  -23.8952  -45.9944 H         1 UNK         0.0600 
    200 H200       -1.5561  -25.4945  -46.6943 H         1 UNK         0.3000 
    201 H201       -1.3837  -28.3323  -46.4882 H         1 UNK         0.0600 
    202 H202        0.8290  -26.2573  -46.9313 H         1 UNK         0.0600 
    203 H203        1.0669  -27.9158  -46.3979 H         1 UNK         0.0600 
    204 H204        0.2031  -26.7810  -45.3705 H         1 UNK         0.0600 
    205 H205       -0.7339  -26.1026  -49.1890 H         1 UNK         0.3000 
    206 H206        0.1480  -28.0965  -51.0707 H         1 UNK         0.0600 
    207 H207        0.8288  -25.7064  -51.1889 H         1 UNK         0.0600 
    208 H208        0.0303  -26.2124  -52.6701 H         1 UNK         0.0600 
    209 H209       -0.8415  -25.2349  -51.4973 H         1 UNK         0.0600 
    210 H210       -1.7870  -29.4657  -50.3083 H         1 UNK         0.3000 
    211 H211       -3.5010  -30.7341  -50.8956 H         1 UNK         0.0600 
    212 H212       -3.2323  -29.5074  -53.6880 H         1 UNK         0.0600 
    213 H213       -3.9812  -31.0475  -53.2899 H         1 UNK         0.0600 
    214 H214       -2.2547  -30.8342  -53.0613 H         1 UNK         0.0600 
    215 H215       -4.2330  -28.3346  -49.6094 H         1 UNK         0.3000 
    216 H216       -6.0146  -27.2596  -48.8831 H         1 UNK         0.0600 
    217 H217       -6.8786  -29.5895  -48.6883 H         1 UNK         0.0600 
    218 H218       -8.1690  -28.4245  -48.9233 H         1 UNK         0.0600 
    219 H219       -7.6533  -29.4367  -50.2651 H         1 UNK         0.0600 
    220 H220       -4.9453  -26.1012  -51.2322 H         1 UNK         0.3000 
    221 H221       -7.1192  -25.1099  -52.8880 H         1 UNK         0.0600 
    222 H222       -4.2868  -24.0124  -52.4559 H         1 UNK         0.0600 
    223 H223       -4.7701  -25.1516  -53.7072 H         1 UNK         0.0600 
    224 H224       -5.4112  -23.5152  -53.7119 H         1 UNK         0.0600 
    225 H225       -5.2651  -23.9293  -50.1206 H         1 UNK         0.3000 
    226 H226       -5.5888  -22.4990  -48.4538 H         1 UNK         0.0600 
    227 H227       -7.3597  -24.1953  -47.9963 H         1 UNK         0.0600 
    228 H228       -7.7878  -22.6220  -47.3500 H         1 UNK         0.0600 
    229 H229       -8.5428  -23.1919  -48.8340 H         1 UNK         0.0600 
    230 H230       -5.7873  -21.2257  -51.2061 H         1 UNK         0.3000 
    231 H231       -7.4214  -18.8569  -50.9154 H         1 UNK         0.0600 
    232 H232       -6.7591  -19.7866  -53.1411 H         1 UNK         0.0600 
    233 H233       -5.0583  -19.4968  -52.7742 H         1 UNK         0.0600 
    234 H234       -6.1666  -18.1431  -52.9610 H         1 UNK         0.0600 
    235 H235       -6.6754  -16.6953  -50.5326 H         1 UNK         0.3000 
    236 H236       -4.6810  -16.3665  -48.5150 H         1 UNK         0.0600 
    237 H237       -5.1838  -13.9323  -48.8246 H         1 UNK         0.0600 
    238 H238       -6.1112  -14.2996  -50.2722 H         1 UNK         0.0600 
    239 H239       -6.6538  -14.8832  -48.6982 H         1 UNK         0.0600 
    240 H240       -4.6341  -16.0076  -51.9670 H         1 UNK         0.3000 
    241 H241       -3.2192  -15.5471  -53.5334 H         1 UNK         0.0600 
    242 H242       -0.6839  -13.1975  -51.5627 H         1 UNK         0.3800 
    243 H243       -1.8785  -14.1643  -50.7051 H         1 UNK         0.3800 
    244 H244       -2.9152  -17.9057  -53.0947 H         1 UNK         0.0800 
    245 H245       -1.4956  -17.2253  -53.8139 H         1 UNK         0.0800 
    246 H246        0.7920  -16.7929  -52.4522 H         1 UNK         0.0800 
    247 H247        0.5954  -18.3731  -53.1737 H         1 UNK         0.0800 
@<TRIPOS>BOND
     1    1    2 1    
     2    1  127 1    
     3    1  128 1    
     4    1  129 1    
     5    2    3 2    
     6    2    4 am   BACKBONE|DICT|INTERRES
     7    4    5 1    
     8    4  130 1    
     9    5    6 1    
    10    5   65 1    
    11    5  131 1    
    12    6    7 1    
    13    6  132 1    
    14    6  133 1    
    15    7    8 1    
    16    8    9 1    
    17    8  134 1    
    18    8  135 1    
    19    9   10 ar   
    20    9   14 ar   
    21   10   11 ar   
    22   10  136 1    
    23   11   12 ar   
    24   11  126 1    
    25   12   13 ar   
    26   12  137 1    
    27   13   14 ar   
    28   13   15 1    
    29   14  138 1    
    30   15   16 1    
    31   15  139 1    
    32   15  140 1    
    33   16   17 1    
    34   17   18 1    
    35   17  141 1    
    36   17  142 1    
    37   18   19 1    
    38   18   67 1    
    39   18  143 1    
    40   19   20 am   BACKBONE|DICT|INTERRES
    41   19  144 1    
    42   20   21 2    
    43   20   22 1    
    44   22   23 1    
    45   22   24 1    
    46   22  145 1    
    47   23  146 1    
    48   23  147 1    
    49   23  148 1    
    50   24   25 am   BACKBONE|DICT|INTERRES
    51   24  149 1    
    52   25   26 2    
    53   25   27 1    
    54   27   28 1    
    55   27   29 1    
    56   27  150 1    
    57   28  151 1    
    58   28  152 1    
    59   28  153 1    
    60   29   30 am   BACKBONE|DICT|INTERRES
    61   29  154 1    
    62   30   31 2    
    63   30   32 1    
    64   32   33 1    
    65   32   34 1    
    66   32  155 1    
    67   33  156 1    
    68   33  157 1    
    69   33  158 1    
    70   34   35 am   BACKBONE|DICT|INTERRES
    71   34  159 1    
    72   35   36 2    
    73   35   37 1    
    74   37   38 1    
    75   37   39 1    
    76   37  160 1    
    77   38  161 1    
    78   38  162 1    
    79   38  163 1    
    80   39   40 am   BACKBONE|DICT|INTERRES
    81   39  164 1    
    82   40   41 2    
    83   40   42 1    
    84   42   43 1    
    85   42   44 1    
    86   42  165 1    
    87   43  166 1    
    88   43  167 1    
    89   43  168 1    
    90   44   45 am   BACKBONE|DICT|INTERRES
    91   44  169 1    
    92   45   46 2    
    93   45   47 1    
    94   47   48 1    
    95   47   49 1    
    96   47  170 1    
    97   48  171 1    
    98   48  172 1    
    99   48  173 1    
   100   49   50 am   BACKBONE|DICT|INTERRES
   101   49  174 1    
   102   50   51 2    
   103   50   52 1    
   104   52   53 1    
   105   52   54 1    
   106   52  175 1    
   107   53  176 1    
   108   53  177 1    
   109   53  178 1    
   110   54   55 am   BACKBONE|DICT|INTERRES
   111   54  179 1    
   112   55   56 2    
   113   55   57 1    
   114   57   58 1    
   115   57   59 1    
   116   57  180 1    
   117   58  181 1    
   118   58  182 1    
   119   58  183 1    
   120   59   60 am   BACKBONE|DICT|INTERRES
   121   59  184 1    
   122   60   61 2    
   123   60   62 1    
   124   62   63 1    
   125   62   64 1    
   126   62  185 1    
   127   63  186 1    
   128   63  187 1    
   129   63  188 1    
   130   64   65 am   BACKBONE|DICT|INTERRES
   131   64  189 1    
   132   65   66 2    
   133   67   68 2    
   134   67   69 am   BACKBONE|DICT|INTERRES
   135   69   70 1    
   136   69  190 1    
   137   70   71 1    
   138   70   72 1    
   139   70  191 1    
   140   71  192 1    
   141   71  193 1    
   142   71  194 1    
   143   72   73 2    
   144   72   74 am   BACKBONE|DICT|INTERRES
   145   74   75 1    
   146   74  195 1    
   147   75   76 1    
   148   75   77 1    
   149   75  196 1    
   150   76  197 1    
   151   76  198 1    
   152   76  199 1    
   153   77   78 2    
   154   77   79 am   BACKBONE|DICT|INTERRES
   155   79   80 1    
   156   79  200 1    
   157   80   81 1    
   158   80   82 1    
   159   80  201 1    
   160   81  202 1    
   161   81  203 1    
   162   81  204 1    
   163   82   83 2    
   164   82   84 am   BACKBONE|DICT|INTERRES
   165   84   85 1    
   166   84  205 1    
   167   85   86 1    
   168   85   87 1    
   169   85  206 1    
   170   86  207 1    
   171   86  208 1    
   172   86  209 1    
   173   87   88 2    
   174   87   89 am   BACKBONE|DICT|INTERRES
   175   89   90 1    
   176   89  210 1    
   177   90   91 1    
   178   90   92 1    
   179   90  211 1    
   180   91  212 1    
   181   91  213 1    
   182   91  214 1    
   183   92   93 2    
   184   92   94 am   BACKBONE|DICT|INTERRES
   185   94   95 1    
   186   94  215 1    
   187   95   96 1    
   188   95   97 1    
   189   95  216 1    
   190   96  217 1    
   191   96  218 1    
   192   96  219 1    
   193   97   98 2    
   194   97   99 am   BACKBONE|DICT|INTERRES
   195   99  100 1    
   196   99  220 1    
   197  100  101 1    
   198  100  102 1    
   199  100  221 1    
   200  101  222 1    
   201  101  223 1    
   202  101  224 1    
   203  102  103 2    
   204  102  104 am   BACKBONE|DICT|INTERRES
   205  104  105 1    
   206  104  225 1    
   207  105  106 1    
   208  105  107 1    
   209  105  226 1    
   210  106  227 1    
   211  106  228 1    
   212  106  229 1    
   213  107  108 2    
   214  107  109 am   BACKBONE|DICT|INTERRES
   215  109  110 1    
   216  109  230 1    
   217  110  111 1    
   218  110  112 1    
   219  110  231 1    
   220  111  232 1    
   221  111  233 1    
   222  111  234 1    
   223  112  113 2    
   224  112  114 am   BACKBONE|DICT|INTERRES
   225  114  115 1    
   226  114  235 1    
   227  115  116 1    
   228  115  117 1    
   229  115  236 1    
   230  116  237 1    
   231  116  238 1    
   232  116  239 1    
   233  117  118 2    
   234  117  119 am   BACKBONE|DICT|INTERRES
   235  119  120 1    
   236  119  240 1    
   237  120  121 1    
   238  120  124 1    
   239  120  241 1    
   240  121  122 am   BACKBONE|DICT|INTERRES
   241  121  123 2    
   242  122  242 1    
   243  122  243 1    
   244  124  125 1    
   245  124  244 1    
   246  124  245 1    
   247  125  126 1    
   248  126  246 1    
   249  126  247 1    
@<TRIPOS>SUBSTRUCTURE
     1 UNK         1 GROUP             0       ****    0 ROOT    
