@<TRIPOS>MOLECULE
3R540
247   249    1
SMALL
USER_CHARGES


@<TRIPOS>ATOM
      1 CA          2.5651  -11.0044  -49.4983 C.3       0 UNK        -0.1800 
      2 C           2.5115  -11.3905  -48.0281 C.2       0 UNK         0.5000 
      3 O           2.0305  -10.6091  -47.2078 O.2       0 UNK        -0.5000 
      4 N           2.9840  -12.5983  -47.6918 N.am      1 UNK        -0.5000 
      5 CA          3.0264  -13.1527  -46.3310 C.3       1 UNK         0.1400 
      6 C6          3.7978  -14.4965  -46.2536 C.3       23 UNK        -0.0398 
      7 S7          3.2778  -15.7184  -47.5093 S.3       23 UNK        -0.2404 
      8 C8          2.4273  -16.9868  -46.5179 C.3       23 UNK        -0.0205 
      9 C9          1.6080  -17.8877  -47.4282 C.ar      23 UNK        -0.0193 
     10 C10         0.2266  -17.7136  -47.5284 C.ar      23 UNK        -0.1150 
     11 C11        -0.5249  -18.4773  -48.4260 C.ar      23 UNK        -0.0193 
     12 C12         0.1172  -19.4309  -49.2219 C.ar      23 UNK        -0.1150 
     13 C13         1.4988  -19.6313  -49.1156 C.ar      23 UNK        -0.0193 
     14 C14         2.2354  -18.8618  -48.2098 C.ar      23 UNK        -0.1150 
     15 C15         2.2162  -20.6305  -50.0145 C.3       23 UNK        -0.0205 
     16 S16         2.3868  -22.2728  -49.2434 S.3       23 UNK        -0.2404 
     17 C17         0.7450  -22.9868  -49.5909 C.3       23 UNK        -0.0398 
     18 CA          0.2129  -23.9519  -48.5034 C.3       11 UNK         0.1400 
     19 N           0.4162  -23.4658  -47.1367 N.am      11 UNK        -0.5000 
     20 C           0.2046  -24.1972  -46.0337 C.2       10 UNK         0.5000 
     21 O          -0.1675  -25.3701  -46.0531 O.2       10 UNK        -0.5000 
     22 CA          0.3925  -23.4839  -44.6838 C.3       10 UNK         0.1400 
     23 CB          1.8439  -23.6129  -44.1998 C.3       10 UNK        -0.1800 
     24 N           0.0244  -22.0679  -44.7229 N.am      10 UNK        -0.5000 
     25 C          -1.1944  -21.5859  -44.9952 C.2       9 UNK         0.5000 
     26 O          -2.1555  -22.3039  -45.2765 O.2       9 UNK        -0.5000 
     27 CA         -1.3496  -20.0502  -44.9392 C.3       9 UNK         0.1400 
     28 CB         -2.7919  -19.5873  -45.2086 C.3       9 UNK        -0.1800 
     29 N          -0.9135  -19.4940  -43.6567 N.am      9 UNK        -0.5000 
     30 C           0.3567  -19.3170  -43.2751 C.2       8 UNK         0.5000 
     31 O           1.3282  -19.6130  -43.9765 O.2       8 UNK        -0.5000 
     32 CA          0.5650  -18.7864  -41.8454 C.3       8 UNK         0.1400 
     33 CB          0.4482  -19.9345  -40.8298 C.3       8 UNK        -0.1800 
     34 N           1.8719  -18.1524  -41.6850 N.am      8 UNK        -0.5000 
     35 C           2.2139  -16.9750  -42.2175 C.2       7 UNK         0.5000 
     36 O           1.4420  -16.2511  -42.8534 O.2       7 UNK        -0.5000 
     37 CA          3.6663  -16.5361  -41.9994 C.3       7 UNK         0.1400 
     38 CB          4.6120  -17.1930  -43.0209 C.3       7 UNK        -0.1800 
     39 N           3.7268  -15.0863  -42.1160 N.am      7 UNK        -0.5000 
     40 C           4.6602  -14.2964  -41.5762 C.2       6 UNK         0.5000 
     41 O           5.6337  -14.7158  -40.9491 O.2       6 UNK        -0.5000 
     42 CA          4.4753  -12.7806  -41.7619 C.3       6 UNK         0.1400 
     43 CB          5.3184  -12.2776  -42.9436 C.3       6 UNK        -0.1800 
     44 N           3.0785  -12.4071  -41.9835 N.am      6 UNK        -0.5000 
     45 C           2.1516  -12.2775  -41.0247 C.2       5 UNK         0.5000 
     46 O           2.3668  -12.4979  -39.8315 O.2       5 UNK        -0.5000 
     47 CA          0.7620  -11.7970  -41.4988 C.3       5 UNK         0.1400 
     48 CB         -0.1258  -11.2622  -40.3563 C.3       5 UNK        -0.1800 
     49 N           0.8663  -10.8244  -42.5936 N.am      5 UNK        -0.5000 
     50 C           1.4579   -9.6195  -42.5624 C.2       4 UNK         0.5000 
     51 O           1.8918   -9.0880  -41.5398 O.2       4 UNK        -0.5000 
     52 CA          1.6371   -8.8991  -43.9127 C.3       4 UNK         0.1400 
     53 CB          3.0812   -9.0684  -44.4114 C.3       4 UNK        -0.1800 
     54 N           0.7268   -9.3789  -44.9525 N.am      4 UNK        -0.5000 
     55 C          -0.5832   -9.1050  -45.0056 C.2       3 UNK         0.5000 
     56 O          -1.1697   -8.3903  -44.1922 O.2       3 UNK        -0.5000 
     57 CA         -1.3696   -9.7595  -46.1524 C.3       3 UNK         0.1400 
     58 CB         -1.1991   -8.9638  -47.4559 C.3       3 UNK        -0.1800 
     59 N          -0.9576  -11.1454  -46.3740 N.am      3 UNK        -0.5000 
     60 C          -1.3326  -12.1818  -45.6116 C.2       2 UNK         0.5000 
     61 O          -2.0627  -12.0806  -44.6258 O.2       2 UNK        -0.5000 
     62 CA         -0.7997  -13.5656  -46.0264 C.3       2 UNK         0.1400 
     63 CB         -1.6679  -14.1383  -47.1590 C.3       2 UNK        -0.1800 
     64 N           0.5967  -13.5248  -46.4620 N.am      2 UNK        -0.5000 
     65 C           1.6404  -13.2580  -45.6633 C.2       1 UNK         0.5000 
     66 O           1.5487  -13.0553  -44.4527 O.2       1 UNK        -0.5000 
     67 C          -1.2748  -24.2563  -48.7680 C.2       11 UNK         0.5000 
     68 O          -1.5920  -25.2941  -49.3444 O.2       11 UNK        -0.5000 
     69 N          -2.1563  -23.3551  -48.3094 N.am      12 UNK        -0.5000 
     70 CA         -3.6084  -23.4622  -48.4502 C.3       12 UNK         0.1400 
     71 CB         -4.2542  -22.1253  -48.0562 C.3       12 UNK        -0.1800 
     72 C          -4.2028  -24.6145  -47.6230 C.2       12 UNK         0.5000 
     73 O          -5.1773  -25.2335  -48.0496 O.2       12 UNK        -0.5000 
     74 N          -3.5904  -24.8961  -46.4652 N.am      13 UNK        -0.5000 
     75 CA         -3.9019  -26.0594  -45.6373 C.3       13 UNK         0.1400 
     76 CB         -3.2572  -25.8856  -44.2536 C.3       13 UNK        -0.1800 
     77 C          -3.4520  -27.3795  -46.2946 C.2       13 UNK         0.5000 
     78 O          -4.1368  -28.3925  -46.1469 O.2       13 UNK        -0.5000 
     79 N          -2.3170  -27.3447  -47.0067 N.am      14 UNK        -0.5000 
     80 CA         -1.7413  -28.4899  -47.7075 C.3       14 UNK         0.1400 
     81 CB         -0.2519  -28.2305  -47.9836 C.3       14 UNK        -0.1800 
     82 C          -2.4843  -28.8481  -49.0079 C.2       14 UNK         0.5000 
     83 O          -2.6695  -30.0372  -49.2734 O.2       14 UNK        -0.5000 
     84 N          -2.8862  -27.8429  -49.7989 N.am      15 UNK        -0.5000 
     85 CA         -3.5242  -28.0352  -51.0996 C.3       15 UNK         0.1400 
     86 CB         -2.4474  -28.0686  -52.1981 C.3       15 UNK        -0.1800 
     87 C          -4.5478  -26.9302  -51.3901 C.2       15 UNK         0.5000 
     88 O          -4.2452  -25.7464  -51.2298 O.2       15 UNK        -0.5000 
     89 N          -5.7195  -27.3343  -51.8991 N.am      16 UNK        -0.5000 
     90 CA         -6.7973  -26.4390  -52.3295 C.3       16 UNK         0.1400 
     91 CB         -8.0649  -27.2631  -52.5975 C.3       16 UNK        -0.1800 
     92 C          -6.4309  -25.5963  -53.5666 C.2       16 UNK         0.5000 
     93 O          -6.9237  -24.4776  -53.7057 O.2       16 UNK        -0.5000 
     94 N          -5.5439  -26.1218  -54.4237 N.am      17 UNK        -0.5000 
     95 CA         -4.9888  -25.4075  -55.5756 C.3       17 UNK         0.1400 
     96 CB         -4.1830  -26.3859  -56.4429 C.3       17 UNK        -0.1800 
     97 C          -4.1181  -24.2098  -55.1533 C.2       17 UNK         0.5000 
     98 O          -4.1916  -23.1495  -55.7741 O.2       17 UNK        -0.5000 
     99 N          -3.3453  -24.3860  -54.0727 N.am      18 UNK        -0.5000 
    100 CA        -2.5481  -23.3264  -53.4604 C.3       18 UNK         0.1400 
    101 CB        -1.4791  -23.9416  -52.5537 C.3       18 UNK        -0.1800 
    102 C         -3.4187  -22.3205  -52.6890 C.2       18 UNK         0.5000 
    103 O         -3.1005  -21.1325  -52.6894 O.2       18 UNK        -0.5000 
    104 N         -4.5247  -22.7905  -52.0919 N.am      19 UNK        -0.5000 
    105 CA        -5.5447  -21.9415  -51.4705 C.3       19 UNK         0.1400 
    106 CB        -6.5871  -22.8034  -50.7392 C.3       19 UNK        -0.1800 
    107 C         -6.2256  -21.0184  -52.4957 C.2       19 UNK         0.5000 
    108 O         -6.3688  -19.8240  -52.2351 O.2       19 UNK        -0.5000 
    109 N         -6.5827  -21.5791  -53.6596 N.am      20 UNK        -0.5000 
    110 CA        -7.1475  -20.8534  -54.7974 C.3       20 UNK         0.1400 
    111 CB        -7.6210  -21.8585  -55.8581 C.3       20 UNK        -0.1800 
    112 C         -6.1697  -19.8307  -55.4082 C.2       20 UNK         0.5000 
    113 O         -6.6043  -18.7540  -55.8183 O.2       20 UNK        -0.5000 
    114 N         -4.8736  -20.1731  -55.4431 N.am      21 UNK        -0.5000 
    115 CA        -3.7976  -19.2862  -55.8878 C.3       21 UNK         0.1400 
    116 CB        -2.5178  -20.1028  -56.1236 C.3       21 UNK        -0.1800 
    117 C         -3.5393  -18.1316  -54.9005 C.2       21 UNK         0.5000 
    118 O         -3.3801  -16.9898  -55.3345 O.2       21 UNK        -0.5000 
    119 N         -3.5062  -18.4476  -53.5989 N.am      22 UNK        -0.5000 
    120 CA        -3.3657  -17.4807  -52.5004 C.3       22 UNK         0.1400 
    121 C         -4.5992  -16.5418  -52.3550 C.2       22 UNK         0.5000 
    122 N         -5.8197  -17.0615  -52.3916 N.am      22 UNK        -0.7600 
    123 O         -4.4495  -15.3293  -52.2293 O.2       22 UNK        -0.5000 
    124 C124       -3.0144  -18.2032  -51.1737 C.3       23 UNK        -0.0398 
    125 S125       -2.4429  -17.0788  -49.8537 S.3       23 UNK        -0.2404 
    126 C126       -2.0264  -18.2594  -48.5338 C.3       23 UNK        -0.0205 
    127 H127        1.5612  -10.7929  -49.8664 H         1 UNK         0.0600 
    128 H128        2.9932  -11.7983  -50.1108 H         1 UNK         0.0600 
    129 H129        3.1724  -10.1086  -49.6272 H         1 UNK         0.0600 
    130 H130        3.3475  -13.2066  -48.4125 H         1 UNK         0.3000 
    131 H131        3.5851  -12.4299  -45.7338 H         1 UNK         0.0600 
    132 H132        4.8593  -14.3044  -46.4144 H         1 UNK         0.0800 
    133 H133        3.7327  -14.9306  -45.2545 H         1 UNK         0.0800 
    134 H134        3.1581  -17.5830  -45.9705 H         1 UNK         0.0800 
    135 H135        1.7868  -16.5116  -45.7726 H         1 UNK         0.0800 
    136 H136       -0.2600  -16.9716  -46.9138 H         1 UNK         0.1150 
    137 H137       -0.4600  -19.9989  -49.9365 H         1 UNK         0.1150 
    138 H138        3.3060  -18.9936  -48.1391 H         1 UNK         0.1150 
    139 H139        1.7009  -20.7212  -50.9721 H         1 UNK         0.0800 
    140 H140        3.2133  -20.2547  -50.2492 H         1 UNK         0.0800 
    141 H141        0.8183  -23.5164  -50.5416 H         1 UNK         0.0800 
    142 H142        0.0394  -22.1738  -49.7551 H         1 UNK         0.0800 
    143 H143        0.7635  -24.8907  -48.5950 H         1 UNK         0.0600 
    144 H144        0.7492  -22.5179  -47.0374 H         1 UNK         0.3000 
    145 H145       -0.2578  -23.9764  -43.9579 H         1 UNK         0.0600 
    146 H146        1.9682  -23.1800  -43.2070 H         1 UNK         0.0600 
    147 H147        2.1436  -24.6599  -44.1377 H         1 UNK         0.0600 
    148 H148        2.5388  -23.1106  -44.8742 H         1 UNK         0.0600 
    149 H149        0.7512  -21.3941  -44.4988 H         1 UNK         0.3000 
    150 H150       -0.7158  -19.6414  -45.7270 H         1 UNK         0.0600 
    151 H151       -3.4896  -19.9934  -44.4752 H         1 UNK         0.0600 
    152 H152       -3.1276  -19.9070  -46.1946 H         1 UNK         0.0600 
    153 H153       -2.8697  -18.5004  -45.1793 H         1 UNK         0.0600 
    154 H154       -1.6500  -19.2706  -43.0029 H         1 UNK         0.3000 
    155 H155       -0.2086  -18.0457  -41.6315 H         1 UNK         0.0600 
    156 H156        1.2010  -20.7046  -41.0045 H         1 UNK         0.0600 
    157 H157       -0.5296  -20.4143  -40.8879 H         1 UNK         0.0600 
    158 H158        0.5690  -19.5722  -39.8087 H         1 UNK         0.0600 
    159 H159        2.5763  -18.6984  -41.2112 H         1 UNK         0.3000 
    160 H160        3.9624  -16.8262  -40.9889 H         1 UNK         0.0600 
    161 H161        4.3732  -16.8931  -44.0402 H         1 UNK         0.0600 
    162 H162        4.5460  -18.2807  -42.9751 H         1 UNK         0.0600 
    163 H163        5.6507  -16.9238  -42.8294 H         1 UNK         0.0600 
    164 H164        2.9224  -14.6725  -42.5726 H         1 UNK         0.3000 
    165 H165        4.8302  -12.2867  -40.8548 H         1 UNK         0.0600 
    166 H166        6.3777  -12.4775  -42.7778 H         1 UNK         0.0600 
    167 H167        5.0372  -12.7661  -43.8762 H         1 UNK         0.0600 
    168 H168        5.2091  -11.2013  -43.0785 H         1 UNK         0.0600 
    169 H169        2.7781  -12.2769  -42.9418 H         1 UNK         0.3000 
    170 H170        0.2654  -12.6734  -41.9181 H         1 UNK         0.0600 
    171 H171       -0.3196  -12.0406  -39.6175 H         1 UNK         0.0600 
    172 H172        0.3405  -10.4267  -39.8337 H         1 UNK         0.0600 
    173 H173       -1.0915  -10.9258  -40.7336 H         1 UNK         0.0600 
    174 H174        0.5848  -11.1758  -43.4993 H         1 UNK         0.3000 
    175 H175        1.4509   -7.8355  -43.7499 H         1 UNK         0.0600 
    176 H176        3.2464   -8.5147  -45.3359 H         1 UNK         0.0600 
    177 H177        3.7973   -8.6971  -43.6772 H         1 UNK         0.0600 
    178 H178        3.3190  -10.1154  -44.6029 H         1 UNK         0.0600 
    179 H179        1.1414   -9.9293  -45.7015 H         1 UNK         0.3000 
    180 H180       -2.4284   -9.7468  -45.8846 H         1 UNK         0.0600 
    181 H181       -0.1606   -8.9490  -47.7892 H         1 UNK         0.0600 
    182 H182       -1.5162   -7.9284  -47.3245 H         1 UNK         0.0600 
    183 H183       -1.8023   -9.3887  -48.2583 H         1 UNK         0.0600 
    184 H184       -0.3090  -11.3086  -47.1304 H         1 UNK         0.3000 
    185 H185       -0.8680  -14.2316  -45.1634 H         1 UNK         0.0600 
    186 H186       -2.7060  -14.2410  -46.8402 H         1 UNK         0.0600 
    187 H187       -1.6588  -13.4955  -48.0401 H         1 UNK         0.0600 
    188 H188       -1.3282  -15.1234  -47.4704 H         1 UNK         0.0600 
    189 H189        0.7750  -13.6799  -47.4435 H         1 UNK         0.3000 
    190 H190       -1.8149  -22.5699  -47.7755 H         1 UNK         0.3000 
    191 H191       -3.8238  -23.6594  -49.5010 H         1 UNK         0.0600 
    192 H192       -3.8466  -21.2994  -48.6381 H         1 UNK         0.0600 
    193 H193       -5.3309  -22.1459  -48.2236 H         1 UNK         0.0600 
    194 H194       -4.1027  -21.9026  -47.0008 H         1 UNK         0.0600 
    195 H195       -2.8331  -24.2980  -46.1593 H         1 UNK         0.3000 
    196 H196       -4.9848  -26.1040  -45.5032 H         1 UNK         0.0600 
    197 H197       -3.5192  -26.7151  -43.5958 H         1 UNK         0.0600 
    198 H198       -3.5966  -24.9679  -43.7726 H         1 UNK         0.0600 
    199 H199       -2.1696  -25.8481  -44.3152 H         1 UNK         0.0600 
    200 H200       -1.7929  -26.4795  -47.0470 H         1 UNK         0.3000 
    201 H201       -1.8046  -29.3556  -47.0446 H         1 UNK         0.0600 
    202 H202        0.2116  -29.0945  -48.4612 H         1 UNK         0.0600 
    203 H203       -0.1033  -27.3751  -48.6420 H         1 UNK         0.0600 
    204 H204        0.2929  -28.0389  -47.0589 H         1 UNK         0.0600 
    205 H205       -2.6768  -26.8796  -49.5444 H         1 UNK         0.3000 
    206 H206       -4.0556  -28.9893  -51.1074 H         1 UNK         0.0600 
    207 H207       -1.7594  -28.9011  -52.0500 H         1 UNK         0.0600 
    208 H208       -2.8939  -28.1890  -53.1859 H         1 UNK         0.0600 
    209 H209       -1.8601  -27.1494  -52.2098 H         1 UNK         0.0600 
    210 H210       -5.8894  -28.3235  -52.0123 H         1 UNK         0.3000 
    211 H211       -7.0067  -25.7492  -51.5097 H         1 UNK         0.0600 
    212 H212       -7.9121  -27.9910  -53.3953 H         1 UNK         0.0600 
    213 H213       -8.8933  -26.6186  -52.8952 H         1 UNK         0.0600 
    214 H214       -8.3806  -27.8031  -51.7046 H         1 UNK         0.0600 
    215 H215       -5.1985  -27.0537  -54.2505 H         1 UNK         0.3000 
    216 H216       -5.8192  -25.0229  -56.1718 H         1 UNK         0.0600 
    217 H217       -3.7693  -25.8815  -57.3172 H         1 UNK         0.0600 
    218 H218       -4.8108  -27.1999  -56.8056 H         1 UNK         0.0600 
    219 H219       -3.3499  -26.8238  -55.8916 H         1 UNK         0.0600 
    220 H220       -3.3739  -25.2707  -53.5882 H         1 UNK         0.3000 
    221 H221       -2.0344  -22.7793  -54.2533 H         1 UNK         0.0600 
    222 H222       -1.9263  -24.5473  -51.7682 H         1 UNK         0.0600 
    223 H223       -0.7962  -24.5759  -53.1189 H         1 UNK         0.0600 
    224 H224       -0.8859  -23.1606  -52.0795 H         1 UNK         0.0600 
    225 H225       -4.6849  -23.7904  -52.0843 H         1 UNK         0.3000 
    226 H226       -5.0429  -21.3107  -50.7354 H         1 UNK         0.0600 
    227 H227       -7.2011  -22.1856  -50.0832 H         1 UNK         0.0600 
    228 H228       -7.2645  -23.3031  -51.4298 H         1 UNK         0.0600 
    229 H229       -6.1213  -23.5712  -50.1231 H         1 UNK         0.0600 
    230 H230       -6.4845  -22.5849  -53.7646 H         1 UNK         0.3000 
    231 H231       -8.0195  -20.3025  -54.4390 H         1 UNK         0.0600 
    232 H232       -6.7957  -22.4580  -56.2426 H         1 UNK         0.0600 
    233 H233       -8.0782  -21.3462  -56.7055 H         1 UNK         0.0600 
    234 H234       -8.3664  -22.5410  -55.4491 H         1 UNK         0.0600 
    235 H235       -4.6092  -21.1058  -55.1507 H         1 UNK         0.3000 
    236 H236       -4.0953  -18.8485  -56.8430 H         1 UNK         0.0600 
    237 H237       -2.6865  -20.9027  -56.8449 H         1 UNK         0.0600 
    238 H238       -1.7212  -19.4709  -56.5180 H         1 UNK         0.0600 
    239 H239       -2.1503  -20.5539  -55.2024 H         1 UNK         0.0600 
    240 H240       -3.5913  -19.4235  -53.3289 H         1 UNK         0.3000 
    241 H241       -2.5142  -16.8465  -52.7554 H         1 UNK         0.0600 
    242 H242       -5.9635  -18.0685  -52.4471 H         1 UNK         0.3800 
    243 H243       -6.6175  -16.4526  -52.3105 H         1 UNK         0.3800 
    244 H244       -2.2158  -18.9242  -51.3527 H         1 UNK         0.0800 
    245 H245       -3.8688  -18.7788  -50.8130 H         1 UNK         0.0800 
    246 H246       -2.5361  -19.2099  -48.6942 H         1 UNK         0.0800 
    247 H247       -2.4112  -17.8647  -47.5929 H         1 UNK         0.0800 
@<TRIPOS>BOND
     1    1    2 1    
     2    1  127 1    
     3    1  128 1    
     4    1  129 1    
     5    2    3 2    
     6    2    4 am   BACKBONE|DICT|INTERRES
     7    4    5 1    
     8    4  130 1    
     9    5    6 1    
    10    5   65 1    
    11    5  131 1    
    12    6    7 1    
    13    6  132 1    
    14    6  133 1    
    15    7    8 1    
    16    8    9 1    
    17    8  134 1    
    18    8  135 1    
    19    9   10 ar   
    20    9   14 ar   
    21   10   11 ar   
    22   10  136 1    
    23   11   12 ar   
    24   11  126 1    
    25   12   13 ar   
    26   12  137 1    
    27   13   14 ar   
    28   13   15 1    
    29   14  138 1    
    30   15   16 1    
    31   15  139 1    
    32   15  140 1    
    33   16   17 1    
    34   17   18 1    
    35   17  141 1    
    36   17  142 1    
    37   18   19 1    
    38   18   67 1    
    39   18  143 1    
    40   19   20 am   BACKBONE|DICT|INTERRES
    41   19  144 1    
    42   20   21 2    
    43   20   22 1    
    44   22   23 1    
    45   22   24 1    
    46   22  145 1    
    47   23  146 1    
    48   23  147 1    
    49   23  148 1    
    50   24   25 am   BACKBONE|DICT|INTERRES
    51   24  149 1    
    52   25   26 2    
    53   25   27 1    
    54   27   28 1    
    55   27   29 1    
    56   27  150 1    
    57   28  151 1    
    58   28  152 1    
    59   28  153 1    
    60   29   30 am   BACKBONE|DICT|INTERRES
    61   29  154 1    
    62   30   31 2    
    63   30   32 1    
    64   32   33 1    
    65   32   34 1    
    66   32  155 1    
    67   33  156 1    
    68   33  157 1    
    69   33  158 1    
    70   34   35 am   BACKBONE|DICT|INTERRES
    71   34  159 1    
    72   35   36 2    
    73   35   37 1    
    74   37   38 1    
    75   37   39 1    
    76   37  160 1    
    77   38  161 1    
    78   38  162 1    
    79   38  163 1    
    80   39   40 am   BACKBONE|DICT|INTERRES
    81   39  164 1    
    82   40   41 2    
    83   40   42 1    
    84   42   43 1    
    85   42   44 1    
    86   42  165 1    
    87   43  166 1    
    88   43  167 1    
    89   43  168 1    
    90   44   45 am   BACKBONE|DICT|INTERRES
    91   44  169 1    
    92   45   46 2    
    93   45   47 1    
    94   47   48 1    
    95   47   49 1    
    96   47  170 1    
    97   48  171 1    
    98   48  172 1    
    99   48  173 1    
   100   49   50 am   BACKBONE|DICT|INTERRES
   101   49  174 1    
   102   50   51 2    
   103   50   52 1    
   104   52   53 1    
   105   52   54 1    
   106   52  175 1    
   107   53  176 1    
   108   53  177 1    
   109   53  178 1    
   110   54   55 am   BACKBONE|DICT|INTERRES
   111   54  179 1    
   112   55   56 2    
   113   55   57 1    
   114   57   58 1    
   115   57   59 1    
   116   57  180 1    
   117   58  181 1    
   118   58  182 1    
   119   58  183 1    
   120   59   60 am   BACKBONE|DICT|INTERRES
   121   59  184 1    
   122   60   61 2    
   123   60   62 1    
   124   62   63 1    
   125   62   64 1    
   126   62  185 1    
   127   63  186 1    
   128   63  187 1    
   129   63  188 1    
   130   64   65 am   BACKBONE|DICT|INTERRES
   131   64  189 1    
   132   65   66 2    
   133   67   68 2    
   134   67   69 am   BACKBONE|DICT|INTERRES
   135   69   70 1    
   136   69  190 1    
   137   70   71 1    
   138   70   72 1    
   139   70  191 1    
   140   71  192 1    
   141   71  193 1    
   142   71  194 1    
   143   72   73 2    
   144   72   74 am   BACKBONE|DICT|INTERRES
   145   74   75 1    
   146   74  195 1    
   147   75   76 1    
   148   75   77 1    
   149   75  196 1    
   150   76  197 1    
   151   76  198 1    
   152   76  199 1    
   153   77   78 2    
   154   77   79 am   BACKBONE|DICT|INTERRES
   155   79   80 1    
   156   79  200 1    
   157   80   81 1    
   158   80   82 1    
   159   80  201 1    
   160   81  202 1    
   161   81  203 1    
   162   81  204 1    
   163   82   83 2    
   164   82   84 am   BACKBONE|DICT|INTERRES
   165   84   85 1    
   166   84  205 1    
   167   85   86 1    
   168   85   87 1    
   169   85  206 1    
   170   86  207 1    
   171   86  208 1    
   172   86  209 1    
   173   87   88 2    
   174   87   89 am   BACKBONE|DICT|INTERRES
   175   89   90 1    
   176   89  210 1    
   177   90   91 1    
   178   90   92 1    
   179   90  211 1    
   180   91  212 1    
   181   91  213 1    
   182   91  214 1    
   183   92   93 2    
   184   92   94 am   BACKBONE|DICT|INTERRES
   185   94   95 1    
   186   94  215 1    
   187   95   96 1    
   188   95   97 1    
   189   95  216 1    
   190   96  217 1    
   191   96  218 1    
   192   96  219 1    
   193   97   98 2    
   194   97   99 am   BACKBONE|DICT|INTERRES
   195   99  100 1    
   196   99  220 1    
   197  100  101 1    
   198  100  102 1    
   199  100  221 1    
   200  101  222 1    
   201  101  223 1    
   202  101  224 1    
   203  102  103 2    
   204  102  104 am   BACKBONE|DICT|INTERRES
   205  104  105 1    
   206  104  225 1    
   207  105  106 1    
   208  105  107 1    
   209  105  226 1    
   210  106  227 1    
   211  106  228 1    
   212  106  229 1    
   213  107  108 2    
   214  107  109 am   BACKBONE|DICT|INTERRES
   215  109  110 1    
   216  109  230 1    
   217  110  111 1    
   218  110  112 1    
   219  110  231 1    
   220  111  232 1    
   221  111  233 1    
   222  111  234 1    
   223  112  113 2    
   224  112  114 am   BACKBONE|DICT|INTERRES
   225  114  115 1    
   226  114  235 1    
   227  115  116 1    
   228  115  117 1    
   229  115  236 1    
   230  116  237 1    
   231  116  238 1    
   232  116  239 1    
   233  117  118 2    
   234  117  119 am   BACKBONE|DICT|INTERRES
   235  119  120 1    
   236  119  240 1    
   237  120  121 1    
   238  120  124 1    
   239  120  241 1    
   240  121  122 am   BACKBONE|DICT|INTERRES
   241  121  123 2    
   242  122  242 1    
   243  122  243 1    
   244  124  125 1    
   245  124  244 1    
   246  124  245 1    
   247  125  126 1    
   248  126  246 1    
   249  126  247 1    
@<TRIPOS>SUBSTRUCTURE
     1 UNK         1 GROUP             0       ****    0 ROOT    
