@<TRIPOS>MOLECULE
3R540
247   249    1
SMALL
USER_CHARGES


@<TRIPOS>ATOM
      1 CA         -3.5694  -12.0611  -43.7500 C.3       0 UNK        -0.1800 
      2 C          -2.5862  -11.5613  -44.7997 C.2       0 UNK         0.5000 
      3 O          -2.5925  -10.3759  -45.1329 O.2       0 UNK        -0.5000 
      4 N          -1.7503  -12.4657  -45.3234 N.am      1 UNK        -0.5000 
      5 CA         -0.6835  -12.1886  -46.2918 C.3       1 UNK         0.1400 
      6 C6         -0.0518  -13.4977  -46.8242 C.3       23 UNK        -0.0398 
      7 S7         -1.2487  -14.5361  -47.7307 S.3       23 UNK        -0.2404 
      8 C8         -0.3107  -14.9362  -49.2340 C.3       23 UNK        -0.0205 
      9 C9         -1.0990  -15.8580  -50.1499 C.ar      23 UNK        -0.0193 
     10 C10        -1.8702  -15.3219  -51.1848 C.ar      23 UNK        -0.1150 
     11 C11        -2.5696  -16.1595  -52.0576 C.ar      23 UNK        -0.0193 
     12 C12        -2.5096  -17.5444  -51.8734 C.ar      23 UNK        -0.1150 
     13 C13        -1.7387  -18.0956  -50.8444 C.ar      23 UNK        -0.0193 
     14 C14        -1.0367  -17.2458  -49.9832 C.ar      23 UNK        -0.1150 
     15 C15        -1.6294  -19.6081  -50.7043 C.3       23 UNK        -0.0205 
     16 S16        -3.0470  -20.3335  -49.8198 S.3       23 UNK        -0.2404 
     17 C17        -2.4911  -20.1978  -48.0882 C.3       23 UNK        -0.0398 
     18 CA         -1.9929  -21.5544  -47.5198 C.3       11 UNK         0.1400 
     19 N          -0.8710  -21.3946  -46.5883 N.am      11 UNK        -0.5000 
     20 C          -0.1603  -22.4044  -46.0629 C.2       10 UNK         0.5000 
     21 O          -0.3343  -23.5863  -46.3567 O.2       10 UNK        -0.5000 
     22 CA          0.8836  -22.0426  -44.9892 C.3       10 UNK         0.1400 
     23 CB          2.1923  -21.5655  -45.6348 C.3       10 UNK        -0.1800 
     24 N           0.3945  -21.0337  -44.0479 N.am      10 UNK        -0.5000 
     25 C          -0.6419  -21.2155  -43.2160 C.2       9 UNK         0.5000 
     26 O          -1.2452  -22.2817  -43.1022 O.2       9 UNK        -0.5000 
     27 CA         -1.1304  -19.9855  -42.4287 C.3       9 UNK         0.1400 
     28 CB         -0.2856  -19.7627  -41.1658 C.3       9 UNK        -0.1800 
     29 N          -1.1361  -18.7690  -43.2419 N.am      9 UNK        -0.5000 
     30 C          -1.8813  -18.5952  -44.3435 C.2       8 UNK         0.5000 
     31 O          -2.6962  -19.4187  -44.7582 O.2       8 UNK        -0.5000 
     32 CA         -1.6292  -17.3111  -45.1482 C.3       8 UNK         0.1400 
     33 CB         -2.3705  -16.1228  -44.5149 C.3       8 UNK        -0.1800 
     34 N          -0.1958  -17.0271  -45.2668 N.am      8 UNK        -0.5000 
     35 C           0.6489  -17.7502  -46.0197 C.2       7 UNK         0.5000 
     36 O           0.2898  -18.6825  -46.7357 O.2       7 UNK        -0.5000 
     37 CA          2.1515  -17.4223  -45.9204 C.3       7 UNK         0.1400 
     38 CB          2.5801  -16.4233  -47.0030 C.3       7 UNK        -0.1800 
     39 N           2.5291  -16.9121  -44.6037 N.am      7 UNK        -0.5000 
     40 C           2.5406  -17.6565  -43.4892 C.2       6 UNK         0.5000 
     41 O           2.2909  -18.8614  -43.4701 O.2       6 UNK        -0.5000 
     42 CA          2.8061  -16.9079  -42.1734 C.3       6 UNK         0.1400 
     43 CB          4.3136  -16.7749  -41.9135 C.3       6 UNK        -0.1800 
     44 N           2.1806  -15.5829  -42.1717 N.am      6 UNK        -0.5000 
     45 C           0.8560  -15.3790  -42.1057 C.2       5 UNK         0.5000 
     46 O           0.0486  -16.3077  -42.0546 O.2       5 UNK        -0.5000 
     47 CA          0.3261  -13.9268  -42.1727 C.3       5 UNK         0.1400 
     48 CB         -0.8120  -13.6717  -41.1652 C.3       5 UNK        -0.1800 
     49 N           1.3571  -12.8872  -42.0814 N.am      5 UNK        -0.5000 
     50 C           2.1920  -12.6418  -41.0601 C.2       4 UNK         0.5000 
     51 O           2.1317  -13.2238  -39.9758 O.2       4 UNK        -0.5000 
     52 CA          3.3094  -11.6029  -41.3145 C.3       4 UNK         0.1400 
     53 CB          4.5311  -11.8235  -40.3989 C.3       4 UNK        -0.1800 
     54 N           3.7522  -11.5148  -42.7140 N.am      4 UNK        -0.5000 
     55 C           4.1905  -12.5023  -43.5094 C.2       3 UNK         0.5000 
     56 O           4.2090  -13.6871  -43.1721 O.2       3 UNK        -0.5000 
     57 CA          4.6412  -12.0957  -44.9320 C.3       3 UNK         0.1400 
     58 CB          5.0235  -13.3105  -45.7975 C.3       3 UNK        -0.1800 
     59 N           3.6141  -11.3277  -45.6391 N.am      3 UNK        -0.5000 
     60 C           3.3023  -10.0429  -45.4226 C.2       2 UNK         0.5000 
     61 O           3.9138   -9.3210  -44.6336 O.2       2 UNK        -0.5000 
     62 CA          2.0734   -9.4814  -46.1657 C.3       2 UNK         0.1400 
     63 CB          2.5131   -8.7300  -47.4314 C.3       2 UNK        -0.1800 
     64 N           1.0579  -10.4780  -46.5306 N.am      2 UNK        -0.5000 
     65 C           0.4088  -11.2852  -45.6786 C.2       1 UNK         0.5000 
     66 O           0.6689  -11.3661  -44.4748 O.2       1 UNK        -0.5000 
     67 C          -3.1451  -22.3646  -46.8883 C.2       11 UNK         0.5000 
     68 O          -3.6444  -23.3023  -47.5095 O.2       11 UNK        -0.5000 
     69 N          -3.5090  -22.0236  -45.6438 N.am      12 UNK        -0.5000 
     70 CA         -4.5210  -22.7197  -44.8489 C.3       12 UNK         0.1400 
     71 CB         -4.7972  -21.9327  -43.5594 C.3       12 UNK        -0.1800 
     72 C          -4.1391  -24.1786  -44.5370 C.2       12 UNK         0.5000 
     73 O          -4.9807  -25.0653  -44.6822 O.2       12 UNK        -0.5000 
     74 N          -2.8713  -24.4142  -44.1685 N.am      13 UNK        -0.5000 
     75 CA         -2.3026  -25.7453  -43.9299 C.3       13 UNK         0.1400 
     76 CB         -0.8896  -25.6016  -43.3456 C.3       13 UNK        -0.1800 
     77 C          -2.2823  -26.6320  -45.1913 C.2       13 UNK         0.5000 
     78 O          -2.4725  -27.8440  -45.0883 O.2       13 UNK        -0.5000 
     79 N          -2.0995  -26.0048  -46.3600 N.am      14 UNK        -0.5000 
     80 CA         -2.1848  -26.6218  -47.6847 C.3       14 UNK         0.1400 
     81 CB         -1.3779  -25.7597  -48.6690 C.3       14 UNK        -0.1800 
     82 C          -3.6344  -26.8151  -48.1848 C.2       14 UNK         0.5000 
     83 O          -3.8189  -27.2871  -49.3077 O.2       14 UNK        -0.5000 
     84 N          -4.6327  -26.4294  -47.3722 N.am      15 UNK        -0.5000 
     85 CA         -6.0738  -26.4545  -47.6511 C.3       15 UNK         0.1400 
     86 CB         -6.5822  -27.9051  -47.7832 C.3       15 UNK        -0.1800 
     87 C          -6.4653  -25.5669  -48.8510 C.2       15 UNK         0.5000 
     88 O          -7.4009  -25.8925  -49.5851 O.2       15 UNK        -0.5000 
     89 N          -5.7188  -24.4686  -49.0334 N.am      16 UNK        -0.5000 
     90 CA         -5.7369  -23.5040  -50.1318 C.3       16 UNK         0.1400 
     91 CB         -7.0837  -22.7633  -50.2284 C.3       16 UNK        -0.1800 
     92 C          -5.3165  -24.1109  -51.4801 C.2       16 UNK         0.5000 
     93 O          -4.3167  -23.6764  -52.0460 O.2       16 UNK        -0.5000 
     94 N          -6.0728  -25.1006  -51.9679 N.am      17 UNK        -0.5000 
     95 CA         -6.0224  -25.6640  -53.3203 C.3       17 UNK         0.1400 
     96 CB         -7.0279  -26.8219  -53.4088 C.3       17 UNK        -0.1800 
     97 C          -4.6363  -26.1211  -53.8160 C.2       17 UNK         0.5000 
     98 O          -4.3625  -26.0078  -55.0115 O.2       17 UNK        -0.5000 
     99 N          -3.7874  -26.6174  -52.9066 N.am      18 UNK        -0.5000 
    100 CA        -2.4348  -27.0778  -53.2259 C.3       18 UNK         0.1400 
    101 CB        -2.0246  -28.1615  -52.2168 C.3       18 UNK        -0.1800 
    102 C         -1.3869  -25.9456  -53.2754 C.2       18 UNK         0.5000 
    103 O         -0.2880  -26.1853  -53.7781 O.2       18 UNK        -0.5000 
    104 N         -1.7159  -24.7547  -52.7542 N.am      19 UNK        -0.5000 
    105 CA        -0.8027  -23.6125  -52.6497 C.3       19 UNK         0.1400 
    106 CB        -0.6562  -23.2294  -51.1685 C.3       19 UNK        -0.1800 
    107 C         -1.2682  -22.3910  -53.4592 C.2       19 UNK         0.5000 
    108 O         -0.4253  -21.6120  -53.9062 O.2       19 UNK        -0.5000 
    109 N         -2.5861  -22.2143  -53.6168 N.am      20 UNK        -0.5000 
    110 CA        -3.2455  -21.0302  -54.1710 C.3       20 UNK         0.1400 
    111 CB        -4.7049  -20.9916  -53.6827 C.3       20 UNK        -0.1800 
    112 C         -3.1229  -20.8651  -55.7004 C.2       20 UNK         0.5000 
    113 O         -4.1100  -20.5542  -56.3694 O.2       20 UNK        -0.5000 
    114 N         -1.8955  -20.9749  -56.2252 N.am      21 UNK        -0.5000 
    115 CA        -1.5215  -20.5763  -57.5894 C.3       21 UNK         0.1400 
    116 CB        -0.0768  -21.0208  -57.8618 C.3       21 UNK        -0.1800 
    117 C         -1.6807  -19.0567  -57.8253 C.2       21 UNK         0.5000 
    118 O         -1.8697  -18.6235  -58.9621 O.2       21 UNK        -0.5000 
    119 N         -1.6414  -18.2927  -56.7261 N.am      22 UNK        -0.5000 
    120 CA        -2.0321  -16.8812  -56.6069 C.3       22 UNK         0.1400 
    121 C         -3.5415  -16.6142  -56.9203 C.2       22 UNK         0.5000 
    122 N         -4.4340  -17.5958  -56.8341 N.am      22 UNK        -0.7600 
    123 O         -3.9074  -15.5019  -57.2898 O.2       22 UNK        -0.5000 
    124 C124       -1.5422  -16.3461  -55.2234 C.3       23 UNK        -0.0398 
    125 S125       -2.3241  -14.8519  -54.5089 S.3       23 UNK        -0.2404 
    126 C126       -3.3817  -15.5649  -53.2019 C.3       23 UNK        -0.0205 
    127 H127       -4.5933  -11.8890  -44.0817 H         1 UNK         0.0600 
    128 H128       -3.4186  -11.5270  -42.8119 H         1 UNK         0.0600 
    129 H129       -3.4492  -13.1273  -43.5553 H         1 UNK         0.0600 
    130 H130       -1.8208  -13.4247  -45.0236 H         1 UNK         0.3000 
    131 H131       -1.1321  -11.6520  -47.1307 H         1 UNK         0.0600 
    132 H132        0.7876  -13.2741  -47.4851 H         1 UNK         0.0800 
    133 H133        0.3560  -14.0853  -46.0005 H         1 UNK         0.0800 
    134 H134        0.6328  -15.4088  -48.9629 H         1 UNK         0.0800 
    135 H135       -0.0548  -14.0141  -49.7584 H         1 UNK         0.0800 
    136 H136       -1.9146  -14.2506  -51.3233 H         1 UNK         0.1150 
    137 H137       -3.0542  -18.1965  -52.5400 H         1 UNK         0.1150 
    138 H138       -0.4321  -17.6623  -49.1896 H         1 UNK         0.1150 
    139 H139       -0.6981  -19.8842  -50.2071 H         1 UNK         0.0800 
    140 H140       -1.5743  -20.0524  -51.6966 H         1 UNK         0.0800 
    141 H141       -3.2987  -19.7747  -47.4879 H         1 UNK         0.0800 
    142 H142       -1.6990  -19.4532  -48.0539 H         1 UNK         0.0800 
    143 H143       -1.5999  -22.1502  -48.3462 H         1 UNK         0.0600 
    144 H144       -0.6239  -20.4439  -46.3362 H         1 UNK         0.3000 
    145 H145        1.1009  -22.9478  -44.4186 H         1 UNK         0.0600 
    146 H146        2.6099  -22.3382  -46.2814 H         1 UNK         0.0600 
    147 H147        2.9433  -21.3308  -44.8802 H         1 UNK         0.0600 
    148 H148        2.0411  -20.6765  -46.2458 H         1 UNK         0.0600 
    149 H149        0.8869  -20.1462  -44.0268 H         1 UNK         0.3000 
    150 H150       -2.1589  -20.1785  -42.1172 H         1 UNK         0.0600 
    151 H151        0.7589  -19.5656  -41.4054 H         1 UNK         0.0600 
    152 H152       -0.3134  -20.6410  -40.5198 H         1 UNK         0.0600 
    153 H153       -0.6596  -18.9188  -40.5856 H         1 UNK         0.0600 
    154 H154       -0.5312  -18.0136  -42.9362 H         1 UNK         0.3000 
    155 H155       -2.0312  -17.4592  -46.1532 H         1 UNK         0.0600 
    156 H156       -2.2342  -15.2152  -45.0966 H         1 UNK         0.0600 
    157 H157       -2.0422  -15.9235  -43.4962 H         1 UNK         0.0600 
    158 H158       -3.4430  -16.3173  -44.4747 H         1 UNK         0.0600 
    159 H159        0.1837  -16.3211  -44.6574 H         1 UNK         0.3000 
    160 H160        2.7002  -18.3505  -46.0920 H         1 UNK         0.0600 
    161 H161        2.1000  -15.4545  -46.8766 H         1 UNK         0.0600 
    162 H162        2.3256  -16.7958  -47.9959 H         1 UNK         0.0600 
    163 H163        3.6588  -16.2669  -46.9864 H         1 UNK         0.0600 
    164 H164        2.7668  -15.9337  -44.5314 H         1 UNK         0.3000 
    165 H165        2.3717  -17.4923  -41.3595 H         1 UNK         0.0600 
    166 H166        4.7801  -17.7569  -41.8266 H         1 UNK         0.0600 
    167 H167        4.8194  -16.2438  -42.7204 H         1 UNK         0.0600 
    168 H168        4.5081  -16.2376  -40.9851 H         1 UNK         0.0600 
    169 H169        2.8037  -14.7872  -42.2712 H         1 UNK         0.3000 
    170 H170       -0.1008  -13.8218  -43.1705 H         1 UNK         0.0600 
    171 H171       -1.2004  -12.6576  -41.2599 H         1 UNK         0.0600 
    172 H172       -0.4821  -13.8118  -40.1357 H         1 UNK         0.0600 
    173 H173       -1.6468  -14.3529  -41.3345 H         1 UNK         0.0600 
    174 H174        1.4532  -12.3165  -42.9169 H         1 UNK         0.3000 
    175 H175        2.8789  -10.6315  -41.0679 H         1 UNK         0.0600 
    176 H176        4.9823  -12.8032  -40.5609 H         1 UNK         0.0600 
    177 H177        4.2532  -11.7593  -39.3463 H         1 UNK         0.0600 
    178 H178        5.2973  -11.0685  -40.5752 H         1 UNK         0.0600 
    179 H179        3.7465  -10.5830  -43.1177 H         1 UNK         0.3000 
    180 H180        5.5309  -11.4727  -44.8203 H         1 UNK         0.0600 
    181 H181        4.1753  -13.9786  -45.9490 H         1 UNK         0.0600 
    182 H182        5.8203  -13.8907  -45.3302 H         1 UNK         0.0600 
    183 H183        5.3844  -12.9989  -46.7777 H         1 UNK         0.0600 
    184 H184        3.0434  -11.8424  -46.2918 H         1 UNK         0.3000 
    185 H185        1.5954   -8.7654  -45.4940 H         1 UNK         0.0600 
    186 H186        3.2493   -7.9606  -47.1946 H         1 UNK         0.0600 
    187 H187        2.9648   -9.4027  -48.1617 H         1 UNK         0.0600 
    188 H188        1.6691   -8.2319  -47.9091 H         1 UNK         0.0600 
    189 H189        0.7895  -10.4875  -47.5043 H         1 UNK         0.3000 
    190 H190       -3.0741  -21.2094  -45.2164 H         1 UNK         0.3000 
    191 H191       -5.4419  -22.7388  -45.4356 H         1 UNK         0.0600 
    192 H192       -5.1261  -20.9171  -43.7806 H         1 UNK         0.0600 
    193 H193       -5.5829  -22.4096  -42.9723 H         1 UNK         0.0600 
    194 H194       -3.9111  -21.8659  -42.9284 H         1 UNK         0.0600 
    195 H195       -2.2518  -23.6222  -44.0162 H         1 UNK         0.3000 
    196 H196       -2.9282  -26.2444  -43.1871 H         1 UNK         0.0600 
    197 H197       -0.4548  -26.5780  -43.1286 H         1 UNK         0.0600 
    198 H198       -0.9039  -25.0372  -42.4131 H         1 UNK         0.0600 
    199 H199       -0.2194  -25.0896  -44.0363 H         1 UNK         0.0600 
    200 H200       -1.8902  -25.0124  -46.3446 H         1 UNK         0.3000 
    201 H201       -1.7236  -27.6103  -47.6420 H         1 UNK         0.0600 
    202 H202       -1.3519  -26.2035  -49.6632 H         1 UNK         0.0600 
    203 H203       -0.3446  -25.6479  -48.3402 H         1 UNK         0.0600 
    204 H204       -1.8050  -24.7623  -48.7694 H         1 UNK         0.0600 
    205 H205       -4.3830  -26.0260  -46.4770 H         1 UNK         0.3000 
    206 H206       -6.5602  -26.0138  -46.7801 H         1 UNK         0.0600 
    207 H207       -6.2895  -28.5048  -46.9214 H         1 UNK         0.0600 
    208 H208       -7.6708  -27.9338  -47.8424 H         1 UNK         0.0600 
    209 H209       -6.1943  -28.3916  -48.6786 H         1 UNK         0.0600 
    210 H210       -4.9664  -24.3006  -48.3683 H         1 UNK         0.3000 
    211 H211       -4.9802  -22.7601  -49.8791 H         1 UNK         0.0600 
    212 H212       -7.3257  -22.2682  -49.2880 H         1 UNK         0.0600 
    213 H213       -7.0457  -21.9934  -51.0001 H         1 UNK         0.0600 
    214 H214       -7.9082  -23.4317  -50.4766 H         1 UNK         0.0600 
    215 H215       -6.8132  -25.4426  -51.3617 H         1 UNK         0.3000 
    216 H216       -6.3549  -24.8758  -53.9984 H         1 UNK         0.0600 
    217 H217       -6.7809  -27.6199  -52.7073 H         1 UNK         0.0600 
    218 H218       -7.0423  -27.2554  -54.4098 H         1 UNK         0.0600 
    219 H219       -8.0405  -26.4835  -53.1882 H         1 UNK         0.0600 
    220 H220       -4.0767  -26.6712  -51.9389 H         1 UNK         0.3000 
    221 H221       -2.4444  -27.5435  -54.2138 H         1 UNK         0.0600 
    222 H222       -1.9891  -27.7746  -51.2002 H         1 UNK         0.0600 
    223 H223       -2.7239  -28.9976  -52.2308 H         1 UNK         0.0600 
    224 H224       -1.0369  -28.5615  -52.4496 H         1 UNK         0.0600 
    225 H225       -2.6580  -24.6151  -52.4025 H         1 UNK         0.3000 
    226 H226        0.1892  -23.8739  -53.0237 H         1 UNK         0.0600 
    227 H227       -0.1787  -24.0301  -50.6049 H         1 UNK         0.0600 
    228 H228       -0.0366  -22.3398  -51.0483 H         1 UNK         0.0600 
    229 H229       -1.6242  -23.0230  -50.7102 H         1 UNK         0.0600 
    230 H230       -3.2130  -22.8813  -53.1718 H         1 UNK         0.3000 
    231 H231       -2.7500  -20.1563  -53.7480 H         1 UNK         0.0600 
    232 H232       -5.2721  -21.8482  -54.0486 H         1 UNK         0.0600 
    233 H233       -5.2139  -20.0877  -54.0197 H         1 UNK         0.0600 
    234 H234       -4.7542  -20.9954  -52.5935 H         1 UNK         0.0600 
    235 H235       -1.1401  -21.2238  -55.5910 H         1 UNK         0.3000 
    236 H236       -2.1820  -21.0922  -58.2892 H         1 UNK         0.0600 
    237 H237        0.6258  -20.5480  -57.1743 H         1 UNK         0.0600 
    238 H238        0.0289  -22.1010  -57.7591 H         1 UNK         0.0600 
    239 H239        0.2280  -20.7594  -58.8760 H         1 UNK         0.0600 
    240 H240       -1.4432  -18.7640  -55.8573 H         1 UNK         0.3000 
    241 H241       -1.4811  -16.3364  -57.3757 H         1 UNK         0.0600 
    242 H242       -4.1699  -18.5478  -56.6113 H         1 UNK         0.3800 
    243 H243       -5.3954  -17.3956  -57.0597 H         1 UNK         0.3800 
    244 H244       -1.6294  -17.1381  -54.4806 H         1 UNK         0.0800 
    245 H245       -0.4715  -16.1480  -55.2866 H         1 UNK         0.0800 
    246 H246       -4.0294  -14.7807  -52.8076 H         1 UNK         0.0800 
    247 H247       -4.0432  -16.3132  -53.6417 H         1 UNK         0.0800 
@<TRIPOS>BOND
     1    1    2 1    
     2    1  127 1    
     3    1  128 1    
     4    1  129 1    
     5    2    3 2    
     6    2    4 am   BACKBONE|DICT|INTERRES
     7    4    5 1    
     8    4  130 1    
     9    5    6 1    
    10    5   65 1    
    11    5  131 1    
    12    6    7 1    
    13    6  132 1    
    14    6  133 1    
    15    7    8 1    
    16    8    9 1    
    17    8  134 1    
    18    8  135 1    
    19    9   10 ar   
    20    9   14 ar   
    21   10   11 ar   
    22   10  136 1    
    23   11   12 ar   
    24   11  126 1    
    25   12   13 ar   
    26   12  137 1    
    27   13   14 ar   
    28   13   15 1    
    29   14  138 1    
    30   15   16 1    
    31   15  139 1    
    32   15  140 1    
    33   16   17 1    
    34   17   18 1    
    35   17  141 1    
    36   17  142 1    
    37   18   19 1    
    38   18   67 1    
    39   18  143 1    
    40   19   20 am   BACKBONE|DICT|INTERRES
    41   19  144 1    
    42   20   21 2    
    43   20   22 1    
    44   22   23 1    
    45   22   24 1    
    46   22  145 1    
    47   23  146 1    
    48   23  147 1    
    49   23  148 1    
    50   24   25 am   BACKBONE|DICT|INTERRES
    51   24  149 1    
    52   25   26 2    
    53   25   27 1    
    54   27   28 1    
    55   27   29 1    
    56   27  150 1    
    57   28  151 1    
    58   28  152 1    
    59   28  153 1    
    60   29   30 am   BACKBONE|DICT|INTERRES
    61   29  154 1    
    62   30   31 2    
    63   30   32 1    
    64   32   33 1    
    65   32   34 1    
    66   32  155 1    
    67   33  156 1    
    68   33  157 1    
    69   33  158 1    
    70   34   35 am   BACKBONE|DICT|INTERRES
    71   34  159 1    
    72   35   36 2    
    73   35   37 1    
    74   37   38 1    
    75   37   39 1    
    76   37  160 1    
    77   38  161 1    
    78   38  162 1    
    79   38  163 1    
    80   39   40 am   BACKBONE|DICT|INTERRES
    81   39  164 1    
    82   40   41 2    
    83   40   42 1    
    84   42   43 1    
    85   42   44 1    
    86   42  165 1    
    87   43  166 1    
    88   43  167 1    
    89   43  168 1    
    90   44   45 am   BACKBONE|DICT|INTERRES
    91   44  169 1    
    92   45   46 2    
    93   45   47 1    
    94   47   48 1    
    95   47   49 1    
    96   47  170 1    
    97   48  171 1    
    98   48  172 1    
    99   48  173 1    
   100   49   50 am   BACKBONE|DICT|INTERRES
   101   49  174 1    
   102   50   51 2    
   103   50   52 1    
   104   52   53 1    
   105   52   54 1    
   106   52  175 1    
   107   53  176 1    
   108   53  177 1    
   109   53  178 1    
   110   54   55 am   BACKBONE|DICT|INTERRES
   111   54  179 1    
   112   55   56 2    
   113   55   57 1    
   114   57   58 1    
   115   57   59 1    
   116   57  180 1    
   117   58  181 1    
   118   58  182 1    
   119   58  183 1    
   120   59   60 am   BACKBONE|DICT|INTERRES
   121   59  184 1    
   122   60   61 2    
   123   60   62 1    
   124   62   63 1    
   125   62   64 1    
   126   62  185 1    
   127   63  186 1    
   128   63  187 1    
   129   63  188 1    
   130   64   65 am   BACKBONE|DICT|INTERRES
   131   64  189 1    
   132   65   66 2    
   133   67   68 2    
   134   67   69 am   BACKBONE|DICT|INTERRES
   135   69   70 1    
   136   69  190 1    
   137   70   71 1    
   138   70   72 1    
   139   70  191 1    
   140   71  192 1    
   141   71  193 1    
   142   71  194 1    
   143   72   73 2    
   144   72   74 am   BACKBONE|DICT|INTERRES
   145   74   75 1    
   146   74  195 1    
   147   75   76 1    
   148   75   77 1    
   149   75  196 1    
   150   76  197 1    
   151   76  198 1    
   152   76  199 1    
   153   77   78 2    
   154   77   79 am   BACKBONE|DICT|INTERRES
   155   79   80 1    
   156   79  200 1    
   157   80   81 1    
   158   80   82 1    
   159   80  201 1    
   160   81  202 1    
   161   81  203 1    
   162   81  204 1    
   163   82   83 2    
   164   82   84 am   BACKBONE|DICT|INTERRES
   165   84   85 1    
   166   84  205 1    
   167   85   86 1    
   168   85   87 1    
   169   85  206 1    
   170   86  207 1    
   171   86  208 1    
   172   86  209 1    
   173   87   88 2    
   174   87   89 am   BACKBONE|DICT|INTERRES
   175   89   90 1    
   176   89  210 1    
   177   90   91 1    
   178   90   92 1    
   179   90  211 1    
   180   91  212 1    
   181   91  213 1    
   182   91  214 1    
   183   92   93 2    
   184   92   94 am   BACKBONE|DICT|INTERRES
   185   94   95 1    
   186   94  215 1    
   187   95   96 1    
   188   95   97 1    
   189   95  216 1    
   190   96  217 1    
   191   96  218 1    
   192   96  219 1    
   193   97   98 2    
   194   97   99 am   BACKBONE|DICT|INTERRES
   195   99  100 1    
   196   99  220 1    
   197  100  101 1    
   198  100  102 1    
   199  100  221 1    
   200  101  222 1    
   201  101  223 1    
   202  101  224 1    
   203  102  103 2    
   204  102  104 am   BACKBONE|DICT|INTERRES
   205  104  105 1    
   206  104  225 1    
   207  105  106 1    
   208  105  107 1    
   209  105  226 1    
   210  106  227 1    
   211  106  228 1    
   212  106  229 1    
   213  107  108 2    
   214  107  109 am   BACKBONE|DICT|INTERRES
   215  109  110 1    
   216  109  230 1    
   217  110  111 1    
   218  110  112 1    
   219  110  231 1    
   220  111  232 1    
   221  111  233 1    
   222  111  234 1    
   223  112  113 2    
   224  112  114 am   BACKBONE|DICT|INTERRES
   225  114  115 1    
   226  114  235 1    
   227  115  116 1    
   228  115  117 1    
   229  115  236 1    
   230  116  237 1    
   231  116  238 1    
   232  116  239 1    
   233  117  118 2    
   234  117  119 am   BACKBONE|DICT|INTERRES
   235  119  120 1    
   236  119  240 1    
   237  120  121 1    
   238  120  124 1    
   239  120  241 1    
   240  121  122 am   BACKBONE|DICT|INTERRES
   241  121  123 2    
   242  122  242 1    
   243  122  243 1    
   244  124  125 1    
   245  124  244 1    
   246  124  245 1    
   247  125  126 1    
   248  126  246 1    
   249  126  247 1    
@<TRIPOS>SUBSTRUCTURE
     1 UNK         1 GROUP             0       ****    0 ROOT    
