@<TRIPOS>MOLECULE
3R540
247   249    1
SMALL
USER_CHARGES


@<TRIPOS>ATOM
      1 CA         -1.3936   -9.5384  -47.7294 C.3       0 UNK        -0.1800 
      2 C          -0.6346  -10.7022  -47.1096 C.2       0 UNK         0.5000 
      3 O          -0.1683  -10.5954  -45.9759 O.2       0 UNK        -0.5000 
      4 N          -0.5242  -11.8230  -47.8368 N.am      1 UNK        -0.5000 
      5 CA          0.1934  -13.0376  -47.4190 C.3       1 UNK         0.1400 
      6 C6          0.3220  -14.0461  -48.5894 C.3       23 UNK        -0.0398 
      7 S7          1.7737  -15.1362  -48.4087 S.3       23 UNK        -0.2404 
      8 C8          2.1331  -15.5788  -50.1368 C.3       23 UNK        -0.0205 
      9 C9          1.4355  -16.8658  -50.5507 C.ar      23 UNK        -0.0193 
     10 C10         0.1638  -16.8373  -51.1317 C.ar      23 UNK        -0.1150 
     11 C11        -0.4576  -18.0199  -51.5498 C.ar      23 UNK        -0.0193 
     12 C12         0.2113  -19.2368  -51.3712 C.ar      23 UNK        -0.1150 
     13 C13         1.4832  -19.2803  -50.7943 C.ar      23 UNK        -0.0193 
     14 C14         2.0860  -18.0903  -50.3809 C.ar      23 UNK        -0.1150 
     15 C15         2.2320  -20.6006  -50.6554 C.3       23 UNK        -0.0205 
     16 S16         1.3045  -21.8775  -49.7459 S.3       23 UNK        -0.2404 
     17 C17         1.1193  -21.1173  -48.0979 C.3       23 UNK        -0.0398 
     18 CA         -0.3272  -21.2322  -47.5603 C.3       11 UNK         0.1400 
     19 N          -0.3682  -21.1315  -46.0981 N.am      11 UNK        -0.5000 
     20 C          -1.4477  -21.3874  -45.3454 C.2       10 UNK         0.5000 
     21 O          -2.5229  -21.7749  -45.8011 O.2       10 UNK        -0.5000 
     22 CA         -1.3251  -21.1030  -43.8385 C.3       10 UNK         0.1400 
     23 CB         -0.5647  -22.2311  -43.1260 C.3       10 UNK        -0.1800 
     24 N          -0.6766  -19.8173  -43.5788 N.am      10 UNK        -0.5000 
     25 C          -1.2045  -18.6299  -43.9105 C.2       9 UNK         0.5000 
     26 O          -2.3409  -18.4972  -44.3648 O.2       9 UNK        -0.5000 
     27 CA         -0.3049  -17.3899  -43.7544 C.3       9 UNK         0.1400 
     28 CB         -0.4012  -16.8099  -42.3369 C.3       9 UNK        -0.1800 
     29 N           1.0956  -17.6517  -44.0793 N.am      9 UNK        -0.5000 
     30 C           1.5522  -17.9864  -45.2925 C.2       8 UNK         0.5000 
     31 O           0.8348  -18.1159  -46.2804 O.2       8 UNK        -0.5000 
     32 CA          3.0515  -18.3055  -45.4052 C.3       8 UNK         0.1400 
     33 CB          3.8963  -17.0263  -45.5002 C.3       8 UNK        -0.1800 
     34 N           3.5147  -19.1169  -44.2815 N.am      8 UNK        -0.5000 
     35 C           3.1849  -20.4003  -44.0881 C.2       7 UNK         0.5000 
     36 O           2.4800  -21.0493  -44.8624 O.2       7 UNK        -0.5000 
     37 CA          3.7046  -21.0529  -42.7933 C.3       7 UNK         0.1400 
     38 CB          5.1579  -21.5192  -42.9659 C.3       7 UNK        -0.1800 
     39 N           3.6140  -20.1623  -41.6330 N.am      7 UNK        -0.5000 
     40 C           2.4578  -19.7724  -41.0792 C.2       6 UNK         0.5000 
     41 O           1.3534  -20.1296  -41.4868 O.2       6 UNK        -0.5000 
     42 CA          2.5402  -18.7895  -39.8948 C.3       6 UNK         0.1400 
     43 CB          2.8203  -19.5470  -38.5880 C.3       6 UNK        -0.1800 
     44 N           3.5133  -17.6992  -40.0412 N.am      6 UNK        -0.5000 
     45 C           3.6059  -16.8701  -41.0895 C.2       5 UNK         0.5000 
     46 O           2.9996  -17.0358  -42.1476 O.2       5 UNK        -0.5000 
     47 CA          4.5532  -15.6634  -40.9410 C.3       5 UNK         0.1400 
     48 CB          5.9972  -16.0821  -41.2576 C.3       5 UNK        -0.1800 
     49 N           4.1833  -14.5532  -41.8254 N.am      5 UNK        -0.5000 
     50 C           3.0136  -13.8970  -41.8042 C.2       4 UNK         0.5000 
     51 O           2.1488  -14.0855  -40.9440 O.2       4 UNK        -0.5000 
     52 CA          2.7918  -12.8595  -42.9294 C.3       4 UNK         0.1400 
     53 CB          3.2481  -13.3824  -44.3049 C.3       4 UNK        -0.1800 
     54 N           1.3899  -12.4480  -43.0299 N.am      4 UNK        -0.5000 
     55 C           0.7982  -11.5393  -42.2405 C.2       3 UNK         0.5000 
     56 O           1.4035  -10.9010  -41.3769 O.2       3 UNK        -0.5000 
     57 CA         -0.7095  -11.2761  -42.4420 C.3       3 UNK         0.1400 
     58 CB         -0.9804   -9.7836  -42.6993 C.3       3 UNK        -0.1800 
     59 N          -1.2761  -12.0501  -43.5481 N.am      3 UNK        -0.5000 
     60 C          -1.9460  -13.2044  -43.4171 C.2       2 UNK         0.5000 
     61 O          -2.1915  -13.7285  -42.3308 O.2       2 UNK        -0.5000 
     62 CA         -2.4258  -13.9026  -44.7093 C.3       2 UNK         0.1400 
     63 CB         -3.9295  -13.6738  -44.9224 C.3       2 UNK        -0.1800 
     64 N          -1.7112  -13.4847  -45.9179 N.am      2 UNK        -0.5000 
     65 C          -0.4060  -13.6878  -46.1485 C.2       1 UNK         0.5000 
     66 O           0.3228  -14.2962  -45.3677 O.2       1 UNK        -0.5000 
     67 C          -1.2903  -20.2337  -48.2419 C.2       11 UNK         0.5000 
     68 O          -1.9553  -20.5954  -49.2089 O.2       11 UNK        -0.5000 
     69 N          -1.4054  -19.0184  -47.6898 N.am      12 UNK        -0.5000 
     70 CA         -2.3343  -17.9811  -48.1387 C.3       12 UNK         0.1400 
     71 CB         -2.0875  -16.6946  -47.3403 C.3       12 UNK        -0.1800 
     72 C          -3.8159  -18.3948  -48.0434 C.2       12 UNK         0.5000 
     73 O          -4.6220  -17.9310  -48.8498 O.2       12 UNK        -0.5000 
     74 N          -4.1439  -19.2515  -47.0676 N.am      13 UNK        -0.5000 
     75 CA         -5.4767  -19.8127  -46.8724 C.3       13 UNK         0.1400 
     76 CB         -5.7045  -20.0543  -45.3716 C.3       13 UNK        -0.1800 
     77 C          -5.6766  -21.1139  -47.6694 C.2       13 UNK         0.5000 
     78 O          -6.7112  -21.2712  -48.3186 O.2       13 UNK        -0.5000 
     79 N          -4.7035  -22.0294  -47.5884 N.am      14 UNK        -0.5000 
     80 CA         -4.7906  -23.3905  -48.1038 C.3       14 UNK         0.1400 
     81 CB         -5.1966  -24.3338  -46.9566 C.3       14 UNK        -0.1800 
     82 C          -3.4617  -23.7913  -48.7590 C.2       14 UNK         0.5000 
     83 O          -2.6842  -24.5487  -48.1761 O.2       14 UNK        -0.5000 
     84 N          -3.2252  -23.2729  -49.9690 N.am      15 UNK        -0.5000 
     85 CA         -2.0657  -23.5996  -50.8017 C.3       15 UNK         0.1400 
     86 CB         -1.9694  -22.5860  -51.9527 C.3       15 UNK        -0.1800 
     87 C          -2.1508  -25.0307  -51.3618 C.2       15 UNK         0.5000 
     88 O          -1.1480  -25.7439  -51.3967 O.2       15 UNK        -0.5000 
     89 N          -3.3630  -25.4169  -51.7700 N.am      16 UNK        -0.5000 
     90 CA         -3.7335  -26.7327  -52.2704 C.3       16 UNK         0.1400 
     91 CB         -3.5214  -26.7842  -53.7954 C.3       16 UNK        -0.1800 
     92 C          -5.1895  -26.9631  -51.8443 C.2       16 UNK         0.5000 
     93 O          -6.0953  -26.9124  -52.6770 O.2       16 UNK        -0.5000 
     94 N          -5.3927  -27.0842  -50.5230 N.am      17 UNK        -0.5000 
     95 CA         -6.6643  -27.1224  -49.7766 C.3       17 UNK         0.1400 
     96 CB         -7.5890  -28.2546  -50.2629 C.3       17 UNK        -0.1800 
     97 C          -7.4031  -25.7672  -49.7348 C.2       17 UNK         0.5000 
     98 O          -7.9648  -25.4131  -48.6987 O.2       17 UNK        -0.5000 
     99 N          -7.3382  -25.0176  -50.8356 N.am      18 UNK        -0.5000 
    100 CA        -7.6945  -23.6108  -50.9713 C.3       18 UNK         0.1400 
    101 CB        -8.9427  -23.5042  -51.8633 C.3       18 UNK        -0.1800 
    102 C         -6.4956  -22.8830  -51.6047 C.2       18 UNK         0.5000 
    103 O         -5.4953  -23.5217  -51.9494 O.2       18 UNK        -0.5000 
    104 N         -6.6037  -21.5636  -51.7899 N.am      19 UNK        -0.5000 
    105 CA        -5.6144  -20.7177  -52.4708 C.3       19 UNK         0.1400 
    106 CB        -5.8362  -19.2605  -52.0313 C.3       19 UNK        -0.1800 
    107 C         -5.6478  -20.8908  -54.0102 C.2       19 UNK         0.5000 
    108 O         -5.7162  -19.9072  -54.7487 O.2       19 UNK        -0.5000 
    109 N         -5.6456  -22.1496  -54.4645 N.am      20 UNK        -0.5000 
    110 CA        -5.7897  -22.5508  -55.8634 C.3       20 UNK         0.1400 
    111 CB        -6.4936  -23.9168  -55.9037 C.3       20 UNK        -0.1800 
    112 C         -4.4466  -22.6181  -56.6121 C.2       20 UNK         0.5000 
    113 O         -4.4390  -22.5149  -57.8395 O.2       20 UNK        -0.5000 
    114 N         -3.3475  -22.8073  -55.8707 N.am      21 UNK        -0.5000 
    115 CA        -1.9837  -22.8607  -56.3906 C.3       21 UNK         0.1400 
    116 CB        -1.1899  -23.9284  -55.6109 C.3       21 UNK        -0.1800 
    117 C         -1.3672  -21.4506  -56.3372 C.2       21 UNK         0.5000 
    118 O         -1.6503  -20.6388  -57.2191 O.2       21 UNK        -0.5000 
    119 N         -0.5548  -21.1809  -55.3058 N.am      22 UNK        -0.5000 
    120 CA         0.0758  -19.8775  -55.0099 C.3       22 UNK         0.1400 
    121 C          1.1939  -19.4481  -56.0098 C.2       22 UNK         0.5000 
    122 N          1.7346  -20.3479  -56.8226 N.am      22 UNK        -0.7600 
    123 O          1.6043  -18.2909  -56.0340 O.2       22 UNK        -0.5000 
    124 C124       -0.9554  -18.7397  -54.7482 C.3       23 UNK        -0.0398 
    125 S125       -2.1870  -19.1820  -53.4740 S.3       23 UNK        -0.2404 
    126 C126       -1.8570  -17.9550  -52.1639 C.3       23 UNK        -0.0205 
    127 H127       -1.7615   -9.7788  -48.7271 H         1 UNK         0.0600 
    128 H128       -0.7436   -8.6669  -47.8068 H         1 UNK         0.0600 
    129 H129       -2.2475   -9.2737  -47.1057 H         1 UNK         0.0600 
    130 H130       -0.9377  -11.8493  -48.7582 H         1 UNK         0.3000 
    131 H131        1.1990  -12.7066  -47.1491 H         1 UNK         0.0600 
    132 H132        0.4454  -13.4965  -49.5231 H         1 UNK         0.0800 
    133 H133       -0.5813  -14.6422  -48.7184 H         1 UNK         0.0800 
    134 H134        3.2123  -15.7015  -50.2406 H         1 UNK         0.0800 
    135 H135        1.8640  -14.7648  -50.8109 H         1 UNK         0.0800 
    136 H136       -0.3402  -15.8899  -51.2610 H         1 UNK         0.1150 
    137 H137       -0.2557  -20.1596  -51.6788 H         1 UNK         0.1150 
    138 H138        3.0721  -18.1120  -49.9386 H         1 UNK         0.1150 
    139 H139        2.4553  -20.9782  -51.6540 H         1 UNK         0.0800 
    140 H140        3.1940  -20.4523  -50.1625 H         1 UNK         0.0800 
    141 H141        1.4544  -20.0790  -48.1058 H         1 UNK         0.0800 
    142 H142        1.8060  -21.6457  -47.4356 H         1 UNK         0.0800 
    143 H143       -0.6928  -22.2338  -47.7992 H         1 UNK         0.0600 
    144 H144        0.4844  -20.8286  -45.6413 H         1 UNK         0.3000 
    145 H145       -2.3348  -21.0621  -43.4243 H         1 UNK         0.0600 
    146 H146       -0.5605  -22.0807  -42.0464 H         1 UNK         0.0600 
    147 H147        0.4716  -22.2944  -43.4582 H         1 UNK         0.0600 
    148 H148       -1.0316  -23.1981  -43.3171 H         1 UNK         0.0600 
    149 H149        0.2328  -19.8457  -43.1291 H         1 UNK         0.3000 
    150 H150       -0.6635  -16.6373  -44.4568 H         1 UNK         0.0600 
    151 H151       -1.4352  -16.5782  -42.0785 H         1 UNK         0.0600 
    152 H152        0.1697  -15.8844  -42.2525 H         1 UNK         0.0600 
    153 H153       -0.0210  -17.5079  -41.5908 H         1 UNK         0.0600 
    154 H154        1.7711  -17.5313  -43.3257 H         1 UNK         0.3000 
    155 H155        3.1999  -18.8748  -46.3255 H         1 UNK         0.0600 
    156 H156        3.8563  -16.4453  -44.5796 H         1 UNK         0.0600 
    157 H157        3.5456  -16.3850  -46.3089 H         1 UNK         0.0600 
    158 H158        4.9417  -17.2605  -45.7008 H         1 UNK         0.0600 
    159 H159        4.0144  -18.6306  -43.5508 H         1 UNK         0.3000 
    160 H160        3.0877  -21.9324  -42.5961 H         1 UNK         0.0600 
    161 H161        5.8339  -20.6808  -43.1384 H         1 UNK         0.0600 
    162 H162        5.2515  -22.1969  -43.8156 H         1 UNK         0.0600 
    163 H163        5.5068  -22.0561  -42.0836 H         1 UNK         0.0600 
    164 H164        4.4790  -19.8138  -41.2470 H         1 UNK         0.3000 
    165 H165        1.5582  -18.3214  -39.8040 H         1 UNK         0.0600 
    166 H166        2.7437  -18.8866  -37.7240 H         1 UNK         0.0600 
    167 H167        2.1012  -20.3543  -38.4414 H         1 UNK         0.0600 
    168 H168        3.8168  -19.9902  -38.5853 H         1 UNK         0.0600 
    169 H169        4.0754  -17.5027  -39.2257 H         1 UNK         0.3000 
    170 H170        4.5019  -15.3059  -39.9107 H         1 UNK         0.0600 
    171 H171        6.0964  -16.4374  -42.2844 H         1 UNK         0.0600 
    172 H172        6.6885  -15.2502  -41.1218 H         1 UNK         0.0600 
    173 H173        6.3277  -16.8863  -40.5991 H         1 UNK         0.0600 
    174 H174        4.8302  -14.3516  -42.5726 H         1 UNK         0.3000 
    175 H175        3.3963  -11.9832  -42.6874 H         1 UNK         0.0600 
    176 H176        2.7829  -14.3392  -44.5412 H         1 UNK         0.0600 
    177 H177        2.9893  -12.6826  -45.0999 H         1 UNK         0.0600 
    178 H178        4.3285  -13.5221  -44.3450 H         1 UNK         0.0600 
    179 H179        0.8225  -12.9646  -43.6905 H         1 UNK         0.3000 
    180 H180       -1.2057  -11.5456  -41.5075 H         1 UNK         0.0600 
    181 H181       -2.0444   -9.5943  -42.8424 H         1 UNK         0.0600 
    182 H182       -0.4535   -9.4241  -43.5834 H         1 UNK         0.0600 
    183 H183       -0.6551   -9.1745  -41.8551 H         1 UNK         0.0600 
    184 H184       -1.0809  -11.6914  -44.4770 H         1 UNK         0.3000 
    185 H185       -2.2652  -14.9730  -44.5757 H         1 UNK         0.0600 
    186 H186       -4.1564  -12.6196  -45.0861 H         1 UNK         0.0600 
    187 H187       -4.2959  -14.2359  -45.7818 H         1 UNK         0.0600 
    188 H188       -4.5021  -14.0023  -44.0540 H         1 UNK         0.0600 
    189 H189       -2.2380  -12.9489  -46.5920 H         1 UNK         0.3000 
    190 H190       -0.7501  -18.7561  -46.9569 H         1 UNK         0.3000 
    191 H191       -2.1056  -17.7755  -49.1832 H         1 UNK         0.0600 
    192 H192       -2.4238  -16.7871  -46.3089 H         1 UNK         0.0600 
    193 H193       -2.6248  -15.8545  -47.7812 H         1 UNK         0.0600 
    194 H194       -1.0287  -16.4400  -47.3216 H         1 UNK         0.0600 
    195 H195       -3.4146  -19.5736  -46.4450 H         1 UNK         0.3000 
    196 H196       -6.2272  -19.0944  -47.2097 H         1 UNK         0.0600 
    197 H197       -5.6263  -19.1241  -44.8082 H         1 UNK         0.0600 
    198 H198       -4.9781  -20.7548  -44.9577 H         1 UNK         0.0600 
    199 H199       -6.6984  -20.4644  -45.1884 H         1 UNK         0.0600 
    200 H200       -3.8721  -21.8275  -47.0353 H         1 UNK         0.3000 
    201 H201       -5.5568  -23.4568  -48.8759 H         1 UNK         0.0600 
    202 H202       -6.1895  -24.0876  -46.5798 H         1 UNK         0.0600 
    203 H203       -4.4973  -24.2755  -46.1214 H         1 UNK         0.0600 
    204 H204       -5.2259  -25.3708  -47.2925 H         1 UNK         0.0600 
    205 H205       -3.9012  -22.6410  -50.3717 H         1 UNK         0.3000 
    206 H206       -1.1686  -23.5175  -50.1859 H         1 UNK         0.0600 
    207 H207       -1.0077  -22.6698  -52.4582 H         1 UNK         0.0600 
    208 H208       -2.7552  -22.7318  -52.6942 H         1 UNK         0.0600 
    209 H209       -2.0526  -21.5642  -51.5887 H         1 UNK         0.0600 
    210 H210       -4.1259  -24.7444  -51.7158 H         1 UNK         0.3000 
    211 H211       -3.1199  -27.5035  -51.7995 H         1 UNK         0.0600 
    212 H212       -4.0785  -25.9985  -54.3067 H         1 UNK         0.0600 
    213 H213       -3.8472  -27.7416  -54.2033 H         1 UNK         0.0600 
    214 H214       -2.4682  -26.6633  -54.0488 H         1 UNK         0.0600 
    215 H215       -4.5691  -27.0660  -49.9373 H         1 UNK         0.3000 
    216 H216       -6.3879  -27.3529  -48.7465 H         1 UNK         0.0600 
    217 H217       -8.4534  -28.3551  -49.6055 H         1 UNK         0.0600 
    218 H218       -7.0708  -29.2135  -50.2674 H         1 UNK         0.0600 
    219 H219       -7.9694  -28.0722  -51.2681 H         1 UNK         0.0600 
    220 H220       -6.8419  -25.4098  -51.6304 H         1 UNK         0.3000 
    221 H221       -7.8945  -23.1648  -49.9952 H         1 UNK         0.0600 
    222 H222       -8.7526  -23.8840  -52.8683 H         1 UNK         0.0600 
    223 H223       -9.7726  -24.0733  -51.4440 H         1 UNK         0.0600 
    224 H224       -9.2771  -22.4707  -51.9582 H         1 UNK         0.0600 
    225 H225       -7.4503  -21.1001  -51.4931 H         1 UNK         0.3000 
    226 H226       -4.6163  -21.0097  -52.1387 H         1 UNK         0.0600 
    227 H227       -5.7753  -19.1662  -50.9473 H         1 UNK         0.0600 
    228 H228       -5.0784  -18.6008  -52.4551 H         1 UNK         0.0600 
    229 H229       -6.8117  -18.8883  -52.3461 H         1 UNK         0.0600 
    230 H230       -5.5933  -22.8924  -53.7749 H         1 UNK         0.3000 
    231 H231       -6.4225  -21.8277  -56.3824 H         1 UNK         0.0600 
    232 H232       -6.6377  -24.2535  -56.9311 H         1 UNK         0.0600 
    233 H233       -7.4781  -23.8659  -55.4381 H         1 UNK         0.0600 
    234 H234       -5.9179  -24.6834  -55.3836 H         1 UNK         0.0600 
    235 H235       -3.4537  -22.8367  -54.8687 H         1 UNK         0.3000 
    236 H236       -1.9935  -23.1658  -57.4392 H         1 UNK         0.0600 
    237 H237       -1.2155  -23.7661  -54.5346 H         1 UNK         0.0600 
    238 H238       -1.5994  -24.9214  -55.7971 H         1 UNK         0.0600 
    239 H239       -0.1453  -23.9511  -55.9239 H         1 UNK         0.0600 
    240 H240       -0.3640  -21.9156  -54.6418 H         1 UNK         0.3000 
    241 H241        0.6134  -20.0340  -54.0750 H         1 UNK         0.0600 
    242 H242        2.4635  -20.0665  -57.4596 H         1 UNK         0.3800 
    243 H243        1.4191  -21.3043  -56.8128 H         1 UNK         0.3800 
    244 H244       -0.4438  -17.8268  -54.4395 H         1 UNK         0.0800 
    245 H245       -1.4887  -18.4857  -55.6649 H         1 UNK         0.0800 
    246 H246       -2.0461  -16.9608  -52.5714 H         1 UNK         0.0800 
    247 H247       -2.5926  -18.1094  -51.3749 H         1 UNK         0.0800 
@<TRIPOS>BOND
     1    1    2 1    
     2    1  127 1    
     3    1  128 1    
     4    1  129 1    
     5    2    3 2    
     6    2    4 am   BACKBONE|DICT|INTERRES
     7    4    5 1    
     8    4  130 1    
     9    5    6 1    
    10    5   65 1    
    11    5  131 1    
    12    6    7 1    
    13    6  132 1    
    14    6  133 1    
    15    7    8 1    
    16    8    9 1    
    17    8  134 1    
    18    8  135 1    
    19    9   10 ar   
    20    9   14 ar   
    21   10   11 ar   
    22   10  136 1    
    23   11   12 ar   
    24   11  126 1    
    25   12   13 ar   
    26   12  137 1    
    27   13   14 ar   
    28   13   15 1    
    29   14  138 1    
    30   15   16 1    
    31   15  139 1    
    32   15  140 1    
    33   16   17 1    
    34   17   18 1    
    35   17  141 1    
    36   17  142 1    
    37   18   19 1    
    38   18   67 1    
    39   18  143 1    
    40   19   20 am   BACKBONE|DICT|INTERRES
    41   19  144 1    
    42   20   21 2    
    43   20   22 1    
    44   22   23 1    
    45   22   24 1    
    46   22  145 1    
    47   23  146 1    
    48   23  147 1    
    49   23  148 1    
    50   24   25 am   BACKBONE|DICT|INTERRES
    51   24  149 1    
    52   25   26 2    
    53   25   27 1    
    54   27   28 1    
    55   27   29 1    
    56   27  150 1    
    57   28  151 1    
    58   28  152 1    
    59   28  153 1    
    60   29   30 am   BACKBONE|DICT|INTERRES
    61   29  154 1    
    62   30   31 2    
    63   30   32 1    
    64   32   33 1    
    65   32   34 1    
    66   32  155 1    
    67   33  156 1    
    68   33  157 1    
    69   33  158 1    
    70   34   35 am   BACKBONE|DICT|INTERRES
    71   34  159 1    
    72   35   36 2    
    73   35   37 1    
    74   37   38 1    
    75   37   39 1    
    76   37  160 1    
    77   38  161 1    
    78   38  162 1    
    79   38  163 1    
    80   39   40 am   BACKBONE|DICT|INTERRES
    81   39  164 1    
    82   40   41 2    
    83   40   42 1    
    84   42   43 1    
    85   42   44 1    
    86   42  165 1    
    87   43  166 1    
    88   43  167 1    
    89   43  168 1    
    90   44   45 am   BACKBONE|DICT|INTERRES
    91   44  169 1    
    92   45   46 2    
    93   45   47 1    
    94   47   48 1    
    95   47   49 1    
    96   47  170 1    
    97   48  171 1    
    98   48  172 1    
    99   48  173 1    
   100   49   50 am   BACKBONE|DICT|INTERRES
   101   49  174 1    
   102   50   51 2    
   103   50   52 1    
   104   52   53 1    
   105   52   54 1    
   106   52  175 1    
   107   53  176 1    
   108   53  177 1    
   109   53  178 1    
   110   54   55 am   BACKBONE|DICT|INTERRES
   111   54  179 1    
   112   55   56 2    
   113   55   57 1    
   114   57   58 1    
   115   57   59 1    
   116   57  180 1    
   117   58  181 1    
   118   58  182 1    
   119   58  183 1    
   120   59   60 am   BACKBONE|DICT|INTERRES
   121   59  184 1    
   122   60   61 2    
   123   60   62 1    
   124   62   63 1    
   125   62   64 1    
   126   62  185 1    
   127   63  186 1    
   128   63  187 1    
   129   63  188 1    
   130   64   65 am   BACKBONE|DICT|INTERRES
   131   64  189 1    
   132   65   66 2    
   133   67   68 2    
   134   67   69 am   BACKBONE|DICT|INTERRES
   135   69   70 1    
   136   69  190 1    
   137   70   71 1    
   138   70   72 1    
   139   70  191 1    
   140   71  192 1    
   141   71  193 1    
   142   71  194 1    
   143   72   73 2    
   144   72   74 am   BACKBONE|DICT|INTERRES
   145   74   75 1    
   146   74  195 1    
   147   75   76 1    
   148   75   77 1    
   149   75  196 1    
   150   76  197 1    
   151   76  198 1    
   152   76  199 1    
   153   77   78 2    
   154   77   79 am   BACKBONE|DICT|INTERRES
   155   79   80 1    
   156   79  200 1    
   157   80   81 1    
   158   80   82 1    
   159   80  201 1    
   160   81  202 1    
   161   81  203 1    
   162   81  204 1    
   163   82   83 2    
   164   82   84 am   BACKBONE|DICT|INTERRES
   165   84   85 1    
   166   84  205 1    
   167   85   86 1    
   168   85   87 1    
   169   85  206 1    
   170   86  207 1    
   171   86  208 1    
   172   86  209 1    
   173   87   88 2    
   174   87   89 am   BACKBONE|DICT|INTERRES
   175   89   90 1    
   176   89  210 1    
   177   90   91 1    
   178   90   92 1    
   179   90  211 1    
   180   91  212 1    
   181   91  213 1    
   182   91  214 1    
   183   92   93 2    
   184   92   94 am   BACKBONE|DICT|INTERRES
   185   94   95 1    
   186   94  215 1    
   187   95   96 1    
   188   95   97 1    
   189   95  216 1    
   190   96  217 1    
   191   96  218 1    
   192   96  219 1    
   193   97   98 2    
   194   97   99 am   BACKBONE|DICT|INTERRES
   195   99  100 1    
   196   99  220 1    
   197  100  101 1    
   198  100  102 1    
   199  100  221 1    
   200  101  222 1    
   201  101  223 1    
   202  101  224 1    
   203  102  103 2    
   204  102  104 am   BACKBONE|DICT|INTERRES
   205  104  105 1    
   206  104  225 1    
   207  105  106 1    
   208  105  107 1    
   209  105  226 1    
   210  106  227 1    
   211  106  228 1    
   212  106  229 1    
   213  107  108 2    
   214  107  109 am   BACKBONE|DICT|INTERRES
   215  109  110 1    
   216  109  230 1    
   217  110  111 1    
   218  110  112 1    
   219  110  231 1    
   220  111  232 1    
   221  111  233 1    
   222  111  234 1    
   223  112  113 2    
   224  112  114 am   BACKBONE|DICT|INTERRES
   225  114  115 1    
   226  114  235 1    
   227  115  116 1    
   228  115  117 1    
   229  115  236 1    
   230  116  237 1    
   231  116  238 1    
   232  116  239 1    
   233  117  118 2    
   234  117  119 am   BACKBONE|DICT|INTERRES
   235  119  120 1    
   236  119  240 1    
   237  120  121 1    
   238  120  124 1    
   239  120  241 1    
   240  121  122 am   BACKBONE|DICT|INTERRES
   241  121  123 2    
   242  122  242 1    
   243  122  243 1    
   244  124  125 1    
   245  124  244 1    
   246  124  245 1    
   247  125  126 1    
   248  126  246 1    
   249  126  247 1    
@<TRIPOS>SUBSTRUCTURE
     1 UNK         1 GROUP             0       ****    0 ROOT    
