@<TRIPOS>MOLECULE
3R540
247   249    1
SMALL
USER_CHARGES


@<TRIPOS>ATOM
      1 CA         -4.2461  -17.2998  -45.4541 C.3       0 UNK        -0.1800 
      2 C          -3.8353  -15.8828  -45.8340 C.2       0 UNK         0.5000 
      3 O          -2.6645  -15.6488  -46.1276 O.2       0 UNK        -0.5000 
      4 N          -4.7998  -14.9491  -45.8069 N.am      1 UNK        -0.5000 
      5 CA         -4.7395  -13.5328  -46.2215 C.3       1 UNK         0.1400 
      6 C6         -4.9775  -13.3130  -47.7440 C.3       23 UNK        -0.0398 
      7 S7         -3.6806  -13.9560  -48.8602 S.3       23 UNK        -0.2404 
      8 C8         -4.5121  -15.4461  -49.4826 C.3       23 UNK        -0.0205 
      9 C9         -3.5913  -16.2992  -50.3381 C.ar      23 UNK        -0.0193 
     10 C10        -3.7643  -16.3576  -51.7227 C.ar      23 UNK        -0.1150 
     11 C11        -2.9539  -17.1871  -52.5009 C.ar      23 UNK        -0.0193 
     12 C12        -1.9835  -17.9768  -51.8795 C.ar      23 UNK        -0.1150 
     13 C13        -1.7901  -17.9287  -50.4951 C.ar      23 UNK        -0.0193 
     14 C14        -2.5898  -17.0641  -49.7348 C.ar      23 UNK        -0.1150 
     15 C15        -0.7345  -18.8586  -49.8895 C.3       23 UNK        -0.0205 
     16 S16        -0.1797  -18.4894  -48.1864 S.3       23 UNK        -0.2404 
     17 C17        -1.5629  -19.1162  -47.1792 C.3       23 UNK        -0.0398 
     18 CA         -1.4781  -20.6327  -46.9153 C.3       11 UNK         0.1400 
     19 N          -0.3104  -21.0302  -46.1283 N.am      11 UNK        -0.5000 
     20 C           0.1014  -22.2993  -45.9969 C.2       10 UNK         0.5000 
     21 O          -0.4367  -23.2542  -46.5556 O.2       10 UNK        -0.5000 
     22 CA          1.2707  -22.5483  -45.0320 C.3       10 UNK         0.1400 
     23 CB          2.6142  -22.2611  -45.7147 C.3       10 UNK        -0.1800 
     24 N           1.1416  -21.7426  -43.8183 N.am      10 UNK        -0.5000 
     25 C           0.2068  -21.9635  -42.8816 C.2       9 UNK         0.5000 
     26 O          -0.6078  -22.8857  -42.9353 O.2       9 UNK        -0.5000 
     27 CA          0.1376  -20.9654  -41.7126 C.3       9 UNK         0.1400 
     28 CB          1.0410  -21.4250  -40.5604 C.3       9 UNK        -0.1800 
     29 N           0.4812  -19.5962  -42.1042 N.am      9 UNK        -0.5000 
     30 C          -0.2473  -18.8541  -42.9521 C.2       8 UNK         0.5000 
     31 O          -1.2593  -19.2765  -43.5113 O.2       8 UNK        -0.5000 
     32 CA          0.2274  -17.4289  -43.2804 C.3       8 UNK         0.1400 
     33 CB         -0.8663  -16.3809  -42.9942 C.3       8 UNK        -0.1800 
     34 N           1.5122  -17.0702  -42.6763 N.am      8 UNK        -0.5000 
     35 C           1.7932  -16.6890  -41.4231 C.2       7 UNK         0.5000 
     36 O           0.9612  -16.5979  -40.5194 O.2       7 UNK        -0.5000 
     37 CA          3.2860  -16.3934  -41.1509 C.3       7 UNK         0.1400 
     38 CB          3.6153  -16.2474  -39.6506 C.3       7 UNK        -0.1800 
     39 N           4.1734  -17.3754  -41.7895 N.am      7 UNK        -0.5000 
     40 C           4.1673  -18.7037  -41.5903 C.2       6 UNK         0.5000 
     41 O           3.4512  -19.2638  -40.7607 O.2       6 UNK        -0.5000 
     42 CA          5.0757  -19.5418  -42.5164 C.3       6 UNK         0.1400 
     43 CB          4.7059  -21.0391  -42.5278 C.3       6 UNK        -0.1800 
     44 N           5.1284  -19.0137  -43.8846 N.am      6 UNK        -0.5000 
     45 C           4.0975  -18.8013  -44.7155 C.2       5 UNK         0.5000 
     46 O           2.9260  -19.0898  -44.4570 O.2       5 UNK        -0.5000 
     47 CA          4.4427  -18.0848  -46.0356 C.3       5 UNK         0.1400 
     48 CB          3.6404  -18.6531  -47.2168 C.3       5 UNK        -0.1800 
     49 N           4.2179  -16.6382  -45.9730 N.am      5 UNK        -0.5000 
     50 C           4.7868  -15.7667  -45.1257 C.2       4 UNK         0.5000 
     51 O           5.5344  -16.0886  -44.2012 O.2       4 UNK        -0.5000 
     52 CA          4.4816  -14.2732  -45.3561 C.3       4 UNK         0.1400 
     53 CB          5.5924  -13.6262  -46.1972 C.3       4 UNK        -0.1800 
     54 N           3.1902  -14.0349  -46.0065 N.am      4 UNK        -0.5000 
     55 C           2.0120  -14.1748  -45.3878 C.2       3 UNK         0.5000 
     56 O           1.9091  -14.5224  -44.2106 O.2       3 UNK        -0.5000 
     57 CA          0.7538  -13.9097  -46.2403 C.3       3 UNK         0.1400 
     58 CB          0.4568  -15.1203  -47.1370 C.3       3 UNK        -0.1800 
     59 N          -0.4352  -13.6336  -45.4337 N.am      3 UNK        -0.5000 
     60 C          -0.5906  -12.5846  -44.6124 C.2       2 UNK         0.5000 
     61 O           0.2355  -11.6754  -44.5050 O.2       2 UNK        -0.5000 
     62 CA         -1.8902  -12.5521  -43.7750 C.3       2 UNK         0.1400 
     63 CB         -2.2189  -11.1503  -43.2188 C.3       2 UNK        -0.1800 
     64 N          -3.0462  -13.1191  -44.4793 N.am      2 UNK        -0.5000 
     65 C          -3.5699  -12.6985  -45.6413 C.2       1 UNK         0.5000 
     66 O          -3.1843  -11.6889  -46.2338 O.2       1 UNK        -0.5000 
     67 C          -2.7877  -21.1344  -46.2843 C.2       11 UNK         0.5000 
     68 O          -3.6672  -21.5733  -47.0203 O.2       11 UNK        -0.5000 
     69 N          -2.8957  -21.0946  -44.9494 N.am      12 UNK        -0.5000 
     70 CA         -4.0349  -21.6291  -44.2021 C.3       12 UNK         0.1400 
     71 CB         -3.8953  -21.2735  -42.7150 C.3       12 UNK        -0.1800 
     72 C          -4.2031  -23.1478  -44.3971 C.2       12 UNK         0.5000 
     73 O          -5.3222  -23.6072  -44.6259 O.2       12 UNK        -0.5000 
     74 N          -3.0850  -23.8879  -44.3634 N.am      13 UNK        -0.5000 
     75 CA         -3.0311  -25.3237  -44.6466 C.3       13 UNK         0.1400 
     76 CB         -1.6435  -25.8654  -44.2713 C.3       13 UNK        -0.1800 
     77 C          -3.3721  -25.6619  -46.1119 C.2       13 UNK         0.5000 
     78 O          -4.0602  -26.6518  -46.3623 O.2       13 UNK        -0.5000 
     79 N          -2.9067  -24.8243  -47.0484 N.am      14 UNK        -0.5000 
     80 CA         -3.1565  -24.9467  -48.4875 C.3       14 UNK         0.1400 
     81 CB         -2.0491  -24.1974  -49.2428 C.3       14 UNK        -0.1800 
     82 C          -4.5489  -24.4474  -48.9316 C.2       14 UNK         0.5000 
     83 O          -4.8968  -24.6242  -50.0986 O.2       14 UNK        -0.5000 
     84 N          -5.3085  -23.8375  -48.0104 N.am      15 UNK        -0.5000 
     85 CA         -6.6292  -23.2292  -48.1922 C.3       15 UNK         0.1400 
     86 CB         -7.6912  -24.2869  -48.5588 C.3       15 UNK        -0.1800 
     87 C          -6.6067  -22.0063  -49.1353 C.2       15 UNK         0.5000 
     88 O          -7.4550  -21.8809  -50.0215 O.2       15 UNK        -0.5000 
     89 N          -5.6392  -21.1106  -48.8912 N.am      16 UNK        -0.5000 
     90 CA         -5.4428  -19.7946  -49.5031 C.3       16 UNK         0.1400 
     91 CB         -6.5030  -18.8030  -48.9761 C.3       16 UNK        -0.1800 
     92 C          -5.3602  -19.8664  -51.0384 C.2       16 UNK         0.5000 
     93 O          -4.3706  -20.3736  -51.5612 O.2       16 UNK        -0.5000 
     94 N          -6.4011  -19.3910  -51.7351 N.am      17 UNK        -0.5000 
     95 CA         -6.5052  -19.3574  -53.1960 C.3       17 UNK         0.1400 
     96 CB         -7.7880  -18.6057  -53.5821 C.3       17 UNK        -0.1800 
     97 C          -6.4518  -20.7375  -53.8850 C.2       17 UNK         0.5000 
     98 O          -6.1849  -20.7959  -55.0855 O.2       17 UNK        -0.5000 
     99 N          -6.6879  -21.8177  -53.1278 N.am      18 UNK        -0.5000 
    100 CA        -6.5486  -23.1994  -53.5872 C.3       18 UNK         0.1400 
    101 CB        -7.3884  -24.1075  -52.6776 C.3       18 UNK        -0.1800 
    102 C         -5.0840  -23.6886  -53.6577 C.2       18 UNK         0.5000 
    103 O         -4.8535  -24.7818  -54.1788 O.2       18 UNK        -0.5000 
    104 N         -4.1234  -22.9035  -53.1431 N.am      19 UNK        -0.5000 
    105 CA        -2.6895  -23.1994  -53.1799 C.3       19 UNK         0.1400 
    106 CB        -1.9326  -22.1468  -52.3543 C.3       19 UNK        -0.1800 
    107 C         -2.1182  -23.2573  -54.6109 C.2       19 UNK         0.5000 
    108 O         -2.6318  -22.5999  -55.5195 O.2       19 UNK        -0.5000 
    109 N         -1.0355  -24.0289  -54.7718 N.am      20 UNK        -0.5000 
    110 CA        -0.3379  -24.2457  -56.0432 C.3       20 UNK         0.1400 
    111 CB         0.5532  -25.4908  -55.9058 C.3       20 UNK        -0.1800 
    112 C          0.4949  -23.0383  -56.5231 C.2       20 UNK         0.5000 
    113 O          0.9037  -23.0154  -57.6852 O.2       20 UNK        -0.5000 
    114 N          0.7397  -22.0687  -55.6357 N.am      21 UNK        -0.5000 
    115 CA         1.4478  -20.8234  -55.9059 C.3       21 UNK         0.1400 
    116 CB         2.9159  -20.9684  -55.4717 C.3       21 UNK        -0.1800 
    117 C          0.7531  -19.6862  -55.1445 C.2       21 UNK         0.5000 
    118 O          0.0664  -19.9436  -54.1534 O.2       21 UNK        -0.5000 
    119 N          0.9547  -18.4544  -55.6194 N.am      22 UNK        -0.5000 
    120 CA         0.3549  -17.2216  -55.0833 C.3       22 UNK         0.1400 
    121 C          1.3673  -16.0356  -55.0388 C.2       22 UNK         0.5000 
    122 N          2.6711  -16.2789  -55.1158 N.am      22 UNK        -0.7600 
    123 O          0.9821  -14.8755  -54.9277 O.2       22 UNK        -0.5000 
    124 C124       -0.9728  -16.8935  -55.8234 C.3       23 UNK        -0.0398 
    125 S125       -2.1646  -15.9340  -54.8265 S.3       23 UNK        -0.2404 
    126 C126       -3.1371  -17.2380  -54.0089 C.3       23 UNK        -0.0205 
    127 H127       -3.5099  -17.7468  -44.7859 H         1 UNK         0.0600 
    128 H128       -4.3178  -17.9198  -46.3471 H         1 UNK         0.0600 
    129 H129       -5.2122  -17.3187  -44.9496 H         1 UNK         0.0600 
    130 H130       -5.7197  -15.2438  -45.5102 H         1 UNK         0.3000 
    131 H131       -5.6109  -13.0932  -45.7339 H         1 UNK         0.0600 
    132 H132       -5.0944  -12.2487  -47.9546 H         1 UNK         0.0800 
    133 H133       -5.9353  -13.7546  -48.0211 H         1 UNK         0.0800 
    134 H134       -5.3987  -15.1540  -50.0474 H         1 UNK         0.0800 
    135 H135       -4.8653  -16.0408  -48.6399 H         1 UNK         0.0800 
    136 H136       -4.5302  -15.7597  -52.1964 H         1 UNK         0.1150 
    137 H137       -1.3773  -18.6401  -52.4789 H         1 UNK         0.1150 
    138 H138       -2.4561  -16.9729  -48.6682 H         1 UNK         0.1150 
    139 H139        0.1513  -18.8339  -50.5261 H         1 UNK         0.0800 
    140 H140       -1.1075  -19.8825  -49.9338 H         1 UNK         0.0800 
    141 H141       -2.5003  -18.8863  -47.6832 H         1 UNK         0.0800 
    142 H142       -1.5762  -18.5604  -46.2401 H         1 UNK         0.0800 
    143 H143       -1.3945  -21.1277  -47.8846 H         1 UNK         0.0600 
    144 H144        0.1714  -20.3019  -45.6229 H         1 UNK         0.3000 
    145 H145        1.2545  -23.6028  -44.7478 H         1 UNK         0.0600 
    146 H146        2.7501  -22.8993  -46.5887 H         1 UNK         0.0600 
    147 H147        3.4512  -22.4469  -45.0420 H         1 UNK         0.0600 
    148 H148        2.6745  -21.2284  -46.0529 H         1 UNK         0.0600 
    149 H149        1.7441  -20.9328  -43.7347 H         1 UNK         0.3000 
    150 H150       -0.8909  -20.9532  -41.3469 H         1 UNK         0.0600 
    151 H151        2.0787  -21.5279  -40.8777 H         1 UNK         0.0600 
    152 H152        0.7203  -22.3955  -40.1799 H         1 UNK         0.0600 
    153 H153        1.0117  -20.7222  -39.7275 H         1 UNK         0.0600 
    154 H154        1.3184  -19.1985  -41.6979 H         1 UNK         0.3000 
    155 H155        0.4094  -17.4178  -44.3560 H         1 UNK         0.0600 
    156 H156       -1.2203  -16.4304  -41.9645 H         1 UNK         0.0600 
    157 H157       -1.7296  -16.5372  -43.6394 H         1 UNK         0.0600 
    158 H158       -0.5015  -15.3718  -43.1762 H         1 UNK         0.0600 
    159 H159        2.2948  -17.1631  -43.3091 H         1 UNK         0.3000 
    160 H160        3.4958  -15.4354  -41.6294 H         1 UNK         0.0600 
    161 H161        3.3791  -17.1534  -39.0919 H         1 UNK         0.0600 
    162 H162        3.0456  -15.4315  -39.2046 H         1 UNK         0.0600 
    163 H163        4.6716  -16.0255  -39.4991 H         1 UNK         0.0600 
    164 H164        4.7791  -17.0094  -42.5180 H         1 UNK         0.3000 
    165 H165        6.0847  -19.4536  -42.1115 H         1 UNK         0.0600 
    166 H166        4.7962  -21.4725  -41.5312 H         1 UNK         0.0600 
    167 H167        3.6817  -21.1984  -42.8602 H         1 UNK         0.0600 
    168 H168        5.3643  -21.6038  -43.1876 H         1 UNK         0.0600 
    169 H169        6.0367  -18.6789  -44.1761 H         1 UNK         0.3000 
    170 H170        5.5017  -18.2438  -46.2483 H         1 UNK         0.0600 
    171 H171        3.8929  -18.1473  -48.1488 H         1 UNK         0.0600 
    172 H172        3.8550  -19.7120  -47.3603 H         1 UNK         0.0600 
    173 H173        2.5665  -18.5497  -47.0610 H         1 UNK         0.0600 
    174 H174        3.5980  -16.2618  -46.6739 H         1 UNK         0.3000 
    175 H175        4.4721  -13.7864  -44.3783 H         1 UNK         0.0600 
    176 H176        6.5676  -13.7621  -45.7276 H         1 UNK         0.0600 
    177 H177        5.6463  -14.0598  -47.1967 H         1 UNK         0.0600 
    178 H178        5.4322  -12.5532  -46.3040 H         1 UNK         0.0600 
    179 H179        3.2137  -13.7423  -46.9729 H         1 UNK         0.3000 
    180 H180        0.9413  -13.0387  -46.8711 H         1 UNK         0.0600 
    181 H181        0.2471  -16.0096  -46.5416 H         1 UNK         0.0600 
    182 H182        1.2976  -15.3522  -47.7915 H         1 UNK         0.0600 
    183 H183       -0.4089  -14.9386  -47.7752 H         1 UNK         0.0600 
    184 H184       -1.1823  -14.3174  -45.4979 H         1 UNK         0.3000 
    185 H185       -1.7089  -13.2042  -42.9197 H         1 UNK         0.0600 
    186 H186       -1.4196  -10.7902  -42.5701 H         1 UNK         0.0600 
    187 H187       -2.3474  -10.4168  -44.0151 H         1 UNK         0.0600 
    188 H188       -3.1332  -11.1657  -42.6257 H         1 UNK         0.0600 
    189 H189       -3.4299  -13.9647  -44.0820 H         1 UNK         0.3000 
    190 H190       -2.1653  -20.6399  -44.4066 H         1 UNK         0.3000 
    191 H191       -4.9359  -21.1429  -44.5822 H         1 UNK         0.0600 
    192 H192       -3.8157  -20.1955  -42.5729 H         1 UNK         0.0600 
    193 H193       -4.7640  -21.6138  -42.1502 H         1 UNK         0.0600 
    194 H194       -3.0145  -21.7360  -42.2707 H         1 UNK         0.0600 
    195 H195       -2.2071  -23.4382  -44.1250 H         1 UNK         0.3000 
    196 H196       -3.7700  -25.8178  -44.0124 H         1 UNK         0.0600 
    197 H197       -1.5810  -26.9394  -44.4504 H         1 UNK         0.0600 
    198 H198       -1.4280  -25.6980  -43.2158 H         1 UNK         0.0600 
    199 H199       -0.8535  -25.3882  -44.8521 H         1 UNK         0.0600 
    200 H200       -2.2895  -24.0710  -46.7631 H         1 UNK         0.3000 
    201 H201       -3.0920  -26.0020  -48.7598 H         1 UNK         0.0600 
    202 H202       -2.1436  -24.3469  -50.3179 H         1 UNK         0.0600 
    203 H203       -1.0603  -24.5545  -48.9546 H         1 UNK         0.0600 
    204 H204       -2.0896  -23.1252  -49.0510 H         1 UNK         0.0600 
    205 H205       -4.8977  -23.7070  -47.0955 H         1 UNK         0.3000 
    206 H206       -6.9048  -22.8332  -47.2137 H         1 UNK         0.0600 
    207 H207       -7.7350  -25.0723  -47.8044 H         1 UNK         0.0600 
    208 H208       -8.6843  -23.8401  -48.6178 H         1 UNK         0.0600 
    209 H209       -7.4892  -24.7606  -49.5179 H         1 UNK         0.0600 
    210 H210       -4.9504  -21.3535  -48.1789 H         1 UNK         0.3000 
    211 H211       -4.4670  -19.4409  -49.1679 H         1 UNK         0.0600 
    212 H212       -6.4111  -18.6767  -47.8972 H         1 UNK         0.0600 
    213 H213       -6.3808  -17.8170  -49.4252 H         1 UNK         0.0600 
    214 H214       -7.5200  -19.1387  -49.1811 H         1 UNK         0.0600 
    215 H215       -7.1940  -19.0355  -51.2217 H         1 UNK         0.3000 
    216 H216       -5.6522  -18.7890  -53.5672 H         1 UNK         0.0600 
    217 H217       -8.6778  -19.1136  -53.2081 H         1 UNK         0.0600 
    218 H218       -7.8855  -18.5272  -54.6657 H         1 UNK         0.0600 
    219 H219       -7.7861  -17.5908  -53.1841 H         1 UNK         0.0600 
    220 H220       -6.9001  -21.6877  -52.1447 H         1 UNK         0.3000 
    221 H221       -6.9583  -23.2713  -54.5969 H         1 UNK         0.0600 
    222 H222       -7.0149  -24.0901  -51.6555 H         1 UNK         0.0600 
    223 H223       -8.4330  -23.7964  -52.6594 H         1 UNK         0.0600 
    224 H224       -7.3613  -25.1428  -53.0195 H         1 UNK         0.0600 
    225 H225       -4.3828  -22.0178  -52.7211 H         1 UNK         0.3000 
    226 H226       -2.5482  -24.1763  -52.7139 H         1 UNK         0.0600 
    227 H227       -2.3049  -22.0996  -51.3315 H         1 UNK         0.0600 
    228 H228       -0.8671  -22.3726  -52.3018 H         1 UNK         0.0600 
    229 H229       -2.0350  -21.1515  -52.7888 H         1 UNK         0.0600 
    230 H230       -0.6646  -24.5238  -53.9734 H         1 UNK         0.3000 
    231 H231       -1.0863  -24.4472  -56.8126 H         1 UNK         0.0600 
    232 H232        1.3195  -25.3545  -55.1417 H         1 UNK         0.0600 
    233 H233        1.0623  -25.7143  -56.8444 H         1 UNK         0.0600 
    234 H234       -0.0343  -26.3702  -55.6410 H         1 UNK         0.0600 
    235 H235        0.3057  -22.1149  -54.7234 H         1 UNK         0.3000 
    236 H236        1.4048  -20.5924  -56.9725 H         1 UNK         0.0600 
    237 H237        2.9995  -21.1833  -54.4055 H         1 UNK         0.0600 
    238 H238        3.4086  -21.7750  -56.0149 H         1 UNK         0.0600 
    239 H239        3.4773  -20.0546  -55.6691 H         1 UNK         0.0600 
    240 H240        1.5381  -18.3292  -56.4351 H         1 UNK         0.3000 
    241 H241        0.1158  -17.3997  -54.0336 H         1 UNK         0.0600 
    242 H242        3.3171  -15.5053  -55.0855 H         1 UNK         0.3800 
    243 H243        3.0255  -17.2210  -55.1554 H         1 UNK         0.3800 
    244 H244       -1.4683  -17.8105  -56.1446 H         1 UNK         0.0800 
    245 H245       -0.7692  -16.3446  -56.7443 H         1 UNK         0.0800 
    246 H246       -2.8692  -18.2271  -54.3838 H         1 UNK         0.0800 
    247 H247       -4.1878  -17.0911  -54.2607 H         1 UNK         0.0800 
@<TRIPOS>BOND
     1    1    2 1    
     2    1  127 1    
     3    1  128 1    
     4    1  129 1    
     5    2    3 2    
     6    2    4 am   BACKBONE|DICT|INTERRES
     7    4    5 1    
     8    4  130 1    
     9    5    6 1    
    10    5   65 1    
    11    5  131 1    
    12    6    7 1    
    13    6  132 1    
    14    6  133 1    
    15    7    8 1    
    16    8    9 1    
    17    8  134 1    
    18    8  135 1    
    19    9   10 ar   
    20    9   14 ar   
    21   10   11 ar   
    22   10  136 1    
    23   11   12 ar   
    24   11  126 1    
    25   12   13 ar   
    26   12  137 1    
    27   13   14 ar   
    28   13   15 1    
    29   14  138 1    
    30   15   16 1    
    31   15  139 1    
    32   15  140 1    
    33   16   17 1    
    34   17   18 1    
    35   17  141 1    
    36   17  142 1    
    37   18   19 1    
    38   18   67 1    
    39   18  143 1    
    40   19   20 am   BACKBONE|DICT|INTERRES
    41   19  144 1    
    42   20   21 2    
    43   20   22 1    
    44   22   23 1    
    45   22   24 1    
    46   22  145 1    
    47   23  146 1    
    48   23  147 1    
    49   23  148 1    
    50   24   25 am   BACKBONE|DICT|INTERRES
    51   24  149 1    
    52   25   26 2    
    53   25   27 1    
    54   27   28 1    
    55   27   29 1    
    56   27  150 1    
    57   28  151 1    
    58   28  152 1    
    59   28  153 1    
    60   29   30 am   BACKBONE|DICT|INTERRES
    61   29  154 1    
    62   30   31 2    
    63   30   32 1    
    64   32   33 1    
    65   32   34 1    
    66   32  155 1    
    67   33  156 1    
    68   33  157 1    
    69   33  158 1    
    70   34   35 am   BACKBONE|DICT|INTERRES
    71   34  159 1    
    72   35   36 2    
    73   35   37 1    
    74   37   38 1    
    75   37   39 1    
    76   37  160 1    
    77   38  161 1    
    78   38  162 1    
    79   38  163 1    
    80   39   40 am   BACKBONE|DICT|INTERRES
    81   39  164 1    
    82   40   41 2    
    83   40   42 1    
    84   42   43 1    
    85   42   44 1    
    86   42  165 1    
    87   43  166 1    
    88   43  167 1    
    89   43  168 1    
    90   44   45 am   BACKBONE|DICT|INTERRES
    91   44  169 1    
    92   45   46 2    
    93   45   47 1    
    94   47   48 1    
    95   47   49 1    
    96   47  170 1    
    97   48  171 1    
    98   48  172 1    
    99   48  173 1    
   100   49   50 am   BACKBONE|DICT|INTERRES
   101   49  174 1    
   102   50   51 2    
   103   50   52 1    
   104   52   53 1    
   105   52   54 1    
   106   52  175 1    
   107   53  176 1    
   108   53  177 1    
   109   53  178 1    
   110   54   55 am   BACKBONE|DICT|INTERRES
   111   54  179 1    
   112   55   56 2    
   113   55   57 1    
   114   57   58 1    
   115   57   59 1    
   116   57  180 1    
   117   58  181 1    
   118   58  182 1    
   119   58  183 1    
   120   59   60 am   BACKBONE|DICT|INTERRES
   121   59  184 1    
   122   60   61 2    
   123   60   62 1    
   124   62   63 1    
   125   62   64 1    
   126   62  185 1    
   127   63  186 1    
   128   63  187 1    
   129   63  188 1    
   130   64   65 am   BACKBONE|DICT|INTERRES
   131   64  189 1    
   132   65   66 2    
   133   67   68 2    
   134   67   69 am   BACKBONE|DICT|INTERRES
   135   69   70 1    
   136   69  190 1    
   137   70   71 1    
   138   70   72 1    
   139   70  191 1    
   140   71  192 1    
   141   71  193 1    
   142   71  194 1    
   143   72   73 2    
   144   72   74 am   BACKBONE|DICT|INTERRES
   145   74   75 1    
   146   74  195 1    
   147   75   76 1    
   148   75   77 1    
   149   75  196 1    
   150   76  197 1    
   151   76  198 1    
   152   76  199 1    
   153   77   78 2    
   154   77   79 am   BACKBONE|DICT|INTERRES
   155   79   80 1    
   156   79  200 1    
   157   80   81 1    
   158   80   82 1    
   159   80  201 1    
   160   81  202 1    
   161   81  203 1    
   162   81  204 1    
   163   82   83 2    
   164   82   84 am   BACKBONE|DICT|INTERRES
   165   84   85 1    
   166   84  205 1    
   167   85   86 1    
   168   85   87 1    
   169   85  206 1    
   170   86  207 1    
   171   86  208 1    
   172   86  209 1    
   173   87   88 2    
   174   87   89 am   BACKBONE|DICT|INTERRES
   175   89   90 1    
   176   89  210 1    
   177   90   91 1    
   178   90   92 1    
   179   90  211 1    
   180   91  212 1    
   181   91  213 1    
   182   91  214 1    
   183   92   93 2    
   184   92   94 am   BACKBONE|DICT|INTERRES
   185   94   95 1    
   186   94  215 1    
   187   95   96 1    
   188   95   97 1    
   189   95  216 1    
   190   96  217 1    
   191   96  218 1    
   192   96  219 1    
   193   97   98 2    
   194   97   99 am   BACKBONE|DICT|INTERRES
   195   99  100 1    
   196   99  220 1    
   197  100  101 1    
   198  100  102 1    
   199  100  221 1    
   200  101  222 1    
   201  101  223 1    
   202  101  224 1    
   203  102  103 2    
   204  102  104 am   BACKBONE|DICT|INTERRES
   205  104  105 1    
   206  104  225 1    
   207  105  106 1    
   208  105  107 1    
   209  105  226 1    
   210  106  227 1    
   211  106  228 1    
   212  106  229 1    
   213  107  108 2    
   214  107  109 am   BACKBONE|DICT|INTERRES
   215  109  110 1    
   216  109  230 1    
   217  110  111 1    
   218  110  112 1    
   219  110  231 1    
   220  111  232 1    
   221  111  233 1    
   222  111  234 1    
   223  112  113 2    
   224  112  114 am   BACKBONE|DICT|INTERRES
   225  114  115 1    
   226  114  235 1    
   227  115  116 1    
   228  115  117 1    
   229  115  236 1    
   230  116  237 1    
   231  116  238 1    
   232  116  239 1    
   233  117  118 2    
   234  117  119 am   BACKBONE|DICT|INTERRES
   235  119  120 1    
   236  119  240 1    
   237  120  121 1    
   238  120  124 1    
   239  120  241 1    
   240  121  122 am   BACKBONE|DICT|INTERRES
   241  121  123 2    
   242  122  242 1    
   243  122  243 1    
   244  124  125 1    
   245  124  244 1    
   246  124  245 1    
   247  125  126 1    
   248  126  246 1    
   249  126  247 1    
@<TRIPOS>SUBSTRUCTURE
     1 UNK         1 GROUP             0       ****    0 ROOT    
