@<TRIPOS>MOLECULE
3R540
247   249    1
SMALL
USER_CHARGES


@<TRIPOS>ATOM
      1 CA          2.7355  -10.3949  -49.3469 C.3       0 UNK        -0.1800 
      2 C           1.8530  -11.4098  -48.6367 C.2       0 UNK         0.5000 
      3 O           1.3232  -11.1167  -47.5661 O.2       0 UNK        -0.5000 
      4 N           1.6740  -12.5947  -49.2343 N.am      1 UNK        -0.5000 
      5 CA          0.9144  -13.7328  -48.6913 C.3       1 UNK         0.1400 
      6 C6          1.0600  -14.9898  -49.5840 C.3       23 UNK        -0.0398 
      7 S7          2.8008  -15.5239  -49.7140 S.3       23 UNK        -0.2404 
      8 C8          2.7806  -17.0952  -48.7833 C.3       23 UNK        -0.0205 
      9 C9          2.5131  -18.3534  -49.6147 C.ar      23 UNK        -0.0193 
     10 C10         1.9089  -18.3215  -50.8792 C.ar      23 UNK        -0.1150 
     11 C11         1.7340  -19.4964  -51.6162 C.ar      23 UNK        -0.0193 
     12 C12         2.1434  -20.7155  -51.0696 C.ar      23 UNK        -0.1150 
     13 C13         2.7222  -20.7791  -49.7993 C.ar      23 UNK        -0.0193 
     14 C14         2.9073  -19.5865  -49.0857 C.ar      23 UNK        -0.1150 
     15 C15         3.1204  -22.1589  -49.2631 C.3       23 UNK        -0.0205 
     16 S16         4.0805  -22.1965  -47.7059 S.3       23 UNK        -0.2404 
     17 C17         2.8048  -21.7479  -46.4810 C.3       23 UNK        -0.0398 
     18 CA          2.2964  -22.9275  -45.6159 C.3       11 UNK         0.1400 
     19 N           1.6253  -22.4179  -44.4169 N.am      11 UNK        -0.5000 
     20 C           1.3038  -23.1345  -43.3327 C.2       10 UNK         0.5000 
     21 O           1.5936  -24.3222  -43.1865 O.2       10 UNK        -0.5000 
     22 CA          0.5075  -22.4006  -42.2346 C.3       10 UNK         0.1400 
     23 CB          1.4532  -21.6618  -41.2757 C.3       10 UNK        -0.1800 
     24 N          -0.4688  -21.4554  -42.7829 N.am      10 UNK        -0.5000 
     25 C          -1.5750  -21.8191  -43.4480 C.2       9 UNK         0.5000 
     26 O          -1.9254  -22.9899  -43.5929 O.2       9 UNK        -0.5000 
     27 CA         -2.4185  -20.6979  -44.0865 C.3       9 UNK         0.1400 
     28 CB         -3.4507  -20.1611  -43.0846 C.3       9 UNK        -0.1800 
     29 N          -1.6228  -19.5868  -44.6135 N.am      9 UNK        -0.5000 
     30 C          -0.7143  -19.6999  -45.5926 C.2       8 UNK         0.5000 
     31 O          -0.4280  -20.7650  -46.1322 O.2       8 UNK        -0.5000 
     32 CA          0.0777  -18.4365  -45.9733 C.3       8 UNK         0.1400 
     33 CB         -0.7795  -17.4452  -46.7745 C.3       8 UNK        -0.1800 
     34 N           0.6391  -17.7717  -44.7988 N.am      8 UNK        -0.5000 
     35 C           1.5101  -18.3368  -43.9498 C.2       7 UNK         0.5000 
     36 O           1.9901  -19.4595  -44.1042 O.2       7 UNK        -0.5000 
     37 CA          1.8561  -17.5354  -42.6853 C.3       7 UNK         0.1400 
     38 CB          2.9535  -16.5002  -42.9733 C.3       7 UNK        -0.1800 
     39 N           0.6753  -16.8721  -42.1322 N.am      7 UNK        -0.5000 
     40 C          -0.3373  -17.5158  -41.5333 C.2       6 UNK         0.5000 
     41 O          -0.3577  -18.7321  -41.3432 O.2       6 UNK        -0.5000 
     42 CA         -1.5461  -16.6592  -41.1131 C.3       6 UNK         0.1400 
     43 CB         -1.2849  -15.9746  -39.7633 C.3       6 UNK        -0.1800 
     44 N          -1.8897  -15.6475  -42.1140 N.am      6 UNK        -0.5000 
     45 C          -2.3752  -15.9278  -43.3316 C.2       5 UNK         0.5000 
     46 O          -2.6275  -17.0678  -43.7163 O.2       5 UNK        -0.5000 
     47 CA         -2.5766  -14.7460  -44.2964 C.3       5 UNK         0.1400 
     48 CB         -3.9945  -14.1718  -44.1669 C.3       5 UNK        -0.1800 
     49 N          -1.6046  -13.6671  -44.1211 N.am      5 UNK        -0.5000 
     50 C          -0.2814  -13.7766  -44.2941 C.2       4 UNK         0.5000 
     51 O           0.2869  -14.8475  -44.5179 O.2       4 UNK        -0.5000 
     52 CA          0.5259  -12.4642  -44.2070 C.3       4 UNK         0.1400 
     53 CB          2.0157  -12.6626  -44.5380 C.3       4 UNK        -0.1800 
     54 N          -0.0193  -11.4398  -45.0987 N.am      4 UNK        -0.5000 
     55 C          -1.0836  -10.6643  -44.8522 C.2       3 UNK         0.5000 
     56 O          -1.7309  -10.7102  -43.8055 O.2       3 UNK        -0.5000 
     57 CA         -1.5299   -9.7309  -45.9879 C.3       3 UNK         0.1400 
     58 CB         -0.5777   -8.5324  -46.1269 C.3       3 UNK        -0.1800 
     59 N          -1.5888  -10.4628  -47.2523 N.am      3 UNK        -0.5000 
     60 C          -2.6631  -11.1354  -47.6897 C.2       2 UNK         0.5000 
     61 O          -3.7512  -11.1345  -47.1132 O.2       2 UNK        -0.5000 
     62 CA         -2.4992  -11.9544  -48.9867 C.3       2 UNK         0.1400 
     63 CB         -2.9073  -11.1209  -50.2104 C.3       2 UNK        -0.1800 
     64 N          -1.1362  -12.4515  -49.1803 N.am      2 UNK        -0.5000 
     65 C          -0.5764  -13.4185  -48.4397 C.2       1 UNK         0.5000 
     66 O          -1.1852  -14.0426  -47.5733 O.2       1 UNK        -0.5000 
     67 C           1.3890  -23.8733  -46.4370 C.2       11 UNK         0.5000 
     68 O           1.8908  -24.7993  -47.0767 O.2       11 UNK        -0.5000 
     69 N           0.0755  -23.6117  -46.4210 N.am      12 UNK        -0.5000 
     70 CA         -0.9651  -24.2339  -47.2392 C.3       12 UNK         0.1400 
     71 CB         -2.2231  -23.3570  -47.1680 C.3       12 UNK        -0.1800 
     72 C          -1.2846  -25.7071  -46.9034 C.2       12 UNK         0.5000 
     73 O          -2.4484  -26.0521  -46.6908 O.2       12 UNK        -0.5000 
     74 N          -0.2608  -26.5678  -46.9098 N.am      13 UNK        -0.5000 
     75 CA         -0.3783  -28.0151  -46.7144 C.3       13 UNK         0.1400 
     76 CB          1.0267  -28.6271  -46.6108 C.3       13 UNK        -0.1800 
     77 C          -1.1963  -28.7076  -47.8236 C.2       13 UNK         0.5000 
     78 O          -1.9621  -29.6257  -47.5277 O.2       13 UNK        -0.5000 
     79 N          -1.0327  -28.2360  -49.0677 N.am      14 UNK        -0.5000 
     80 CA         -1.7694  -28.7010  -50.2471 C.3       14 UNK         0.1400 
     81 CB         -0.7639  -29.2558  -51.2691 C.3       14 UNK        -0.1800 
     82 C          -2.6200  -27.5867  -50.8881 C.2       14 UNK         0.5000 
     83 O          -3.5382  -27.8967  -51.6472 O.2       14 UNK        -0.5000 
     84 N          -2.3100  -26.3164  -50.5877 N.am      15 UNK        -0.5000 
     85 CA         -2.9386  -25.1357  -51.1931 C.3       15 UNK         0.1400 
     86 CB         -1.8871  -24.0193  -51.3057 C.3       15 UNK        -0.1800 
     87 C          -4.1929  -24.6411  -50.4417 C.2       15 UNK         0.5000 
     88 O          -4.7320  -23.5948  -50.8085 O.2       15 UNK        -0.5000 
     89 N          -4.6145  -25.3672  -49.3944 N.am      16 UNK        -0.5000 
     90 CA         -5.7930  -25.1755  -48.5332 C.3       16 UNK         0.1400 
     91 CB         -7.0976  -25.2864  -49.3455 C.3       16 UNK        -0.1800 
     92 C          -5.7790  -23.8917  -47.6778 C.2       16 UNK         0.5000 
     93 O          -5.9379  -23.9726  -46.4596 O.2       16 UNK        -0.5000 
     94 N          -5.5806  -22.7424  -48.3277 N.am      17 UNK        -0.5000 
     95 CA         -5.4443  -21.4191  -47.7194 C.3       17 UNK         0.1400 
     96 CB         -6.7435  -20.6297  -47.9473 C.3       17 UNK        -0.1800 
     97 C          -4.2353  -20.6426  -48.2745 C.2       17 UNK         0.5000 
     98 O          -3.8111  -19.6798  -47.6351 O.2       17 UNK        -0.5000 
     99 N          -3.7019  -21.0683  -49.4333 N.am      18 UNK        -0.5000 
    100 CA        -2.6267  -20.4234  -50.1953 C.3       18 UNK         0.1400 
    101 CB        -1.2743  -20.5500  -49.4624 C.3       18 UNK        -0.1800 
    102 C         -2.9752  -18.9805  -50.6259 C.2       18 UNK         0.5000 
    103 O         -4.1572  -18.6589  -50.7767 O.2       18 UNK        -0.5000 
    104 N         -1.9480  -18.1551  -50.8774 N.am      19 UNK        -0.5000 
    105 CA        -2.0271  -16.7899  -51.4034 C.3       19 UNK         0.1400 
    106 CB        -2.6429  -15.8386  -50.3530 C.3       19 UNK        -0.1800 
    107 C         -2.7429  -16.7744  -52.7694 C.2       19 UNK         0.5000 
    108 O         -2.1689  -17.2463  -53.7506 O.2       19 UNK        -0.5000 
    109 N         -3.9916  -16.2913  -52.8071 N.am      20 UNK        -0.5000 
    110 CA        -4.8617  -16.3139  -53.9843 C.3       20 UNK         0.1400 
    111 CB        -6.1248  -15.4913  -53.6898 C.3       20 UNK        -0.1800 
    112 C         -5.2393  -17.7376  -54.4436 C.2       20 UNK         0.5000 
    113 O         -5.4418  -17.9501  -55.6402 O.2       20 UNK        -0.5000 
    114 N         -5.2921  -18.6974  -53.5060 N.am      21 UNK        -0.5000 
    115 CA        -5.5933  -20.1062  -53.7817 C.3       21 UNK         0.1400 
    116 CB        -5.9632  -20.8228  -52.4741 C.3       21 UNK        -0.1800 
    117 C         -4.4544  -20.8479  -54.5116 C.2       21 UNK         0.5000 
    118 O         -4.6908  -21.9378  -55.0339 O.2       21 UNK        -0.5000 
    119 N         -3.2561  -20.2482  -54.5639 N.am      22 UNK        -0.5000 
    120 CA        -2.1242  -20.7243  -55.3753 C.3       22 UNK         0.1400 
    121 C         -2.3121  -20.5144  -56.9090 C.2       22 UNK         0.5000 
    122 N         -3.2842  -19.7325  -57.3682 N.am      22 UNK        -0.7600 
    123 O         -1.5615  -21.0784  -57.7003 O.2       22 UNK        -0.5000 
    124 C124       -0.7763  -20.1129  -54.9164 C.3       23 UNK        -0.0398 
    125 S125       -0.4004  -20.4063  -53.1571 S.3       23 UNK        -0.2404 
    126 C126        1.1401  -19.4470  -53.0173 C.3       23 UNK        -0.0205 
    127 H127        3.1243  -10.7836  -50.2883 H         1 UNK         0.0600 
    128 H128        2.1677   -9.4892  -49.5596 H         1 UNK         0.0600 
    129 H129        3.5810  -10.1276  -48.7132 H         1 UNK         0.0600 
    130 H130        2.1481  -12.7755  -50.1080 H         1 UNK         0.3000 
    131 H131        1.3430  -13.9653  -47.7140 H         1 UNK         0.0600 
    132 H132        0.4582  -15.8156  -49.2013 H         1 UNK         0.0800 
    133 H133        0.6887  -14.7879  -50.5900 H         1 UNK         0.0800 
    134 H134        2.0602  -17.0357  -47.9675 H         1 UNK         0.0800 
    135 H135        3.7590  -17.1945  -48.3106 H         1 UNK         0.0800 
    136 H136        1.5954  -17.3829  -51.3108 H         1 UNK         0.1150 
    137 H137        2.0042  -21.6235  -51.6400 H         1 UNK         0.1150 
    138 H138        3.3711  -19.5990  -48.1114 H         1 UNK         0.1150 
    139 H139        2.2189  -22.7601  -49.1389 H         1 UNK         0.0800 
    140 H140        3.7177  -22.6626  -50.0245 H         1 UNK         0.0800 
    141 H141        1.9739  -21.2418  -46.9732 H         1 UNK         0.0800 
    142 H142        3.2643  -20.9971  -45.8373 H         1 UNK         0.0800 
    143 H143        3.1598  -23.5070  -45.2825 H         1 UNK         0.0600 
    144 H144        1.3848  -21.4323  -44.4277 H         1 UNK         0.3000 
    145 H145       -0.0352  -23.1534  -41.6591 H         1 UNK         0.0600 
    146 H146        0.9008  -21.1944  -40.4603 H         1 UNK         0.0600 
    147 H147        2.1723  -22.3498  -40.8295 H         1 UNK         0.0600 
    148 H148        2.0183  -20.8818  -41.7860 H         1 UNK         0.0600 
    149 H149       -0.2767  -20.4689  -42.6533 H         1 UNK         0.3000 
    150 H150       -2.9602  -21.1352  -44.9278 H         1 UNK         0.0600 
    151 H151       -4.0638  -20.9685  -42.6823 H         1 UNK         0.0600 
    152 H152       -4.1244  -19.4474  -43.5592 H         1 UNK         0.0600 
    153 H153       -2.9699  -19.6602  -42.2435 H         1 UNK         0.0600 
    154 H154       -1.8277  -18.6652  -44.2342 H         1 UNK         0.3000 
    155 H155        0.9137  -18.7458  -46.6036 H         1 UNK         0.0600 
    156 H156       -1.7035  -17.1942  -46.2552 H         1 UNK         0.0600 
    157 H157       -1.0568  -17.8572  -47.7443 H         1 UNK         0.0600 
    158 H158       -0.2397  -16.5168  -46.9574 H         1 UNK         0.0600 
    159 H159        0.3320  -16.8208  -44.6164 H         1 UNK         0.3000 
    160 H160        2.2375  -18.2342  -41.9376 H         1 UNK         0.0600 
    161 H161        3.2049  -15.9300  -42.0789 H         1 UNK         0.0600 
    162 H162        2.6540  -15.7959  -43.7491 H         1 UNK         0.0600 
    163 H163        3.8664  -16.9898  -43.3144 H         1 UNK         0.0600 
    164 H164        0.5858  -15.8828  -42.3118 H         1 UNK         0.3000 
    165 H165       -2.4023  -17.3272  -40.9964 H         1 UNK         0.0600 
    166 H166       -2.1644  -15.4282  -39.4221 H         1 UNK         0.0600 
    167 H167       -1.0415  -16.7093  -38.9946 H         1 UNK         0.0600 
    168 H168       -0.4533  -15.2711  -39.8204 H         1 UNK         0.0600 
    169 H169       -1.7121  -14.6828  -41.8764 H         1 UNK         0.3000 
    170 H170       -2.4584  -15.1279  -45.3120 H         1 UNK         0.0600 
    171 H171       -4.7457  -14.9480  -44.3189 H         1 UNK         0.0600 
    172 H172       -4.1643  -13.7364  -43.1814 H         1 UNK         0.0600 
    173 H173       -4.1736  -13.3965  -44.9127 H         1 UNK         0.0600 
    174 H174       -1.9752  -12.7416  -43.9370 H         1 UNK         0.3000 
    175 H175        0.4581  -12.1092  -43.1768 H         1 UNK         0.0600 
    176 H176        2.1557  -13.0583  -45.5444 H         1 UNK         0.0600 
    177 H177        2.5628  -11.7221  -44.4710 H         1 UNK         0.0600 
    178 H178        2.4828  -13.3582  -43.8405 H         1 UNK         0.0600 
    179 H179        0.4472  -11.3445  -45.9988 H         1 UNK         0.3000 
    180 H180       -2.5202   -9.3430  -45.7396 H         1 UNK         0.0600 
    181 H181        0.4381   -8.8426  -46.3738 H         1 UNK         0.0600 
    182 H182       -0.5297   -7.9644  -45.1970 H         1 UNK         0.0600 
    183 H183       -0.9169   -7.8506  -46.9069 H         1 UNK         0.0600 
    184 H184       -0.7121  -10.5697  -47.7470 H         1 UNK         0.3000 
    185 H185       -3.1711  -12.8131  -48.9212 H         1 UNK         0.0600 
    186 H186       -3.9296  -10.7540  -50.1092 H         1 UNK         0.0600 
    187 H187       -2.2588  -10.2539  -50.3420 H         1 UNK         0.0600 
    188 H188       -2.8655  -11.7149  -51.1237 H         1 UNK         0.0600 
    189 H189       -0.5706  -11.9837  -49.8734 H         1 UNK         0.3000 
    190 H190       -0.2181  -22.7897  -45.9044 H         1 UNK         0.3000 
    191 H191       -0.6082  -24.2171  -48.2698 H         1 UNK         0.0600 
    192 H192       -2.7124  -23.4219  -46.1956 H         1 UNK         0.0600 
    193 H193       -2.9405  -23.6654  -47.9233 H         1 UNK         0.0600 
    194 H194       -2.0006  -22.3104  -47.3523 H         1 UNK         0.0600 
    195 H195        0.6717  -26.1868  -47.0554 H         1 UNK         0.3000 
    196 H196       -0.8951  -28.1834  -45.7673 H         1 UNK         0.0600 
    197 H197        0.9729  -29.7039  -46.4448 H         1 UNK         0.0600 
    198 H198        1.5824  -28.1973  -45.7771 H         1 UNK         0.0600 
    199 H199        1.6066  -28.4625  -47.5198 H         1 UNK         0.0600 
    200 H200       -0.3391  -27.5180  -49.2140 H         1 UNK         0.3000 
    201 H201       -2.4568  -29.5056  -49.9783 H         1 UNK         0.0600 
    202 H202       -0.1959  -30.0864  -50.8496 H         1 UNK         0.0600 
    203 H203       -0.0539  -28.4933  -51.5919 H         1 UNK         0.0600 
    204 H204       -1.2735  -29.6287  -52.1586 H         1 UNK         0.0600 
    205 H205       -1.5552  -26.1429  -49.9450 H         1 UNK         0.3000 
    206 H206       -3.2591  -25.3845  -52.2070 H         1 UNK         0.0600 
    207 H207       -0.9843  -24.3717  -51.8049 H         1 UNK         0.0600 
    208 H208       -2.2686  -23.1850  -51.8950 H         1 UNK         0.0600 
    209 H209       -1.6025  -23.6313  -50.3291 H         1 UNK         0.0600 
    210 H210       -4.0531  -26.1720  -49.1551 H         1 UNK         0.3000 
    211 H211       -5.7772  -26.0119  -47.8324 H         1 UNK         0.0600 
    212 H212       -7.1907  -24.4894  -50.0838 H         1 UNK         0.0600 
    213 H213       -7.9688  -25.2273  -48.6919 H         1 UNK         0.0600 
    214 H214       -7.1518  -26.2386  -49.8733 H         1 UNK         0.0600 
    215 H215       -5.4556  -22.8112  -49.3337 H         1 UNK         0.3000 
    216 H216       -5.2811  -21.5189  -46.6442 H         1 UNK         0.0600 
    217 H217       -6.6839  -19.6385  -47.4960 H         1 UNK         0.0600 
    218 H218       -7.5977  -21.1396  -47.5015 H         1 UNK         0.0600 
    219 H219       -6.9485  -20.4957  -49.0103 H         1 UNK         0.0600 
    220 H220       -4.1274  -21.8599  -49.8974 H         1 UNK         0.3000 
    221 H221       -2.5482  -20.9846  -51.1256 H         1 UNK         0.0600 
    222 H222       -1.2860  -20.0299  -48.5079 H         1 UNK         0.0600 
    223 H223       -1.0209  -21.5912  -49.2733 H         1 UNK         0.0600 
    224 H224       -0.4529  -20.1420  -50.0457 H         1 UNK         0.0600 
    225 H225       -1.0150  -18.5306  -50.7864 H         1 UNK         0.3000 
    226 H226       -1.0020  -16.4661  -51.5875 H         1 UNK         0.0600 
    227 H227       -2.0764  -15.8744  -49.4234 H         1 UNK         0.0600 
    228 H228       -2.6298  -14.8055  -50.7025 H         1 UNK         0.0600 
    229 H229       -3.6734  -16.0948  -50.1062 H         1 UNK         0.0600 
    230 H230       -4.4041  -15.9646  -51.9455 H         1 UNK         0.3000 
    231 H231       -4.3257  -15.8354  -54.8067 H         1 UNK         0.0600 
    232 H232       -5.8753  -14.4594  -53.4419 H         1 UNK         0.0600 
    233 H233       -6.6924  -15.9098  -52.8576 H         1 UNK         0.0600 
    234 H234       -6.7852  -15.4652  -54.5577 H         1 UNK         0.0600 
    235 H235       -5.0624  -18.4656  -52.5436 H         1 UNK         0.3000 
    236 H236       -6.4678  -20.1376  -54.4350 H         1 UNK         0.0600 
    237 H237       -6.3323  -21.8298  -52.6728 H         1 UNK         0.0600 
    238 H238       -5.1028  -20.9228  -51.8162 H         1 UNK         0.0600 
    239 H239       -6.7442  -20.2900  -51.9315 H         1 UNK         0.0600 
    240 H240       -3.1349  -19.3459  -54.1240 H         1 UNK         0.3000 
    241 H241       -2.0530  -21.8037  -55.2282 H         1 UNK         0.0600 
    242 H242       -3.3918  -19.6125  -58.3631 H         1 UNK         0.3800 
    243 H243       -3.9140  -19.2553  -56.7375 H         1 UNK         0.3800 
    244 H244        0.0456  -20.5297  -55.5016 H         1 UNK         0.0800 
    245 H245       -0.7671  -19.0378  -55.1019 H         1 UNK         0.0800 
    246 H246        1.8735  -19.8377  -53.7243 H         1 UNK         0.0800 
    247 H247        0.9407  -18.4159  -53.3143 H         1 UNK         0.0800 
@<TRIPOS>BOND
     1    1    2 1    
     2    1  127 1    
     3    1  128 1    
     4    1  129 1    
     5    2    3 2    
     6    2    4 am   BACKBONE|DICT|INTERRES
     7    4    5 1    
     8    4  130 1    
     9    5    6 1    
    10    5   65 1    
    11    5  131 1    
    12    6    7 1    
    13    6  132 1    
    14    6  133 1    
    15    7    8 1    
    16    8    9 1    
    17    8  134 1    
    18    8  135 1    
    19    9   10 ar   
    20    9   14 ar   
    21   10   11 ar   
    22   10  136 1    
    23   11   12 ar   
    24   11  126 1    
    25   12   13 ar   
    26   12  137 1    
    27   13   14 ar   
    28   13   15 1    
    29   14  138 1    
    30   15   16 1    
    31   15  139 1    
    32   15  140 1    
    33   16   17 1    
    34   17   18 1    
    35   17  141 1    
    36   17  142 1    
    37   18   19 1    
    38   18   67 1    
    39   18  143 1    
    40   19   20 am   BACKBONE|DICT|INTERRES
    41   19  144 1    
    42   20   21 2    
    43   20   22 1    
    44   22   23 1    
    45   22   24 1    
    46   22  145 1    
    47   23  146 1    
    48   23  147 1    
    49   23  148 1    
    50   24   25 am   BACKBONE|DICT|INTERRES
    51   24  149 1    
    52   25   26 2    
    53   25   27 1    
    54   27   28 1    
    55   27   29 1    
    56   27  150 1    
    57   28  151 1    
    58   28  152 1    
    59   28  153 1    
    60   29   30 am   BACKBONE|DICT|INTERRES
    61   29  154 1    
    62   30   31 2    
    63   30   32 1    
    64   32   33 1    
    65   32   34 1    
    66   32  155 1    
    67   33  156 1    
    68   33  157 1    
    69   33  158 1    
    70   34   35 am   BACKBONE|DICT|INTERRES
    71   34  159 1    
    72   35   36 2    
    73   35   37 1    
    74   37   38 1    
    75   37   39 1    
    76   37  160 1    
    77   38  161 1    
    78   38  162 1    
    79   38  163 1    
    80   39   40 am   BACKBONE|DICT|INTERRES
    81   39  164 1    
    82   40   41 2    
    83   40   42 1    
    84   42   43 1    
    85   42   44 1    
    86   42  165 1    
    87   43  166 1    
    88   43  167 1    
    89   43  168 1    
    90   44   45 am   BACKBONE|DICT|INTERRES
    91   44  169 1    
    92   45   46 2    
    93   45   47 1    
    94   47   48 1    
    95   47   49 1    
    96   47  170 1    
    97   48  171 1    
    98   48  172 1    
    99   48  173 1    
   100   49   50 am   BACKBONE|DICT|INTERRES
   101   49  174 1    
   102   50   51 2    
   103   50   52 1    
   104   52   53 1    
   105   52   54 1    
   106   52  175 1    
   107   53  176 1    
   108   53  177 1    
   109   53  178 1    
   110   54   55 am   BACKBONE|DICT|INTERRES
   111   54  179 1    
   112   55   56 2    
   113   55   57 1    
   114   57   58 1    
   115   57   59 1    
   116   57  180 1    
   117   58  181 1    
   118   58  182 1    
   119   58  183 1    
   120   59   60 am   BACKBONE|DICT|INTERRES
   121   59  184 1    
   122   60   61 2    
   123   60   62 1    
   124   62   63 1    
   125   62   64 1    
   126   62  185 1    
   127   63  186 1    
   128   63  187 1    
   129   63  188 1    
   130   64   65 am   BACKBONE|DICT|INTERRES
   131   64  189 1    
   132   65   66 2    
   133   67   68 2    
   134   67   69 am   BACKBONE|DICT|INTERRES
   135   69   70 1    
   136   69  190 1    
   137   70   71 1    
   138   70   72 1    
   139   70  191 1    
   140   71  192 1    
   141   71  193 1    
   142   71  194 1    
   143   72   73 2    
   144   72   74 am   BACKBONE|DICT|INTERRES
   145   74   75 1    
   146   74  195 1    
   147   75   76 1    
   148   75   77 1    
   149   75  196 1    
   150   76  197 1    
   151   76  198 1    
   152   76  199 1    
   153   77   78 2    
   154   77   79 am   BACKBONE|DICT|INTERRES
   155   79   80 1    
   156   79  200 1    
   157   80   81 1    
   158   80   82 1    
   159   80  201 1    
   160   81  202 1    
   161   81  203 1    
   162   81  204 1    
   163   82   83 2    
   164   82   84 am   BACKBONE|DICT|INTERRES
   165   84   85 1    
   166   84  205 1    
   167   85   86 1    
   168   85   87 1    
   169   85  206 1    
   170   86  207 1    
   171   86  208 1    
   172   86  209 1    
   173   87   88 2    
   174   87   89 am   BACKBONE|DICT|INTERRES
   175   89   90 1    
   176   89  210 1    
   177   90   91 1    
   178   90   92 1    
   179   90  211 1    
   180   91  212 1    
   181   91  213 1    
   182   91  214 1    
   183   92   93 2    
   184   92   94 am   BACKBONE|DICT|INTERRES
   185   94   95 1    
   186   94  215 1    
   187   95   96 1    
   188   95   97 1    
   189   95  216 1    
   190   96  217 1    
   191   96  218 1    
   192   96  219 1    
   193   97   98 2    
   194   97   99 am   BACKBONE|DICT|INTERRES
   195   99  100 1    
   196   99  220 1    
   197  100  101 1    
   198  100  102 1    
   199  100  221 1    
   200  101  222 1    
   201  101  223 1    
   202  101  224 1    
   203  102  103 2    
   204  102  104 am   BACKBONE|DICT|INTERRES
   205  104  105 1    
   206  104  225 1    
   207  105  106 1    
   208  105  107 1    
   209  105  226 1    
   210  106  227 1    
   211  106  228 1    
   212  106  229 1    
   213  107  108 2    
   214  107  109 am   BACKBONE|DICT|INTERRES
   215  109  110 1    
   216  109  230 1    
   217  110  111 1    
   218  110  112 1    
   219  110  231 1    
   220  111  232 1    
   221  111  233 1    
   222  111  234 1    
   223  112  113 2    
   224  112  114 am   BACKBONE|DICT|INTERRES
   225  114  115 1    
   226  114  235 1    
   227  115  116 1    
   228  115  117 1    
   229  115  236 1    
   230  116  237 1    
   231  116  238 1    
   232  116  239 1    
   233  117  118 2    
   234  117  119 am   BACKBONE|DICT|INTERRES
   235  119  120 1    
   236  119  240 1    
   237  120  121 1    
   238  120  124 1    
   239  120  241 1    
   240  121  122 am   BACKBONE|DICT|INTERRES
   241  121  123 2    
   242  122  242 1    
   243  122  243 1    
   244  124  125 1    
   245  124  244 1    
   246  124  245 1    
   247  125  126 1    
   248  126  246 1    
   249  126  247 1    
@<TRIPOS>SUBSTRUCTURE
     1 UNK         1 GROUP             0       ****    0 ROOT    
