@<TRIPOS>MOLECULE
3R540
247   249    1
SMALL
USER_CHARGES


@<TRIPOS>ATOM
      1 CA         -0.4961   -9.0510  -45.9942 C.3       0 UNK        -0.1800 
      2 C          -1.6557   -9.7022  -46.7473 C.2       0 UNK         0.5000 
      3 O          -2.7597   -9.1635  -46.7178 O.2       0 UNK        -0.5000 
      4 N          -1.4818  -10.8450  -47.4285 N.am      1 UNK        -0.5000 
      5 CA         -0.2575  -11.6492  -47.5693 C.3       1 UNK         0.1400 
      6 C6         -0.3950  -12.7159  -48.6828 C.3       23 UNK        -0.0398 
      7 S7         -0.7384  -11.9808  -50.3198 S.3       23 UNK        -0.2404 
      8 C8         -2.5133  -12.3321  -50.5446 C.3       23 UNK        -0.0205 
      9 C9         -2.7746  -13.8067  -50.8115 C.ar      23 UNK        -0.0193 
     10 C10        -2.5050  -14.3469  -52.0712 C.ar      23 UNK        -0.1150 
     11 C11        -2.7293  -15.7023  -52.3263 C.ar      23 UNK        -0.0193 
     12 C12        -3.2283  -16.5226  -51.3084 C.ar      23 UNK        -0.1150 
     13 C13        -3.5100  -15.9908  -50.0454 C.ar      23 UNK        -0.0193 
     14 C14        -3.2884  -14.6311  -49.8065 C.ar      23 UNK        -0.1150 
     15 C15        -4.0426  -16.8764  -48.9293 C.3       23 UNK        -0.0205 
     16 S16        -2.7091  -17.3253  -47.7785 S.3       23 UNK        -0.2404 
     17 C17        -3.6166  -18.2034  -46.4600 C.3       23 UNK        -0.0398 
     18 CA         -3.4781  -19.7396  -46.5715 C.3       11 UNK         0.1400 
     19 N          -2.0930  -20.2038  -46.4309 N.am      11 UNK        -0.5000 
     20 C          -1.6842  -21.4609  -46.6501 C.2       10 UNK         0.5000 
     21 O          -2.4393  -22.3719  -46.9881 O.2       10 UNK        -0.5000 
     22 CA         -0.1975  -21.7709  -46.4140 C.3       10 UNK         0.1400 
     23 CB          0.6709  -21.2139  -47.5518 C.3       10 UNK        -0.1800 
     24 N           0.2724  -21.2721  -45.1219 N.am      10 UNK        -0.5000 
     25 C          -0.1665  -21.7275  -43.9388 C.2       9 UNK         0.5000 
     26 O          -0.9757  -22.6470  -43.8185 O.2       9 UNK        -0.5000 
     27 CA          0.3561  -21.0198  -42.6762 C.3       9 UNK         0.1400 
     28 CB          1.7468  -21.5477  -42.2940 C.3       9 UNK        -0.1800 
     29 N           0.4044  -19.5647  -42.8127 N.am      9 UNK        -0.5000 
     30 C          -0.6614  -18.7795  -43.0271 C.2       8 UNK         0.5000 
     31 O          -1.8175  -19.1929  -43.1120 O.2       8 UNK        -0.5000 
     32 CA         -0.3787  -17.2829  -43.2456 C.3       8 UNK         0.1400 
     33 CB         -0.0669  -16.5919  -41.9106 C.3       8 UNK        -0.1800 
     34 N           0.7122  -17.0479  -44.1935 N.am      8 UNK        -0.5000 
     35 C           0.7337  -17.5032  -45.4554 C.2       7 UNK         0.5000 
     36 O          -0.1731  -18.1578  -45.9630 O.2       7 UNK        -0.5000 
     37 CA          2.0112  -17.2446  -46.2658 C.3       7 UNK         0.1400 
     38 CB          2.0563  -15.7967  -46.7719 C.3       7 UNK        -0.1800 
     39 N           3.2072  -17.5433  -45.4806 N.am      7 UNK        -0.5000 
     40 C           3.5683  -18.7791  -45.1047 C.2       6 UNK         0.5000 
     41 O           2.9605  -19.8001  -45.4273 O.2       6 UNK        -0.5000 
     42 CA          4.7903  -18.8837  -44.1750 C.3       6 UNK         0.1400 
     43 CB          6.0948  -18.8470  -44.9850 C.3       6 UNK        -0.1800 
     44 N           4.8149  -17.8253  -43.1640 N.am      6 UNK        -0.5000 
     45 C           3.9180  -17.7053  -42.1749 C.2       5 UNK         0.5000 
     46 O           2.9908  -18.4936  -41.9930 O.2       5 UNK        -0.5000 
     47 CA          4.0573  -16.4747  -41.2609 C.3       5 UNK         0.1400 
     48 CB          5.0290  -16.7660  -40.1078 C.3       5 UNK        -0.1800 
     49 N           4.4903  -15.2665  -41.9695 N.am      5 UNK        -0.5000 
     50 C           3.7827  -14.6573  -42.9290 C.2       4 UNK         0.5000 
     51 O           2.7127  -15.0862  -43.3688 O.2       4 UNK        -0.5000 
     52 CA          4.3765  -13.3660  -43.5124 C.3       4 UNK         0.1400 
     53 CB          4.8785  -13.5945  -44.9460 C.3       4 UNK        -0.1800 
     54 N           3.3462  -12.3339  -43.5217 N.am      4 UNK        -0.5000 
     55 C           3.0637  -11.5386  -42.4789 C.2       3 UNK         0.5000 
     56 O           3.7558  -11.4708  -41.4624 O.2       3 UNK        -0.5000 
     57 CA          1.7708  -10.7026  -42.5722 C.3       3 UNK         0.1400 
     58 CB          2.0573   -9.3246  -43.1879 C.3       3 UNK        -0.1800 
     59 N           0.7470  -11.3815  -43.3656 N.am      3 UNK        -0.5000 
     60 C           0.1077  -12.4965  -42.9894 C.2       2 UNK         0.5000 
     61 O           0.1401  -12.9272  -41.8366 O.2       2 UNK        -0.5000 
     62 CA         -0.6735  -13.2758  -44.0745 C.3       2 UNK         0.1400 
     63 CB         -2.0719  -13.6864  -43.5830 C.3       2 UNK        -0.1800 
     64 N          -0.8167  -12.5916  -45.3659 N.am      2 UNK        -0.5000 
     65 C           0.1598  -12.3255  -46.2459 C.2       1 UNK         0.5000 
     66 O           1.3500  -12.5468  -46.0251 O.2       1 UNK        -0.5000 
     67 C          -4.4318  -20.4581  -45.5941 C.2       11 UNK         0.5000 
     68 O          -5.5173  -20.8658  -46.0100 O.2       11 UNK        -0.5000 
     69 N          -3.9913  -20.6641  -44.3429 N.am      12 UNK        -0.5000 
     70 CA         -4.7079  -21.4318  -43.3183 C.3       12 UNK         0.1400 
     71 CB         -3.9866  -21.2866  -41.9703 C.3       12 UNK        -0.1800 
     72 C          -4.8837  -22.9216  -43.6749 C.2       12 UNK         0.5000 
     73 O          -5.8739  -23.5288  -43.2676 O.2       12 UNK        -0.5000 
     74 N          -3.9531  -23.4696  -44.4664 N.am      13 UNK        -0.5000 
     75 CA         -3.9891  -24.8214  -45.0249 C.3       13 UNK         0.1400 
     76 CB         -2.5466  -25.3467  -45.1431 C.3       13 UNK        -0.1800 
     77 C          -4.7391  -24.8818  -46.3744 C.2       13 UNK         0.5000 
     78 O          -4.4413  -25.7533  -47.1918 O.2       13 UNK        -0.5000 
     79 N          -5.6856  -23.9567  -46.5986 N.am      14 UNK        -0.5000 
     80 CA         -6.5223  -23.8094  -47.7949 C.3       14 UNK         0.1400 
     81 CB         -7.4784  -25.0114  -47.9474 C.3       14 UNK        -0.1800 
     82 C          -5.6852  -23.5391  -49.0599 C.2       14 UNK         0.5000 
     83 O          -5.8656  -24.2040  -50.0812 O.2       14 UNK        -0.5000 
     84 N          -4.7501  -22.5860  -48.9406 N.am      15 UNK        -0.5000 
     85 CA         -3.7449  -22.2082  -49.9403 C.3       15 UNK         0.1400 
     86 CB         -4.4071  -21.5405  -51.1607 C.3       15 UNK        -0.1800 
     87 C          -2.8392  -23.4009  -50.3072 C.2       15 UNK         0.5000 
     88 O          -2.6592  -23.7084  -51.4862 O.2       15 UNK        -0.5000 
     89 N          -2.3245  -24.0681  -49.2642 N.am      16 UNK        -0.5000 
     90 CA         -1.5075  -25.2845  -49.2892 C.3       16 UNK         0.1400 
     91 CB         -0.1047  -24.9705  -49.8489 C.3       16 UNK        -0.1800 
     92 C          -2.2084  -26.4393  -50.0344 C.2       16 UNK         0.5000 
     93 O          -1.6425  -27.0049  -50.9693 O.2       16 UNK        -0.5000 
     94 N          -3.4578  -26.7278  -49.6413 N.am      17 UNK        -0.5000 
     95 CA         -4.3842  -27.6734  -50.2777 C.3       17 UNK         0.1400 
     96 CB         -3.9236  -29.1265  -50.0421 C.3       17 UNK        -0.1800 
     97 C          -4.6223  -27.3448  -51.7690 C.2       17 UNK         0.5000 
     98 O          -4.6010  -28.2350  -52.6207 O.2       17 UNK        -0.5000 
     99 N          -4.8027  -26.0464  -52.0427 N.am      18 UNK        -0.5000 
    100 CA        -4.9573  -25.3919  -53.3427 C.3       18 UNK         0.1400 
    101 CB        -6.2272  -25.8864  -54.0642 C.3       18 UNK        -0.1800 
    102 C         -3.7123  -25.4290  -54.2581 C.2       18 UNK         0.5000 
    103 O         -3.8081  -24.9864  -55.4039 O.2       18 UNK        -0.5000 
    104 N         -2.5598  -25.9097  -53.7672 N.am      19 UNK        -0.5000 
    105 CA        -1.3065  -25.9520  -54.5276 C.3       19 UNK         0.1400 
    106 CB        -0.3354  -26.9465  -53.8751 C.3       19 UNK        -0.1800 
    107 C         -0.6387  -24.5707  -54.6697 C.2       19 UNK         0.5000 
    108 O          0.1198  -24.3656  -55.6180 O.2       19 UNK        -0.5000 
    109 N         -0.9324  -23.6526  -53.7408 N.am      20 UNK        -0.5000 
    110 CA        -0.4169  -22.2855  -53.6976 C.3       20 UNK         0.1400 
    111 CB         0.3296  -22.0742  -52.3673 C.3       20 UNK        -0.1800 
    112 C         -1.5519  -21.2627  -53.8949 C.2       20 UNK         0.5000 
    113 O         -1.4473  -20.1337  -53.4119 O.2       20 UNK        -0.5000 
    114 N         -2.6192  -21.6546  -54.6080 N.am      21 UNK        -0.5000 
    115 CA        -3.8086  -20.8470  -54.9068 C.3       21 UNK         0.1400 
    116 CB        -4.9682  -21.7852  -55.2839 C.3       21 UNK        -0.1800 
    117 C         -3.5613  -19.7483  -55.9657 C.2       21 UNK         0.5000 
    118 O         -4.3026  -19.6457  -56.9446 O.2       21 UNK        -0.5000 
    119 N         -2.5201  -18.9421  -55.7358 N.am      22 UNK        -0.5000 
    120 CA        -2.1319  -17.7393  -56.4919 C.3       22 UNK         0.1400 
    121 C         -1.6129  -18.0019  -57.9395 C.2       22 UNK         0.5000 
    122 N         -1.2881  -19.2327  -58.3153 N.am      22 UNK        -0.7600 
    123 O         -1.4670  -17.0715  -58.7281 O.2       22 UNK        -0.5000 
    124 C124       -3.2150  -16.6204  -56.4450 C.3       23 UNK        -0.0398 
    125 S125       -3.8746  -16.1845  -54.7904 S.3       23 UNK        -0.2404 
    126 C126       -2.4191  -16.2750  -53.6992 C.3       23 UNK        -0.0205 
    127 H127        0.4837   -9.3281  -46.3782 H         1 UNK         0.0600 
    128 H128       -0.5465   -9.3170  -44.9392 H         1 UNK         0.0600 
    129 H129       -0.5727   -7.9659  -46.0656 H         1 UNK         0.0600 
    130 H130       -2.2803  -11.2116  -47.9241 H         1 UNK         0.3000 
    131 H131        0.5550  -10.9829  -47.8638 H         1 UNK         0.0600 
    132 H132        0.5322  -13.2847  -48.7767 H         1 UNK         0.0800 
    133 H133       -1.1656  -13.4443  -48.4288 H         1 UNK         0.0800 
    134 H134       -3.0741  -11.9898  -49.6743 H         1 UNK         0.0800 
    135 H135       -2.8807  -11.7464  -51.3885 H         1 UNK         0.0800 
    136 H136       -2.1133  -13.7105  -52.8526 H         1 UNK         0.1150 
    137 H137       -3.3947  -17.5736  -51.5003 H         1 UNK         0.1150 
    138 H138       -3.5029  -14.2211  -48.8295 H         1 UNK         0.1150 
    139 H139       -4.4920  -17.7833  -49.3371 H         1 UNK         0.0800 
    140 H140       -4.8319  -16.3489  -48.3916 H         1 UNK         0.0800 
    141 H141       -4.6656  -17.9039  -46.4937 H         1 UNK         0.0800 
    142 H142       -3.2324  -17.8591  -45.4980 H         1 UNK         0.0800 
    143 H143       -3.8015  -20.0173  -47.5764 H         1 UNK         0.0600 
    144 H144       -1.4036  -19.4958  -46.1808 H         1 UNK         0.3000 
    145 H145       -0.0849  -22.8572  -46.4120 H         1 UNK         0.0600 
    146 H146        1.7146  -21.5023  -47.4265 H         1 UNK         0.0600 
    147 H147        0.3406  -21.5975  -48.5181 H         1 UNK         0.0600 
    148 H148        0.6298  -20.1258  -47.5998 H         1 UNK         0.0600 
    149 H149        0.9582  -20.5259  -45.1409 H         1 UNK         0.3000 
    150 H150       -0.3312  -21.2515  -41.8600 H         1 UNK         0.0600 
    151 H151        1.7360  -22.6322  -42.1783 H         1 UNK         0.0600 
    152 H152        2.0825  -21.1230  -41.3478 H         1 UNK         0.0600 
    153 H153        2.4919  -21.3041  -43.0521 H         1 UNK         0.0600 
    154 H154        1.3198  -19.1325  -42.7218 H         1 UNK         0.3000 
    155 H155       -1.2780  -16.8282  -43.6657 H         1 UNK         0.0600 
    156 H156       -0.9200  -16.6508  -41.2339 H         1 UNK         0.0600 
    157 H157        0.1639  -15.5384  -42.0542 H         1 UNK         0.0600 
    158 H158        0.7836  -17.0485  -41.4055 H         1 UNK         0.0600 
    159 H159        1.4974  -16.4951  -43.8601 H         1 UNK         0.3000 
    160 H160        1.9995  -17.9061  -47.1348 H         1 UNK         0.0600 
    161 H161        2.0468  -15.0855  -45.9473 H         1 UNK         0.0600 
    162 H162        1.1917  -15.5773  -47.3996 H         1 UNK         0.0600 
    163 H163        2.9492  -15.6107  -47.3685 H         1 UNK         0.0600 
    164 H164        3.7290  -16.7556  -45.1274 H         1 UNK         0.3000 
    165 H165        4.7346  -19.8449  -43.6594 H         1 UNK         0.0600 
    166 H166        6.9622  -18.9974  -44.3419 H         1 UNK         0.0600 
    167 H167        6.1085  -19.6369  -45.7372 H         1 UNK         0.0600 
    168 H168        6.2221  -17.8965  -45.5044 H         1 UNK         0.0600 
    169 H169        5.5459  -17.1336  -43.2394 H         1 UNK         0.3000 
    170 H170        3.0739  -16.2720  -40.8320 H         1 UNK         0.0600 
    171 H171        4.7185  -17.6508  -39.5502 H         1 UNK         0.0600 
    172 H172        6.0426  -16.9445  -40.4690 H         1 UNK         0.0600 
    173 H173        5.0645  -15.9356  -39.4024 H         1 UNK         0.0600 
    174 H174        5.3601  -14.8541  -41.6638 H         1 UNK         0.3000 
    175 H175        5.2217  -13.0430  -42.9008 H         1 UNK         0.0600 
    176 H176        4.0683  -13.8726  -45.6200 H         1 UNK         0.0600 
    177 H177        5.3449  -12.6935  -45.3447 H         1 UNK         0.0600 
    178 H178        5.6247  -14.3893  -44.9794 H         1 UNK         0.0600 
    179 H179        2.6956  -12.3696  -44.2979 H         1 UNK         0.3000 
    180 H180        1.3892  -10.5564  -41.5595 H         1 UNK         0.0600 
    181 H181        2.4102   -9.4071  -44.2167 H         1 UNK         0.0600 
    182 H182        2.8232   -8.7954  -42.6193 H         1 UNK         0.0600 
    183 H183        1.1648   -8.6989  -43.1867 H         1 UNK         0.0600 
    184 H184        0.6896  -11.1253  -44.3394 H         1 UNK         0.3000 
    185 H185       -0.1034  -14.1894  -44.2551 H         1 UNK         0.0600 
    186 H186       -2.0165  -14.2569  -42.6552 H         1 UNK         0.0600 
    187 H187       -2.7014  -12.8158  -43.3958 H         1 UNK         0.0600 
    188 H188       -2.5769  -14.3172  -44.3150 H         1 UNK         0.0600 
    189 H189       -1.7580  -12.3277  -45.6198 H         1 UNK         0.3000 
    190 H190       -3.0985  -20.2663  -44.0607 H         1 UNK         0.3000 
    191 H191       -5.7058  -21.0001  -43.2180 H         1 UNK         0.0600 
    192 H192       -2.9645  -21.6636  -42.0201 H         1 UNK         0.0600 
    193 H193       -3.9444  -20.2436  -41.6562 H         1 UNK         0.0600 
    194 H194       -4.5042  -21.8405  -41.1861 H         1 UNK         0.0600 
    195 H195       -3.1700  -22.8967  -44.7556 H         1 UNK         0.3000 
    196 H196       -4.5244  -25.4794  -44.3379 H         1 UNK         0.0600 
    197 H197       -2.5281  -26.3829  -45.4827 H         1 UNK         0.0600 
    198 H198       -2.0377  -25.3151  -44.1796 H         1 UNK         0.0600 
    199 H199       -1.9594  -24.7580  -45.8476 H         1 UNK         0.0600 
    200 H200       -5.8231  -23.2505  -45.8881 H         1 UNK         0.3000 
    201 H201       -7.1333  -22.9198  -47.6360 H         1 UNK         0.0600 
    202 H202       -8.1784  -24.8498  -48.7679 H         1 UNK         0.0600 
    203 H203       -8.0680  -25.1628  -47.0433 H         1 UNK         0.0600 
    204 H204       -6.9412  -25.9369  -48.1564 H         1 UNK         0.0600 
    205 H205       -4.6397  -22.1618  -48.0294 H         1 UNK         0.3000 
    206 H206       -3.0992  -21.4627  -49.4753 H         1 UNK         0.0600 
    207 H207       -5.0544  -20.7175  -50.8584 H         1 UNK         0.0600 
    208 H208       -3.6482  -21.1270  -51.8223 H         1 UNK         0.0600 
    209 H209       -5.0045  -22.2435  -51.7412 H         1 UNK         0.0600 
    210 H210       -2.5307  -23.6965  -48.3406 H         1 UNK         0.3000 
    211 H211       -1.3915  -25.6054  -48.2532 H         1 UNK         0.0600 
    212 H212        0.3675  -24.1570  -49.2982 H         1 UNK         0.0600 
    213 H213        0.5492  -25.8396  -49.7706 H         1 UNK         0.0600 
    214 H214       -0.1431  -24.6860  -50.9007 H         1 UNK         0.0600 
    215 H215       -3.8340  -26.2296  -48.8354 H         1 UNK         0.3000 
    216 H216       -5.3450  -27.5437  -49.7774 H         1 UNK         0.0600 
    217 H217       -4.6648  -29.8357  -50.4119 H         1 UNK         0.0600 
    218 H218       -2.9830  -29.3415  -50.5500 H         1 UNK         0.0600 
    219 H219       -3.7847  -29.3272  -48.9798 H         1 UNK         0.0600 
    220 H220       -4.8421  -25.4069  -51.2535 H         1 UNK         0.3000 
    221 H221       -5.1101  -24.3402  -53.1024 H         1 UNK         0.0600 
    222 H222       -6.1292  -26.9205  -54.3950 H         1 UNK         0.0600 
    223 H223       -7.0999  -25.8213  -53.4144 H         1 UNK         0.0600 
    224 H224       -6.4370  -25.2811  -54.9468 H         1 UNK         0.0600 
    225 H225       -2.5233  -26.2330  -52.8071 H         1 UNK         0.3000 
    226 H226       -1.5301  -26.3170  -55.5323 H         1 UNK         0.0600 
    227 H227       -0.8070  -27.9157  -53.7118 H         1 UNK         0.0600 
    228 H228        0.5361  -27.1099  -54.5101 H         1 UNK         0.0600 
    229 H229        0.0292  -26.5813  -52.9146 H         1 UNK         0.0600 
    230 H230       -1.5919  -23.8891  -53.0006 H         1 UNK         0.3000 
    231 H231        0.2933  -22.1183  -54.5093 H         1 UNK         0.0600 
    232 H232        0.8047  -21.0931  -52.3341 H         1 UNK         0.0600 
    233 H233        1.1160  -22.8174  -52.2350 H         1 UNK         0.0600 
    234 H234       -0.3422  -22.1417  -51.5117 H         1 UNK         0.0600 
    235 H235       -2.6152  -22.5931  -54.9824 H         1 UNK         0.3000 
    236 H236       -4.1023  -20.3228  -53.9957 H         1 UNK         0.0600 
    237 H237       -5.1937  -22.4744  -54.4722 H         1 UNK         0.0600 
    238 H238       -5.8812  -21.2240  -55.4865 H         1 UNK         0.0600 
    239 H239       -4.7372  -22.3738  -56.1725 H         1 UNK         0.0600 
    240 H240       -1.9694  -19.1416  -54.9051 H         1 UNK         0.3000 
    241 H241       -1.2518  -17.3566  -55.9761 H         1 UNK         0.0600 
    242 H242       -0.9430  -19.3931  -59.2488 H         1 UNK         0.3800 
    243 H243       -1.4050  -20.0071  -57.6822 H         1 UNK         0.3800 
    244 H244       -2.8166  -15.7018  -56.8788 H         1 UNK         0.0800 
    245 H245       -4.0630  -16.8985  -57.0726 H         1 UNK         0.0800 
    246 H246       -1.5896  -15.7279  -54.1500 H         1 UNK         0.0800 
    247 H247       -2.0921  -17.3096  -53.5931 H         1 UNK         0.0800 
@<TRIPOS>BOND
     1    1    2 1    
     2    1  127 1    
     3    1  128 1    
     4    1  129 1    
     5    2    3 2    
     6    2    4 am   BACKBONE|DICT|INTERRES
     7    4    5 1    
     8    4  130 1    
     9    5    6 1    
    10    5   65 1    
    11    5  131 1    
    12    6    7 1    
    13    6  132 1    
    14    6  133 1    
    15    7    8 1    
    16    8    9 1    
    17    8  134 1    
    18    8  135 1    
    19    9   10 ar   
    20    9   14 ar   
    21   10   11 ar   
    22   10  136 1    
    23   11   12 ar   
    24   11  126 1    
    25   12   13 ar   
    26   12  137 1    
    27   13   14 ar   
    28   13   15 1    
    29   14  138 1    
    30   15   16 1    
    31   15  139 1    
    32   15  140 1    
    33   16   17 1    
    34   17   18 1    
    35   17  141 1    
    36   17  142 1    
    37   18   19 1    
    38   18   67 1    
    39   18  143 1    
    40   19   20 am   BACKBONE|DICT|INTERRES
    41   19  144 1    
    42   20   21 2    
    43   20   22 1    
    44   22   23 1    
    45   22   24 1    
    46   22  145 1    
    47   23  146 1    
    48   23  147 1    
    49   23  148 1    
    50   24   25 am   BACKBONE|DICT|INTERRES
    51   24  149 1    
    52   25   26 2    
    53   25   27 1    
    54   27   28 1    
    55   27   29 1    
    56   27  150 1    
    57   28  151 1    
    58   28  152 1    
    59   28  153 1    
    60   29   30 am   BACKBONE|DICT|INTERRES
    61   29  154 1    
    62   30   31 2    
    63   30   32 1    
    64   32   33 1    
    65   32   34 1    
    66   32  155 1    
    67   33  156 1    
    68   33  157 1    
    69   33  158 1    
    70   34   35 am   BACKBONE|DICT|INTERRES
    71   34  159 1    
    72   35   36 2    
    73   35   37 1    
    74   37   38 1    
    75   37   39 1    
    76   37  160 1    
    77   38  161 1    
    78   38  162 1    
    79   38  163 1    
    80   39   40 am   BACKBONE|DICT|INTERRES
    81   39  164 1    
    82   40   41 2    
    83   40   42 1    
    84   42   43 1    
    85   42   44 1    
    86   42  165 1    
    87   43  166 1    
    88   43  167 1    
    89   43  168 1    
    90   44   45 am   BACKBONE|DICT|INTERRES
    91   44  169 1    
    92   45   46 2    
    93   45   47 1    
    94   47   48 1    
    95   47   49 1    
    96   47  170 1    
    97   48  171 1    
    98   48  172 1    
    99   48  173 1    
   100   49   50 am   BACKBONE|DICT|INTERRES
   101   49  174 1    
   102   50   51 2    
   103   50   52 1    
   104   52   53 1    
   105   52   54 1    
   106   52  175 1    
   107   53  176 1    
   108   53  177 1    
   109   53  178 1    
   110   54   55 am   BACKBONE|DICT|INTERRES
   111   54  179 1    
   112   55   56 2    
   113   55   57 1    
   114   57   58 1    
   115   57   59 1    
   116   57  180 1    
   117   58  181 1    
   118   58  182 1    
   119   58  183 1    
   120   59   60 am   BACKBONE|DICT|INTERRES
   121   59  184 1    
   122   60   61 2    
   123   60   62 1    
   124   62   63 1    
   125   62   64 1    
   126   62  185 1    
   127   63  186 1    
   128   63  187 1    
   129   63  188 1    
   130   64   65 am   BACKBONE|DICT|INTERRES
   131   64  189 1    
   132   65   66 2    
   133   67   68 2    
   134   67   69 am   BACKBONE|DICT|INTERRES
   135   69   70 1    
   136   69  190 1    
   137   70   71 1    
   138   70   72 1    
   139   70  191 1    
   140   71  192 1    
   141   71  193 1    
   142   71  194 1    
   143   72   73 2    
   144   72   74 am   BACKBONE|DICT|INTERRES
   145   74   75 1    
   146   74  195 1    
   147   75   76 1    
   148   75   77 1    
   149   75  196 1    
   150   76  197 1    
   151   76  198 1    
   152   76  199 1    
   153   77   78 2    
   154   77   79 am   BACKBONE|DICT|INTERRES
   155   79   80 1    
   156   79  200 1    
   157   80   81 1    
   158   80   82 1    
   159   80  201 1    
   160   81  202 1    
   161   81  203 1    
   162   81  204 1    
   163   82   83 2    
   164   82   84 am   BACKBONE|DICT|INTERRES
   165   84   85 1    
   166   84  205 1    
   167   85   86 1    
   168   85   87 1    
   169   85  206 1    
   170   86  207 1    
   171   86  208 1    
   172   86  209 1    
   173   87   88 2    
   174   87   89 am   BACKBONE|DICT|INTERRES
   175   89   90 1    
   176   89  210 1    
   177   90   91 1    
   178   90   92 1    
   179   90  211 1    
   180   91  212 1    
   181   91  213 1    
   182   91  214 1    
   183   92   93 2    
   184   92   94 am   BACKBONE|DICT|INTERRES
   185   94   95 1    
   186   94  215 1    
   187   95   96 1    
   188   95   97 1    
   189   95  216 1    
   190   96  217 1    
   191   96  218 1    
   192   96  219 1    
   193   97   98 2    
   194   97   99 am   BACKBONE|DICT|INTERRES
   195   99  100 1    
   196   99  220 1    
   197  100  101 1    
   198  100  102 1    
   199  100  221 1    
   200  101  222 1    
   201  101  223 1    
   202  101  224 1    
   203  102  103 2    
   204  102  104 am   BACKBONE|DICT|INTERRES
   205  104  105 1    
   206  104  225 1    
   207  105  106 1    
   208  105  107 1    
   209  105  226 1    
   210  106  227 1    
   211  106  228 1    
   212  106  229 1    
   213  107  108 2    
   214  107  109 am   BACKBONE|DICT|INTERRES
   215  109  110 1    
   216  109  230 1    
   217  110  111 1    
   218  110  112 1    
   219  110  231 1    
   220  111  232 1    
   221  111  233 1    
   222  111  234 1    
   223  112  113 2    
   224  112  114 am   BACKBONE|DICT|INTERRES
   225  114  115 1    
   226  114  235 1    
   227  115  116 1    
   228  115  117 1    
   229  115  236 1    
   230  116  237 1    
   231  116  238 1    
   232  116  239 1    
   233  117  118 2    
   234  117  119 am   BACKBONE|DICT|INTERRES
   235  119  120 1    
   236  119  240 1    
   237  120  121 1    
   238  120  124 1    
   239  120  241 1    
   240  121  122 am   BACKBONE|DICT|INTERRES
   241  121  123 2    
   242  122  242 1    
   243  122  243 1    
   244  124  125 1    
   245  124  244 1    
   246  124  245 1    
   247  125  126 1    
   248  126  246 1    
   249  126  247 1    
@<TRIPOS>SUBSTRUCTURE
     1 UNK         1 GROUP             0       ****    0 ROOT    
