@<TRIPOS>MOLECULE
3R540
247   249    1
SMALL
USER_CHARGES


@<TRIPOS>ATOM
      1 CA         -2.6089  -15.9086  -49.3560 C.3       0 UNK        -0.1800 
      2 C          -1.6932  -15.4128  -48.2496 C.2       0 UNK         0.5000 
      3 O          -2.1553  -14.7722  -47.3051 O.2       0 UNK        -0.5000 
      4 N          -0.3932  -15.7185  -48.3507 N.am      1 UNK        -0.5000 
      5 CA          0.6444  -15.2384  -47.4293 C.3       1 UNK         0.1400 
      6 C6          2.0736  -15.4932  -47.9563 C.3       23 UNK        -0.0398 
      7 S7          2.3670  -14.6414  -49.5424 S.3       23 UNK        -0.2404 
      8 C8          3.0531  -15.9746  -50.5752 C.3       23 UNK        -0.0205 
      9 C9          2.0775  -17.1237  -50.7900 C.ar      23 UNK        -0.0193 
     10 C10         0.8920  -16.9240  -51.5022 C.ar      23 UNK        -0.1150 
     11 C11         0.0185  -17.9886  -51.7424 C.ar      23 UNK        -0.0193 
     12 C12         0.3285  -19.2600  -51.2456 C.ar      23 UNK        -0.1150 
     13 C13         1.5175  -19.4743  -50.5396 C.ar      23 UNK        -0.0193 
     14 C14         2.3837  -18.4009  -50.3138 C.ar      23 UNK        -0.1150 
     15 C15         1.9074  -20.8708  -50.0713 C.3       23 UNK        -0.0205 
     16 S16         2.0292  -20.9911  -48.2574 S.3       23 UNK        -0.2404 
     17 C17         0.2737  -21.0345  -47.7771 C.3       23 UNK        -0.0398 
     18 CA         -0.1316  -22.3830  -47.1346 C.3       11 UNK         0.1400 
     19 N           0.6448  -22.7179  -45.9337 N.am      11 UNK        -0.5000 
     20 C           0.6762  -23.9453  -45.3928 C.2       10 UNK         0.5000 
     21 O           0.0475  -24.9012  -45.8446 O.2       10 UNK        -0.5000 
     22 CA          1.4968  -24.1334  -44.1030 C.3       10 UNK         0.1400 
     23 CB          2.9752  -24.3778  -44.4393 C.3       10 UNK        -0.1800 
     24 N           1.3985  -23.0193  -43.1590 N.am      10 UNK        -0.5000 
     25 C           0.2691  -22.4779  -42.6820 C.2       9 UNK         0.5000 
     26 O          -0.8547  -22.8694  -42.9983 O.2       9 UNK        -0.5000 
     27 CA          0.4003  -21.2939  -41.6999 C.3       9 UNK         0.1400 
     28 CB         -0.1068  -21.6994  -40.3075 C.3       9 UNK        -0.1800 
     29 N           1.7495  -20.7315  -41.5637 N.am      9 UNK        -0.5000 
     30 C           2.4559  -20.1357  -42.5335 C.2       8 UNK         0.5000 
     31 O           2.0824  -20.0625  -43.7062 O.2       8 UNK        -0.5000 
     32 CA          3.8362  -19.5884  -42.1201 C.3       8 UNK         0.1400 
     33 CB          4.8529  -20.7364  -42.0084 C.3       8 UNK        -0.1800 
     34 N           4.3525  -18.6021  -43.0685 N.am      8 UNK        -0.5000 
     35 C           3.8121  -17.3996  -43.2962 C.2       7 UNK         0.5000 
     36 O           2.8616  -16.9381  -42.6566 O.2       7 UNK        -0.5000 
     37 CA          4.4453  -16.5902  -44.4387 C.3       7 UNK         0.1400 
     38 CB          4.2211  -17.2824  -45.7951 C.3       7 UNK        -0.1800 
     39 N           3.8400  -15.2645  -44.4689 N.am      7 UNK        -0.5000 
     40 C           4.4860  -14.0988  -44.5834 C.2       6 UNK         0.5000 
     41 O           5.6962  -14.0034  -44.7901 O.2       6 UNK        -0.5000 
     42 CA          3.6400  -12.8198  -44.4290 C.3       6 UNK         0.1400 
     43 CB          3.3141  -12.2122  -45.8026 C.3       6 UNK        -0.1800 
     44 N           2.3851  -13.0843  -43.7281 N.am      6 UNK        -0.5000 
     45 C           2.2088  -13.0592  -42.4016 C.2       5 UNK         0.5000 
     46 O           3.0818  -12.7128  -41.6039 O.2       5 UNK        -0.5000 
     47 CA          0.8231  -13.5185  -41.8948 C.3       5 UNK         0.1400 
     48 CB          0.4609  -12.9447  -40.5094 C.3       5 UNK        -0.1800 
     49 N          -0.2496  -13.2804  -42.8687 N.am      5 UNK        -0.5000 
     50 C          -0.6980  -12.1019  -43.3293 C.2       4 UNK         0.5000 
     51 O          -0.3087  -11.0086  -42.9177 O.2       4 UNK        -0.5000 
     52 CA         -1.7355  -12.1452  -44.4716 C.3       4 UNK         0.1400 
     53 CB         -1.0746  -11.7410  -45.7987 C.3       4 UNK        -0.1800 
     54 N          -2.3631  -13.4574  -44.6429 N.am      4 UNK        -0.5000 
     55 C          -3.2759  -13.9837  -43.8148 C.2       3 UNK         0.5000 
     56 O          -3.7413  -13.3914  -42.8408 O.2       3 UNK        -0.5000 
     57 CA         -3.7092  -15.4312  -44.1052 C.3       3 UNK         0.1400 
     58 CB         -4.8556  -15.4691  -45.1274 C.3       3 UNK        -0.1800 
     59 N          -2.5959  -16.2479  -44.5914 N.am      3 UNK        -0.5000 
     60 C          -1.5993  -16.7071  -43.8211 C.2       2 UNK         0.5000 
     61 O          -1.5172  -16.5000  -42.6111 O.2       2 UNK        -0.5000 
     62 CA         -0.5007  -17.5188  -44.5309 C.3       2 UNK         0.1400 
     63 CB         -0.9582  -18.9735  -44.7072 C.3       2 UNK        -0.1800 
     64 N          -0.1353  -16.9535  -45.8327 N.am      2 UNK        -0.5000 
     65 C           0.4796  -15.7727  -45.9919 C.2       1 UNK         0.5000 
     66 O           0.8781  -15.0833  -45.0541 O.2       1 UNK        -0.5000 
     67 C          -1.6512  -22.4166  -46.8754 C.2       11 UNK         0.5000 
     68 O          -2.4028  -22.7343  -47.7961 O.2       11 UNK        -0.5000 
     69 N          -2.0873  -22.1052  -45.6468 N.am      12 UNK        -0.5000 
     70 CA         -3.4893  -22.2071  -45.2389 C.3       12 UNK         0.1400 
     71 CB         -3.7623  -21.2985  -44.0305 C.3       12 UNK        -0.1800 
     72 C          -3.8774  -23.6641  -44.9436 C.2       12 UNK         0.5000 
     73 O          -4.9548  -24.0949  -45.3528 O.2       12 UNK        -0.5000 
     74 N          -2.9744  -24.4085  -44.2890 N.am      13 UNK        -0.5000 
     75 CA         -3.1247  -25.8331  -43.9820 C.3       13 UNK         0.1400 
     76 CB         -1.9686  -26.2830  -43.0763 C.3       13 UNK        -0.1800 
     77 C          -3.2089  -26.7148  -45.2436 C.2       13 UNK         0.5000 
     78 O          -4.0286  -27.6324  -45.2924 O.2       13 UNK        -0.5000 
     79 N          -2.3883  -26.3954  -46.2537 N.am      14 UNK        -0.5000 
     80 CA         -2.3905  -27.0354  -47.5716 C.3       14 UNK         0.1400 
     81 CB         -1.0376  -26.7644  -48.2497 C.3       14 UNK        -0.1800 
     82 C          -3.5401  -26.5618  -48.4851 C.2       14 UNK         0.5000 
     83 O          -3.7565  -27.1690  -49.5341 O.2       14 UNK        -0.5000 
     84 N          -4.2240  -25.4740  -48.0965 N.am      15 UNK        -0.5000 
     85 CA         -5.2692  -24.7544  -48.8359 C.3       15 UNK         0.1400 
     86 CB         -6.5090  -25.6423  -49.0655 C.3       15 UNK        -0.1800 
     87 C          -4.7617  -24.0866  -50.1334 C.2       15 UNK         0.5000 
     88 O          -5.5599  -23.7556  -51.0104 O.2       15 UNK        -0.5000 
     89 N          -3.4456  -23.8546  -50.2153 N.am      16 UNK        -0.5000 
     90 CA         -2.7806  -23.1201  -51.2883 C.3       16 UNK         0.1400 
     91 CB         -1.2665  -23.3627  -51.2029 C.3       16 UNK        -0.1800 
     92 C          -3.0913  -21.6170  -51.2184 C.2       16 UNK         0.5000 
     93 O          -3.2802  -20.9888  -52.2559 O.2       16 UNK        -0.5000 
     94 N          -3.1897  -21.0761  -49.9951 N.am      17 UNK        -0.5000 
     95 CA         -3.5332  -19.6781  -49.7199 C.3       17 UNK         0.1400 
     96 CB         -3.3274  -19.3926  -48.2233 C.3       17 UNK        -0.1800 
     97 C          -4.9616  -19.2895  -50.1521 C.2       17 UNK         0.5000 
     98 O          -5.2263  -18.1075  -50.3690 O.2       17 UNK        -0.5000 
     99 N          -5.8524  -20.2837  -50.2684 N.am      18 UNK        -0.5000 
    100 CA        -7.2303  -20.1134  -50.7257 C.3       18 UNK         0.1400 
    101 CB        -8.0756  -21.2852  -50.2017 C.3       18 UNK        -0.1800 
    102 C         -7.3488  -20.0027  -52.2590 C.2       18 UNK         0.5000 
    103 O         -8.3676  -19.5068  -52.7426 O.2       18 UNK        -0.5000 
    104 N         -6.3326  -20.4664  -53.0000 N.am      19 UNK        -0.5000 
    105 CA        -6.2838  -20.3979  -54.4574 C.3       19 UNK         0.1400 
    106 CB        -5.4288  -21.5590  -54.9907 C.3       19 UNK        -0.1800 
    107 C         -5.6969  -19.0503  -54.9014 C.2       19 UNK         0.5000 
    108 O         -4.6600  -18.6375  -54.3801 O.2       19 UNK        -0.5000 
    109 N         -6.3301  -18.4127  -55.8945 N.am      20 UNK        -0.5000 
    110 CA        -5.8786  -17.1456  -56.4826 C.3       20 UNK         0.1400 
    111 CB        -6.9876  -16.5850  -57.3860 C.3       20 UNK        -0.1800 
    112 C         -4.5569  -17.2776  -57.2660 C.2       20 UNK         0.5000 
    113 O         -3.7797  -16.3243  -57.3184 O.2       20 UNK        -0.5000 
    114 N         -4.3225  -18.4657  -57.8393 N.am      21 UNK        -0.5000 
    115 CA        -3.0834  -18.8415  -58.5231 C.3       21 UNK         0.1400 
    116 CB        -3.4203  -19.8955  -59.5908 C.3       21 UNK        -0.1800 
    117 C         -2.0029  -19.3755  -57.5584 C.2       21 UNK         0.5000 
    118 O         -0.8757  -19.6106  -57.9949 O.2       21 UNK        -0.5000 
    119 N         -2.3639  -19.5798  -56.2834 N.am      22 UNK        -0.5000 
    120 CA        -1.5202  -20.1138  -55.1997 C.3       22 UNK         0.1400 
    121 C         -1.0977  -21.6066  -55.3614 C.2       22 UNK         0.5000 
    122 N         -1.7367  -22.3859  -56.2258 N.am      22 UNK        -0.7600 
    123 O         -0.1977  -22.0813  -54.6744 O.2       22 UNK        -0.5000 
    124 C124       -0.3302  -19.1856  -54.8295 C.3       23 UNK        -0.0398 
    125 S125       -0.8751  -17.5151  -54.3324 S.3       23 UNK        -0.2404 
    126 C126       -1.2427  -17.7614  -52.5645 C.3       23 UNK        -0.0205 
    127 H127       -3.5963  -16.1423  -48.9584 H         1 UNK         0.0600 
    128 H128       -2.2086  -16.8066  -49.8232 H         1 UNK         0.0600 
    129 H129       -2.7231  -15.1410  -50.1210 H         1 UNK         0.0600 
    130 H130       -0.0595  -16.2304  -49.1556 H         1 UNK         0.3000 
    131 H131        0.5200  -14.1564  -47.3616 H         1 UNK         0.0600 
    132 H132        2.8167  -15.1213  -47.2502 H         1 UNK         0.0800 
    133 H133        2.2579  -16.5629  -48.0600 H         1 UNK         0.0800 
    134 H134        3.3270  -15.5598  -51.5461 H         1 UNK         0.0800 
    135 H135        3.9807  -16.3294  -50.1233 H         1 UNK         0.0800 
    136 H136        0.6608  -15.9422  -51.8920 H         1 UNK         0.1150 
    137 H137       -0.3388  -20.0879  -51.4401 H         1 UNK         0.1150 
    138 H138        3.3078  -18.5691  -49.7784 H         1 UNK         0.1150 
    139 H139        1.2101  -21.6220  -50.4441 H         1 UNK         0.0800 
    140 H140        2.8782  -21.1217  -50.5007 H         1 UNK         0.0800 
    141 H141       -0.3370  -20.8371  -48.6599 H         1 UNK         0.0800 
    142 H142        0.0936  -20.2025  -47.1001 H         1 UNK         0.0800 
    143 H143        0.0685  -23.1625  -47.8733 H         1 UNK         0.0600 
    144 H144        1.1888  -21.9775  -45.5114 H         1 UNK         0.3000 
    145 H145        1.1124  -25.0201  -43.5963 H         1 UNK         0.0600 
    146 H146        3.5497  -24.6179  -43.5445 H         1 UNK         0.0600 
    147 H147        3.0860  -25.2154  -45.1294 H         1 UNK         0.0600 
    148 H148        3.4311  -23.5040  -44.9070 H         1 UNK         0.0600 
    149 H149        2.2701  -22.6147  -42.8531 H         1 UNK         0.3000 
    150 H150       -0.2473  -20.5004  -42.0742 H         1 UNK         0.0600 
    151 H151        0.5152  -22.4784  -39.8648 H         1 UNK         0.0600 
    152 H152       -1.1271  -22.0829  -40.3565 H         1 UNK         0.0600 
    153 H153       -0.1165  -20.8480  -39.6266 H         1 UNK         0.0600 
    154 H154        2.1481  -20.7737  -40.6366 H         1 UNK         0.3000 
    155 H155        3.7382  -19.1050  -41.1458 H         1 UNK         0.0600 
    156 H156        4.9825  -21.2532  -42.9604 H         1 UNK         0.0600 
    157 H157        4.5350  -21.4773  -41.2738 H         1 UNK         0.0600 
    158 H158        5.8291  -20.3691  -41.6909 H         1 UNK         0.0600 
    159 H159        5.1110  -18.9114  -43.6579 H         1 UNK         0.3000 
    160 H160        5.5164  -16.5125  -44.2413 H         1 UNK         0.0600 
    161 H161        3.1626  -17.4708  -45.9771 H         1 UNK         0.0600 
    162 H162        4.7322  -18.2446  -45.8377 H         1 UNK         0.0600 
    163 H163        4.6085  -16.6793  -46.6162 H         1 UNK         0.0600 
    164 H164        2.8503  -15.2496  -44.2475 H         1 UNK         0.3000 
    165 H165        4.2300  -12.0951  -43.8641 H         1 UNK         0.0600 
    166 H166        2.7837  -11.2657  -45.6957 H         1 UNK         0.0600 
    167 H167        4.2241  -12.0128  -46.3698 H         1 UNK         0.0600 
    168 H168        2.6906  -12.8755  -46.4017 H         1 UNK         0.0600 
    169 H169        1.6314  -13.4700  -44.2876 H         1 UNK         0.3000 
    170 H170        0.8915  -14.6027  -41.7912 H         1 UNK         0.0600 
    171 H171        1.1787  -13.2671  -39.7543 H         1 UNK         0.0600 
    172 H172        0.4559  -11.8546  -40.5085 H         1 UNK         0.0600 
    173 H173       -0.5227  -13.2863  -40.1871 H         1 UNK         0.0600 
    174 H174       -0.6225  -14.1138  -43.3025 H         1 UNK         0.3000 
    175 H175       -2.5155  -11.4171  -44.2398 H         1 UNK         0.0600 
    176 H176       -0.6795  -10.7258  -45.7450 H         1 UNK         0.0600 
    177 H177       -0.2440  -12.4005  -46.0481 H         1 UNK         0.0600 
    178 H178       -1.7874  -11.7700  -46.6231 H         1 UNK         0.0600 
    179 H179       -2.0968  -13.9890  -45.4662 H         1 UNK         0.3000 
    180 H180       -4.0743  -15.8647  -43.1717 H         1 UNK         0.0600 
    181 H181       -4.5580  -15.0472  -46.0878 H         1 UNK         0.0600 
    182 H182       -5.7133  -14.8974  -44.7708 H         1 UNK         0.0600 
    183 H183       -5.1954  -16.4903  -45.3009 H         1 UNK         0.0600 
    184 H184       -2.5558  -16.4039  -45.5882 H         1 UNK         0.3000 
    185 H185        0.3838  -17.5138  -43.8898 H         1 UNK         0.0600 
    186 H186       -1.3677  -19.3693  -43.7780 H         1 UNK         0.0600 
    187 H187       -1.7300  -19.0687  -45.4711 H         1 UNK         0.0600 
    188 H188       -0.1228  -19.6134  -44.9805 H         1 UNK         0.0600 
    189 H189       -0.4335  -17.4539  -46.6558 H         1 UNK         0.3000 
    190 H190       -1.4133  -21.9405  -44.9113 H         1 UNK         0.3000 
    191 H191       -4.1239  -21.8621  -46.0576 H         1 UNK         0.0600 
    192 H192       -3.6161  -20.2499  -44.2873 H         1 UNK         0.0600 
    193 H193       -4.7937  -21.4030  -43.6915 H         1 UNK         0.0600 
    194 H194       -3.1162  -21.5334  -43.1850 H         1 UNK         0.0600 
    195 H195       -2.1305  -23.9550  -43.9503 H         1 UNK         0.3000 
    196 H196       -4.0579  -25.9551  -43.4283 H         1 UNK         0.0600 
    197 H197       -2.0905  -27.3247  -42.7775 H         1 UNK         0.0600 
    198 H198       -1.9237  -25.6849  -42.1659 H         1 UNK         0.0600 
    199 H199       -1.0064  -26.1975  -43.5808 H         1 UNK         0.0600 
    200 H200       -1.6817  -25.6801  -46.1020 H         1 UNK         0.3000 
    201 H201       -2.4977  -28.1138  -47.4384 H         1 UNK         0.0600 
    202 H202       -0.9760  -27.2604  -49.2192 H         1 UNK         0.0600 
    203 H203       -0.2112  -27.1357  -47.6433 H         1 UNK         0.0600 
    204 H204       -0.8780  -25.6980  -48.4155 H         1 UNK         0.0600 
    205 H205       -3.9794  -25.0674  -47.2034 H         1 UNK         0.3000 
    206 H206       -5.5751  -23.9338  -48.1855 H         1 UNK         0.0600 
    207 H207       -6.8465  -26.0954  -48.1334 H         1 UNK         0.0600 
    208 H208       -7.3406  -25.0571  -49.4599 H         1 UNK         0.0600 
    209 H209       -6.3098  -26.4437  -49.7772 H         1 UNK         0.0600 
    210 H210       -2.8851  -24.0677  -49.4006 H         1 UNK         0.3000 
    211 H211       -3.1404  -23.4977  -52.2479 H         1 UNK         0.0600 
    212 H212       -0.8571  -23.0268  -50.2501 H         1 UNK         0.0600 
    213 H213       -0.7402  -22.8282  -51.9948 H         1 UNK         0.0600 
    214 H214       -1.0311  -24.4213  -51.3134 H         1 UNK         0.0600 
    215 H215       -3.0251  -21.6769  -49.1913 H         1 UNK         0.3000 
    216 H216       -2.8436  -19.0503  -50.2850 H         1 UNK         0.0600 
    217 H217       -3.6118  -18.3710  -47.9707 H         1 UNK         0.0600 
    218 H218       -2.2843  -19.5147  -47.9375 H         1 UNK         0.0600 
    219 H219       -3.9291  -20.0571  -47.6037 H         1 UNK         0.0600 
    220 H220       -5.5466  -21.2295  -50.0940 H         1 UNK         0.3000 
    221 H221       -7.6309  -19.1919  -50.2977 H         1 UNK         0.0600 
    222 H222       -7.7465  -22.2381  -50.6169 H         1 UNK         0.0600 
    223 H223       -8.0247  -21.3558  -49.1151 H         1 UNK         0.0600 
    224 H224       -9.1253  -21.1584  -50.4694 H         1 UNK         0.0600 
    225 H225       -5.4840  -20.7727  -52.5406 H         1 UNK         0.3000 
    226 H226       -7.2921  -20.5064  -54.8630 H         1 UNK         0.0600 
    227 H227       -5.4014  -21.5564  -56.0809 H         1 UNK         0.0600 
    228 H228       -4.3991  -21.5016  -54.6372 H         1 UNK         0.0600 
    229 H229       -5.8338  -22.5215  -54.6777 H         1 UNK         0.0600 
    230 H230       -7.1780  -18.8089  -56.2747 H         1 UNK         0.3000 
    231 H231       -5.7093  -16.4362  -55.6696 H         1 UNK         0.0600 
    232 H232       -7.2177  -17.2618  -58.2097 H         1 UNK         0.0600 
    233 H233       -6.6914  -15.6289  -57.8198 H         1 UNK         0.0600 
    234 H234       -7.9060  -16.4142  -56.8239 H         1 UNK         0.0600 
    235 H235       -5.0291  -19.1818  -57.7590 H         1 UNK         0.3000 
    236 H236       -2.6682  -17.9664  -59.0274 H         1 UNK         0.0600 
    237 H237       -4.1476  -19.5122  -60.3069 H         1 UNK         0.0600 
    238 H238       -2.5317  -20.1803  -60.1556 H         1 UNK         0.0600 
    239 H239       -3.8319  -20.8027  -59.1468 H         1 UNK         0.0600 
    240 H240       -3.2908  -19.2978  -55.9945 H         1 UNK         0.3000 
    241 H241       -2.1787  -20.1278  -54.3349 H         1 UNK         0.0600 
    242 H242       -2.4770  -22.0190  -56.8001 H         1 UNK         0.3800 
    243 H243       -1.4609  -23.3508  -56.3174 H         1 UNK         0.3800 
    244 H244        0.2626  -19.6123  -54.0205 H         1 UNK         0.0800 
    245 H245        0.3539  -19.0881  -55.6729 H         1 UNK         0.0800 
    246 H246       -1.7618  -16.8769  -52.1943 H         1 UNK         0.0800 
    247 H247       -1.9403  -18.5922  -52.4546 H         1 UNK         0.0800 
@<TRIPOS>BOND
     1    1    2 1    
     2    1  127 1    
     3    1  128 1    
     4    1  129 1    
     5    2    3 2    
     6    2    4 am   BACKBONE|DICT|INTERRES
     7    4    5 1    
     8    4  130 1    
     9    5    6 1    
    10    5   65 1    
    11    5  131 1    
    12    6    7 1    
    13    6  132 1    
    14    6  133 1    
    15    7    8 1    
    16    8    9 1    
    17    8  134 1    
    18    8  135 1    
    19    9   10 ar   
    20    9   14 ar   
    21   10   11 ar   
    22   10  136 1    
    23   11   12 ar   
    24   11  126 1    
    25   12   13 ar   
    26   12  137 1    
    27   13   14 ar   
    28   13   15 1    
    29   14  138 1    
    30   15   16 1    
    31   15  139 1    
    32   15  140 1    
    33   16   17 1    
    34   17   18 1    
    35   17  141 1    
    36   17  142 1    
    37   18   19 1    
    38   18   67 1    
    39   18  143 1    
    40   19   20 am   BACKBONE|DICT|INTERRES
    41   19  144 1    
    42   20   21 2    
    43   20   22 1    
    44   22   23 1    
    45   22   24 1    
    46   22  145 1    
    47   23  146 1    
    48   23  147 1    
    49   23  148 1    
    50   24   25 am   BACKBONE|DICT|INTERRES
    51   24  149 1    
    52   25   26 2    
    53   25   27 1    
    54   27   28 1    
    55   27   29 1    
    56   27  150 1    
    57   28  151 1    
    58   28  152 1    
    59   28  153 1    
    60   29   30 am   BACKBONE|DICT|INTERRES
    61   29  154 1    
    62   30   31 2    
    63   30   32 1    
    64   32   33 1    
    65   32   34 1    
    66   32  155 1    
    67   33  156 1    
    68   33  157 1    
    69   33  158 1    
    70   34   35 am   BACKBONE|DICT|INTERRES
    71   34  159 1    
    72   35   36 2    
    73   35   37 1    
    74   37   38 1    
    75   37   39 1    
    76   37  160 1    
    77   38  161 1    
    78   38  162 1    
    79   38  163 1    
    80   39   40 am   BACKBONE|DICT|INTERRES
    81   39  164 1    
    82   40   41 2    
    83   40   42 1    
    84   42   43 1    
    85   42   44 1    
    86   42  165 1    
    87   43  166 1    
    88   43  167 1    
    89   43  168 1    
    90   44   45 am   BACKBONE|DICT|INTERRES
    91   44  169 1    
    92   45   46 2    
    93   45   47 1    
    94   47   48 1    
    95   47   49 1    
    96   47  170 1    
    97   48  171 1    
    98   48  172 1    
    99   48  173 1    
   100   49   50 am   BACKBONE|DICT|INTERRES
   101   49  174 1    
   102   50   51 2    
   103   50   52 1    
   104   52   53 1    
   105   52   54 1    
   106   52  175 1    
   107   53  176 1    
   108   53  177 1    
   109   53  178 1    
   110   54   55 am   BACKBONE|DICT|INTERRES
   111   54  179 1    
   112   55   56 2    
   113   55   57 1    
   114   57   58 1    
   115   57   59 1    
   116   57  180 1    
   117   58  181 1    
   118   58  182 1    
   119   58  183 1    
   120   59   60 am   BACKBONE|DICT|INTERRES
   121   59  184 1    
   122   60   61 2    
   123   60   62 1    
   124   62   63 1    
   125   62   64 1    
   126   62  185 1    
   127   63  186 1    
   128   63  187 1    
   129   63  188 1    
   130   64   65 am   BACKBONE|DICT|INTERRES
   131   64  189 1    
   132   65   66 2    
   133   67   68 2    
   134   67   69 am   BACKBONE|DICT|INTERRES
   135   69   70 1    
   136   69  190 1    
   137   70   71 1    
   138   70   72 1    
   139   70  191 1    
   140   71  192 1    
   141   71  193 1    
   142   71  194 1    
   143   72   73 2    
   144   72   74 am   BACKBONE|DICT|INTERRES
   145   74   75 1    
   146   74  195 1    
   147   75   76 1    
   148   75   77 1    
   149   75  196 1    
   150   76  197 1    
   151   76  198 1    
   152   76  199 1    
   153   77   78 2    
   154   77   79 am   BACKBONE|DICT|INTERRES
   155   79   80 1    
   156   79  200 1    
   157   80   81 1    
   158   80   82 1    
   159   80  201 1    
   160   81  202 1    
   161   81  203 1    
   162   81  204 1    
   163   82   83 2    
   164   82   84 am   BACKBONE|DICT|INTERRES
   165   84   85 1    
   166   84  205 1    
   167   85   86 1    
   168   85   87 1    
   169   85  206 1    
   170   86  207 1    
   171   86  208 1    
   172   86  209 1    
   173   87   88 2    
   174   87   89 am   BACKBONE|DICT|INTERRES
   175   89   90 1    
   176   89  210 1    
   177   90   91 1    
   178   90   92 1    
   179   90  211 1    
   180   91  212 1    
   181   91  213 1    
   182   91  214 1    
   183   92   93 2    
   184   92   94 am   BACKBONE|DICT|INTERRES
   185   94   95 1    
   186   94  215 1    
   187   95   96 1    
   188   95   97 1    
   189   95  216 1    
   190   96  217 1    
   191   96  218 1    
   192   96  219 1    
   193   97   98 2    
   194   97   99 am   BACKBONE|DICT|INTERRES
   195   99  100 1    
   196   99  220 1    
   197  100  101 1    
   198  100  102 1    
   199  100  221 1    
   200  101  222 1    
   201  101  223 1    
   202  101  224 1    
   203  102  103 2    
   204  102  104 am   BACKBONE|DICT|INTERRES
   205  104  105 1    
   206  104  225 1    
   207  105  106 1    
   208  105  107 1    
   209  105  226 1    
   210  106  227 1    
   211  106  228 1    
   212  106  229 1    
   213  107  108 2    
   214  107  109 am   BACKBONE|DICT|INTERRES
   215  109  110 1    
   216  109  230 1    
   217  110  111 1    
   218  110  112 1    
   219  110  231 1    
   220  111  232 1    
   221  111  233 1    
   222  111  234 1    
   223  112  113 2    
   224  112  114 am   BACKBONE|DICT|INTERRES
   225  114  115 1    
   226  114  235 1    
   227  115  116 1    
   228  115  117 1    
   229  115  236 1    
   230  116  237 1    
   231  116  238 1    
   232  116  239 1    
   233  117  118 2    
   234  117  119 am   BACKBONE|DICT|INTERRES
   235  119  120 1    
   236  119  240 1    
   237  120  121 1    
   238  120  124 1    
   239  120  241 1    
   240  121  122 am   BACKBONE|DICT|INTERRES
   241  121  123 2    
   242  122  242 1    
   243  122  243 1    
   244  124  125 1    
   245  124  244 1    
   246  124  245 1    
   247  125  126 1    
   248  126  246 1    
   249  126  247 1    
@<TRIPOS>SUBSTRUCTURE
     1 UNK         1 GROUP             0       ****    0 ROOT    
