@<TRIPOS>MOLECULE
3R540
247   249    1
SMALL
USER_CHARGES


@<TRIPOS>ATOM
      1 CA         -2.8935  -13.8540  -48.5084 C.3       0 UNK        -0.1800 
      2 C          -1.4822  -14.0455  -47.9752 C.2       0 UNK         0.5000 
      3 O          -0.7682  -13.0649  -47.7687 O.2       0 UNK        -0.5000 
      4 N          -1.0840  -15.3032  -47.7465 N.am      1 UNK        -0.5000 
      5 CA          0.2149  -15.6699  -47.1661 C.3       1 UNK         0.1400 
      6 C6          0.6520  -17.1013  -47.5635 C.3       23 UNK        -0.0398 
      7 S7          0.9780  -17.2557  -49.3582 S.3       23 UNK        -0.2404 
      8 C8         -0.2288  -18.5021  -49.9186 C.3       23 UNK        -0.0205 
      9 C9         -1.6555  -17.9944  -49.8163 C.ar      23 UNK        -0.0193 
     10 C10        -2.2180  -17.2279  -50.8390 C.ar      23 UNK        -0.1150 
     11 C11        -3.5140  -16.7178  -50.7164 C.ar      23 UNK        -0.0193 
     12 C12        -4.2252  -16.9445  -49.5305 C.ar      23 UNK        -0.1150 
     13 C13        -3.6714  -17.7066  -48.4980 C.ar      23 UNK        -0.0193 
     14 C14        -2.4043  -18.2686  -48.6739 C.ar      23 UNK        -0.1150 
     15 C15        -4.4432  -17.9003  -47.1977 C.3       23 UNK        -0.0205 
     16 S16        -3.3541  -17.9439  -45.7284 S.3       23 UNK        -0.2404 
     17 C17        -3.8735  -19.5074  -44.9584 C.3       23 UNK        -0.0398 
     18 CA         -3.3720  -20.7661  -45.7111 C.3       11 UNK         0.1400 
     19 N          -1.9103  -20.9070  -45.7597 N.am      11 UNK        -0.5000 
     20 C          -1.2672  -21.7371  -46.5986 C.2       10 UNK         0.5000 
     21 O          -1.8329  -22.3686  -47.4911 O.2       10 UNK        -0.5000 
     22 CA          0.2439  -21.9501  -46.3871 C.3       10 UNK         0.1400 
     23 CB          1.0701  -21.0214  -47.2835 C.3       10 UNK        -0.1800 
     24 N           0.6416  -21.7784  -44.9915 N.am      10 UNK        -0.5000 
     25 C           0.3818  -22.6803  -44.0322 C.2       9 UNK         0.5000 
     26 O          -0.1704  -23.7568  -44.2529 O.2       9 UNK        -0.5000 
     27 CA          0.7470  -22.3073  -42.5806 C.3       9 UNK         0.1400 
     28 CB          2.1456  -22.8338  -42.2278 C.3       9 UNK        -0.1800 
     29 N           0.6977  -20.8680  -42.3227 N.am      9 UNK        -0.5000 
     30 C          -0.3862  -20.0947  -42.4747 C.2       8 UNK         0.5000 
     31 O          -1.5021  -20.5408  -42.7441 O.2       8 UNK        -0.5000 
     32 CA         -0.1770  -18.5692  -42.3863 C.3       8 UNK         0.1400 
     33 CB         -0.6442  -18.0411  -41.0222 C.3       8 UNK        -0.1800 
     34 N           1.2049  -18.1309  -42.6275 N.am      8 UNK        -0.5000 
     35 C           1.8990  -18.3306  -43.7589 C.2       7 UNK         0.5000 
     36 O           1.4424  -18.9309  -44.7330 O.2       7 UNK        -0.5000 
     37 CA          3.3339  -17.7775  -43.7821 C.3       7 UNK         0.1400 
     38 CB          3.9999  -17.8489  -45.1682 C.3       7 UNK        -0.1800 
     39 N           3.3369  -16.3929  -43.3163 N.am      7 UNK        -0.5000 
     40 C           4.1741  -15.8841  -42.4064 C.2       6 UNK         0.5000 
     41 O           5.0374  -16.5552  -41.8373 O.2       6 UNK        -0.5000 
     42 CA          4.0056  -14.3913  -42.0447 C.3       6 UNK         0.1400 
     43 CB          5.2941  -13.7732  -41.4630 C.3       6 UNK        -0.1800 
     44 N           3.4824  -13.5339  -43.1148 N.am      6 UNK        -0.5000 
     45 C           4.0190  -13.3062  -44.3251 C.2       5 UNK         0.5000 
     46 O           4.9858  -13.9228  -44.7746 O.2       5 UNK        -0.5000 
     47 CA          3.4148  -12.1538  -45.1595 C.3       5 UNK         0.1400 
     48 CB          2.5789  -12.6644  -46.3414 C.3       5 UNK        -0.1800 
     49 N           2.6057  -11.2248  -44.3662 N.am      5 UNK        -0.5000 
     50 C           3.1148  -10.2865  -43.5553 C.2       4 UNK         0.5000 
     51 O           4.3205  -10.0565  -43.4537 O.2       4 UNK        -0.5000 
     52 CA          2.1213   -9.4761  -42.6979 C.3       4 UNK         0.1400 
     53 CB          1.8059   -8.1312  -43.3709 C.3       4 UNK        -0.1800 
     54 N           0.8608  -10.1642  -42.4003 N.am      4 UNK        -0.5000 
     55 C           0.7385  -11.3138  -41.7223 C.2       3 UNK         0.5000 
     56 O           1.6984  -11.9715  -41.3185 O.2       3 UNK        -0.5000 
     57 CA         -0.6853  -11.8371  -41.4461 C.3       3 UNK         0.1400 
     58 CB         -1.8192  -10.8889  -41.9005 C.3       3 UNK        -0.1800 
     59 N          -0.8772  -13.1825  -41.9961 N.am      3 UNK        -0.5000 
     60 C          -0.8090  -13.5426  -43.2860 C.2       2 UNK         0.5000 
     61 O          -0.5593  -12.7554  -44.2023 O.2       2 UNK        -0.5000 
     62 CA         -1.0889  -15.0332  -43.5789 C.3       2 UNK         0.1400 
     63 CB         -2.5071  -15.4331  -43.1336 C.3       2 UNK        -0.1800 
     64 N          -0.9328  -15.3729  -44.9936 N.am      2 UNK        -0.5000 
     65 C           0.2405  -15.4785  -45.6312 C.2       1 UNK         0.5000 
     66 O           1.3240  -15.4081  -45.0516 O.2       1 UNK        -0.5000 
     67 C          -4.0189  -22.0273  -45.1125 C.2       11 UNK         0.5000 
     68 O          -5.0122  -22.5092  -45.6572 O.2       11 UNK        -0.5000 
     69 N          -3.4173  -22.5726  -44.0435 N.am      12 UNK        -0.5000 
     70 CA         -3.8222  -23.8390  -43.4216 C.3       12 UNK         0.1400 
     71 CB         -3.0187  -24.0594  -42.1314 C.3       12 UNK        -0.1800 
     72 C          -3.6838  -25.0453  -44.3745 C.2       12 UNK         0.5000 
     73 O          -4.4993  -25.9655  -44.3177 O.2       12 UNK        -0.5000 
     74 N          -2.6925  -24.9825  -45.2733 N.am      13 UNK        -0.5000 
     75 CA         -2.4722  -25.9149  -46.3792 C.3       13 UNK         0.1400 
     76 CB         -0.9813  -25.8898  -46.7566 C.3       13 UNK        -0.1800 
     77 C          -3.3590  -25.6371  -47.6146 C.2       13 UNK         0.5000 
     78 O          -3.1090  -26.2319  -48.6620 O.2       13 UNK        -0.5000 
     79 N          -4.3598  -24.7506  -47.4968 N.am      14 UNK        -0.5000 
     80 CA         -5.3390  -24.3733  -48.5215 C.3       14 UNK         0.1400 
     81 CB         -6.2326  -25.5742  -48.8987 C.3       14 UNK        -0.1800 
     82 C          -4.6798  -23.7038  -49.7420 C.2       14 UNK         0.5000 
     83 O          -4.7733  -24.2135  -50.8597 O.2       14 UNK        -0.5000 
     84 N          -3.9951  -22.5801  -49.4860 N.am      15 UNK        -0.5000 
     85 CA         -3.2480  -21.7632  -50.4511 C.3       15 UNK         0.1400 
     86 CB         -4.2039  -21.1278  -51.4808 C.3       15 UNK        -0.1800 
     87 C          -2.0878  -22.5531  -51.0902 C.2       15 UNK         0.5000 
     88 O          -1.8923  -22.5100  -52.3079 O.2       15 UNK        -0.5000 
     89 N          -1.3680  -23.2901  -50.2297 N.am      16 UNK        -0.5000 
     90 CA         -0.2868  -24.2278  -50.5436 C.3       16 UNK         0.1400 
     91 CB          0.9600  -23.4618  -51.0331 C.3       16 UNK        -0.1800 
     92 C          -0.7443  -25.3325  -51.5197 C.2       16 UNK         0.5000 
     93 O          -0.1273  -25.5259  -52.5663 O.2       16 UNK        -0.5000 
     94 N          -1.8510  -26.0069  -51.1739 N.am      17 UNK        -0.5000 
     95 CA         -2.5633  -27.0116  -51.9720 C.3       17 UNK         0.1400 
     96 CB         -1.7221  -28.2971  -52.1117 C.3       17 UNK        -0.1800 
     97 C          -3.0517  -26.4497  -53.3244 C.2       17 UNK         0.5000 
     98 O          -2.9201  -27.1073  -54.3585 O.2       17 UNK        -0.5000 
     99 N          -3.5879  -25.2219  -53.2778 N.am      18 UNK        -0.5000 
    100 CA        -4.0683  -24.4041  -54.3941 C.3       18 UNK         0.1400 
    101 CB        -5.3409  -25.0220  -55.0087 C.3       18 UNK        -0.1800 
    102 C         -2.9896  -24.0718  -55.4495 C.2       18 UNK         0.5000 
    103 O         -3.3273  -23.8393  -56.6121 O.2       18 UNK        -0.5000 
    104 N         -1.7131  -24.0442  -55.0390 N.am      19 UNK        -0.5000 
    105 CA        -0.5933  -23.6291  -55.8848 C.3       19 UNK         0.1400 
    106 CB         0.7247  -24.1699  -55.3124 C.3       19 UNK        -0.1800 
    107 C         -0.5255  -22.0998  -56.0347 C.2       19 UNK         0.5000 
    108 O         -0.1214  -21.6140  -57.0927 O.2       19 UNK        -0.5000 
    109 N         -0.9251  -21.3708  -54.9841 N.am      20 UNK        -0.5000 
    110 CA        -1.0610  -19.9168  -55.0009 C.3       20 UNK         0.1400 
    111 CB        -0.8911  -19.3886  -53.5704 C.3       20 UNK        -0.1800 
    112 C         -2.4154  -19.4941  -55.6015 C.2       20 UNK         0.5000 
    113 O         -3.3240  -20.3187  -55.7348 O.2       20 UNK        -0.5000 
    114 N         -2.5309  -18.2004  -55.9339 N.am      21 UNK        -0.5000 
    115 CA        -3.6666  -17.5828  -56.6338 C.3       21 UNK         0.1400 
    116 CB        -3.3642  -16.0902  -56.8407 C.3       21 UNK        -0.1800 
    117 C         -5.0435  -17.7579  -55.9596 C.2       21 UNK         0.5000 
    118 O         -6.0622  -17.7188  -56.6516 O.2       21 UNK        -0.5000 
    119 N         -5.0500  -17.9596  -54.6372 N.am      22 UNK        -0.5000 
    120 CA        -6.2458  -18.2922  -53.8480 C.3       22 UNK         0.1400 
    121 C         -6.7105  -19.7744  -53.9833 C.2       22 UNK         0.5000 
    122 N         -5.9612  -20.6674  -54.6200 N.am      22 UNK        -0.7600 
    123 O         -7.7894  -20.1200  -53.5099 O.2       22 UNK        -0.5000 
    124 C124       -6.0694  -17.9010  -52.3606 C.3       23 UNK        -0.0398 
    125 S125       -5.9006  -16.0994  -52.1114 S.3       23 UNK        -0.2404 
    126 C126       -4.1016  -15.8973  -51.8638 C.3       23 UNK        -0.0205 
    127 H127       -2.8963  -13.9153  -49.5961 H         1 UNK         0.0600 
    128 H128       -3.2820  -12.8771  -48.2196 H         1 UNK         0.0600 
    129 H129       -3.5696  -14.6110  -48.1119 H         1 UNK         0.0600 
    130 H130       -1.6956  -16.0726  -47.9855 H         1 UNK         0.3000 
    131 H131        0.9670  -14.9852  -47.5642 H         1 UNK         0.0600 
    132 H132       -0.0837  -17.8326  -47.2329 H         1 UNK         0.0800 
    133 H133        1.5779  -17.3709  -47.0561 H         1 UNK         0.0800 
    134 H134       -0.1097  -19.4203  -49.3462 H         1 UNK         0.0800 
    135 H135       -0.0033  -18.7608  -50.9523 H         1 UNK         0.0800 
    136 H136       -1.6377  -17.0161  -51.7253 H         1 UNK         0.1150 
    137 H137       -5.2108  -16.5189  -49.4054 H         1 UNK         0.1150 
    138 H138       -1.9750  -18.8858  -47.8988 H         1 UNK         0.1150 
    139 H139       -5.1568  -17.0862  -47.0604 H         1 UNK         0.0800 
    140 H140       -5.0339  -18.8131  -47.2781 H         1 UNK         0.0800 
    141 H141       -4.9640  -19.5009  -44.9015 H         1 UNK         0.0800 
    142 H142       -3.5254  -19.5055  -43.9255 H         1 UNK         0.0800 
    143 H143       -3.7242  -20.6958  -46.7420 H         1 UNK         0.0600 
    144 H144       -1.3896  -20.4504  -45.0240 H         1 UNK         0.3000 
    145 H145        0.4786  -22.9741  -46.6823 H         1 UNK         0.0600 
    146 H146        0.8352  -19.9740  -47.1036 H         1 UNK         0.0600 
    147 H147        2.1388  -21.1571  -47.1159 H         1 UNK         0.0600 
    148 H148        0.8793  -21.2335  -48.3354 H         1 UNK         0.0600 
    149 H149        1.0646  -20.8878  -44.7487 H         1 UNK         0.3000 
    150 H150        0.0213  -22.7883  -41.9221 H         1 UNK         0.0600 
    151 H151        2.2081  -23.9114  -42.3861 H         1 UNK         0.0600 
    152 H152        2.3860  -22.6463  -41.1811 H         1 UNK         0.0600 
    153 H153        2.9181  -22.3664  -42.8402 H         1 UNK         0.0600 
    154 H154        1.5725  -20.4188  -42.0971 H         1 UNK         0.3000 
    155 H155       -0.8009  -18.1214  -43.1622 H         1 UNK         0.0600 
    156 H156       -1.6859  -18.3072  -40.8372 H         1 UNK         0.0600 
    157 H157       -0.5750  -16.9550  -40.9686 H         1 UNK         0.0600 
    158 H158       -0.0498  -18.4553  -40.2069 H         1 UNK         0.0600 
    159 H159        1.6577  -17.6330  -41.8749 H         1 UNK         0.3000 
    160 H160        3.9058  -18.4130  -43.1034 H         1 UNK         0.0600 
    161 H161        5.0515  -17.5684  -45.1074 H         1 UNK         0.0600 
    162 H162        3.5221  -17.1733  -45.8768 H         1 UNK         0.0600 
    163 H163        3.9564  -18.8571  -45.5824 H         1 UNK         0.0600 
    164 H164        2.6521  -15.7890  -43.7676 H         1 UNK         0.3000 
    165 H165        3.2523  -14.3673  -41.2560 H         1 UNK         0.0600 
    166 H166        6.1155  -13.8066  -42.1797 H         1 UNK         0.0600 
    167 H167        5.1374  -12.7316  -41.1811 H         1 UNK         0.0600 
    168 H168        5.6179  -14.3033  -40.5666 H         1 UNK         0.0600 
    169 H169        2.7027  -12.9508  -42.8324 H         1 UNK         0.3000 
    170 H170        4.2616  -11.6056  -45.5783 H         1 UNK         0.0600 
    171 H171        1.5883  -12.9818  -46.0211 H         1 UNK         0.0600 
    172 H172        2.4411  -11.8813  -47.0870 H         1 UNK         0.0600 
    173 H173        3.0583  -13.5082  -46.8398 H         1 UNK         0.0600 
    174 H174        1.6034  -11.3615  -44.3854 H         1 UNK         0.3000 
    175 H175        2.6134   -9.2720  -41.7447 H         1 UNK         0.0600 
    176 H176        1.2805   -8.2692  -44.3168 H         1 UNK         0.0600 
    177 H177        1.1866   -7.5035  -42.7297 H         1 UNK         0.0600 
    178 H178        2.7203   -7.5746  -43.5816 H         1 UNK         0.0600 
    179 H179        0.0177   -9.7083  -42.7177 H         1 UNK         0.3000 
    180 H180       -0.7608  -11.9360  -40.3622 H         1 UNK         0.0600 
    181 H181       -1.8171  -10.7225  -42.9783 H         1 UNK         0.0600 
    182 H182       -1.7397   -9.9167  -41.4120 H         1 UNK         0.0600 
    183 H183       -2.7943  -11.2977  -41.6351 H         1 UNK         0.0600 
    184 H184       -1.0574  -13.8998  -41.3083 H         1 UNK         0.3000 
    185 H185       -0.3661  -15.6149  -43.0050 H         1 UNK         0.0600 
    186 H186       -2.6735  -16.5017  -43.2629 H         1 UNK         0.0600 
    187 H187       -2.6774  -15.2179  -42.0784 H         1 UNK         0.0600 
    188 H188       -3.2709  -14.9033  -43.7042 H         1 UNK         0.0600 
    189 H189       -1.7769  -15.4091  -45.5450 H         1 UNK         0.3000 
    190 H190       -2.6267  -22.0891  -43.6316 H         1 UNK         0.3000 
    191 H191       -4.8770  -23.7511  -43.1526 H         1 UNK         0.0600 
    192 H192       -1.9580  -24.2026  -42.3345 H         1 UNK         0.0600 
    193 H193       -3.1199  -23.2131  -41.4515 H         1 UNK         0.0600 
    194 H194       -3.3708  -24.9461  -41.6027 H         1 UNK         0.0600 
    195 H195       -2.0219  -24.2284  -45.1866 H         1 UNK         0.3000 
    196 H196       -2.7131  -26.9228  -46.0361 H         1 UNK         0.0600 
    197 H197       -0.3496  -26.0815  -45.8890 H         1 UNK         0.0600 
    198 H198       -0.6932  -24.9272  -47.1762 H         1 UNK         0.0600 
    199 H199       -0.7484  -26.6539  -47.4994 H         1 UNK         0.0600 
    200 H200       -4.4641  -24.2647  -46.6138 H         1 UNK         0.3000 
    201 H201       -5.9847  -23.6200  -48.0678 H         1 UNK         0.0600 
    202 H202       -7.0243  -25.2678  -49.5834 H         1 UNK         0.0600 
    203 H203       -6.7121  -26.0000  -48.0173 H         1 UNK         0.0600 
    204 H204       -5.6689  -26.3677  -49.3901 H         1 UNK         0.0600 
    205 H205       -3.8796  -22.3122  -48.5180 H         1 UNK         0.3000 
    206 H206       -2.7904  -20.9531  -49.8822 H         1 UNK         0.0600 
    207 H207       -5.0197  -20.6050  -50.9822 H         1 UNK         0.0600 
    208 H208       -4.6439  -21.8718  -52.1443 H         1 UNK         0.0600 
    209 H209       -3.6870  -20.4018  -52.1061 H         1 UNK         0.0600 
    210 H210       -1.6175  -23.2143  -49.2477 H         1 UNK         0.3000 
    211 H211       -0.0238  -24.7284  -49.6111 H         1 UNK         0.0600 
    212 H212        1.2861  -22.7291  -50.2957 H         1 UNK         0.0600 
    213 H213        1.7944  -24.1425  -51.2047 H         1 UNK         0.0600 
    214 H214        0.7718  -22.9329  -51.9678 H         1 UNK         0.0600 
    215 H215       -2.2864  -25.8083  -50.2758 H         1 UNK         0.3000 
    216 H216       -3.4612  -27.2652  -51.4065 H         1 UNK         0.0600 
    217 H217       -2.2965  -29.0883  -52.5946 H         1 UNK         0.0600 
    218 H218       -0.8253  -28.1332  -52.7097 H         1 UNK         0.0600 
    219 H219       -1.4118  -28.6713  -51.1361 H         1 UNK         0.0600 
    220 H220       -3.7052  -24.7955  -52.3619 H         1 UNK         0.3000 
    221 H221       -4.3501  -23.4464  -53.9556 H         1 UNK         0.0600 
    222 H222       -5.1278  -25.9615  -55.5190 H         1 UNK         0.0600 
    223 H223       -6.0916  -25.2176  -54.2430 H         1 UNK         0.0600 
    224 H224       -5.7923  -24.3484  -55.7378 H         1 UNK         0.0600 
    225 H225       -1.5068  -24.2425  -54.0675 H         1 UNK         0.3000 
    226 H226       -0.7273  -24.0593  -56.8798 H         1 UNK         0.0600 
    227 H227        0.7003  -25.2563  -55.2245 H         1 UNK         0.0600 
    228 H228        1.5650  -23.9144  -55.9592 H         1 UNK         0.0600 
    229 H229        0.9340  -23.7560  -54.3254 H         1 UNK         0.0600 
    230 H230       -1.2848  -21.8485  -54.1635 H         1 UNK         0.3000 
    231 H231       -0.2667  -19.4891  -55.6171 H         1 UNK         0.0600 
    232 H232       -0.9041  -18.2984  -53.5516 H         1 UNK         0.0600 
    233 H233        0.0644  -19.7081  -53.1517 H         1 UNK         0.0600 
    234 H234       -1.6799  -19.7435  -52.9080 H         1 UNK         0.0600 
    235 H235       -1.7401  -17.5938  -55.7709 H         1 UNK         0.3000 
    236 H236       -3.7329  -18.0557  -57.6156 H         1 UNK         0.0600 
    237 H237       -2.4509  -15.9470  -57.4185 H         1 UNK         0.0600 
    238 H238       -4.1711  -15.5984  -57.3863 H         1 UNK         0.0600 
    239 H239       -3.2468  -15.5696  -55.8894 H         1 UNK         0.0600 
    240 H240       -4.1664  -17.9929  -54.1538 H         1 UNK         0.3000 
    241 H241       -7.0738  -17.6973  -54.2388 H         1 UNK         0.0600 
    242 H242       -5.0625  -20.4204  -55.0274 H         1 UNK         0.3800 
    243 H243       -6.3022  -21.6096  -54.7082 H         1 UNK         0.3800 
    244 H244       -6.9353  -18.2161  -51.7757 H         1 UNK         0.0800 
    245 H245       -5.2150  -18.4218  -51.9309 H         1 UNK         0.0800 
    246 H246       -3.8959  -14.8433  -51.6758 H         1 UNK         0.0800 
    247 H247       -3.5990  -16.1438  -52.8000 H         1 UNK         0.0800 
@<TRIPOS>BOND
     1    1    2 1    
     2    1  127 1    
     3    1  128 1    
     4    1  129 1    
     5    2    3 2    
     6    2    4 am   BACKBONE|DICT|INTERRES
     7    4    5 1    
     8    4  130 1    
     9    5    6 1    
    10    5   65 1    
    11    5  131 1    
    12    6    7 1    
    13    6  132 1    
    14    6  133 1    
    15    7    8 1    
    16    8    9 1    
    17    8  134 1    
    18    8  135 1    
    19    9   10 ar   
    20    9   14 ar   
    21   10   11 ar   
    22   10  136 1    
    23   11   12 ar   
    24   11  126 1    
    25   12   13 ar   
    26   12  137 1    
    27   13   14 ar   
    28   13   15 1    
    29   14  138 1    
    30   15   16 1    
    31   15  139 1    
    32   15  140 1    
    33   16   17 1    
    34   17   18 1    
    35   17  141 1    
    36   17  142 1    
    37   18   19 1    
    38   18   67 1    
    39   18  143 1    
    40   19   20 am   BACKBONE|DICT|INTERRES
    41   19  144 1    
    42   20   21 2    
    43   20   22 1    
    44   22   23 1    
    45   22   24 1    
    46   22  145 1    
    47   23  146 1    
    48   23  147 1    
    49   23  148 1    
    50   24   25 am   BACKBONE|DICT|INTERRES
    51   24  149 1    
    52   25   26 2    
    53   25   27 1    
    54   27   28 1    
    55   27   29 1    
    56   27  150 1    
    57   28  151 1    
    58   28  152 1    
    59   28  153 1    
    60   29   30 am   BACKBONE|DICT|INTERRES
    61   29  154 1    
    62   30   31 2    
    63   30   32 1    
    64   32   33 1    
    65   32   34 1    
    66   32  155 1    
    67   33  156 1    
    68   33  157 1    
    69   33  158 1    
    70   34   35 am   BACKBONE|DICT|INTERRES
    71   34  159 1    
    72   35   36 2    
    73   35   37 1    
    74   37   38 1    
    75   37   39 1    
    76   37  160 1    
    77   38  161 1    
    78   38  162 1    
    79   38  163 1    
    80   39   40 am   BACKBONE|DICT|INTERRES
    81   39  164 1    
    82   40   41 2    
    83   40   42 1    
    84   42   43 1    
    85   42   44 1    
    86   42  165 1    
    87   43  166 1    
    88   43  167 1    
    89   43  168 1    
    90   44   45 am   BACKBONE|DICT|INTERRES
    91   44  169 1    
    92   45   46 2    
    93   45   47 1    
    94   47   48 1    
    95   47   49 1    
    96   47  170 1    
    97   48  171 1    
    98   48  172 1    
    99   48  173 1    
   100   49   50 am   BACKBONE|DICT|INTERRES
   101   49  174 1    
   102   50   51 2    
   103   50   52 1    
   104   52   53 1    
   105   52   54 1    
   106   52  175 1    
   107   53  176 1    
   108   53  177 1    
   109   53  178 1    
   110   54   55 am   BACKBONE|DICT|INTERRES
   111   54  179 1    
   112   55   56 2    
   113   55   57 1    
   114   57   58 1    
   115   57   59 1    
   116   57  180 1    
   117   58  181 1    
   118   58  182 1    
   119   58  183 1    
   120   59   60 am   BACKBONE|DICT|INTERRES
   121   59  184 1    
   122   60   61 2    
   123   60   62 1    
   124   62   63 1    
   125   62   64 1    
   126   62  185 1    
   127   63  186 1    
   128   63  187 1    
   129   63  188 1    
   130   64   65 am   BACKBONE|DICT|INTERRES
   131   64  189 1    
   132   65   66 2    
   133   67   68 2    
   134   67   69 am   BACKBONE|DICT|INTERRES
   135   69   70 1    
   136   69  190 1    
   137   70   71 1    
   138   70   72 1    
   139   70  191 1    
   140   71  192 1    
   141   71  193 1    
   142   71  194 1    
   143   72   73 2    
   144   72   74 am   BACKBONE|DICT|INTERRES
   145   74   75 1    
   146   74  195 1    
   147   75   76 1    
   148   75   77 1    
   149   75  196 1    
   150   76  197 1    
   151   76  198 1    
   152   76  199 1    
   153   77   78 2    
   154   77   79 am   BACKBONE|DICT|INTERRES
   155   79   80 1    
   156   79  200 1    
   157   80   81 1    
   158   80   82 1    
   159   80  201 1    
   160   81  202 1    
   161   81  203 1    
   162   81  204 1    
   163   82   83 2    
   164   82   84 am   BACKBONE|DICT|INTERRES
   165   84   85 1    
   166   84  205 1    
   167   85   86 1    
   168   85   87 1    
   169   85  206 1    
   170   86  207 1    
   171   86  208 1    
   172   86  209 1    
   173   87   88 2    
   174   87   89 am   BACKBONE|DICT|INTERRES
   175   89   90 1    
   176   89  210 1    
   177   90   91 1    
   178   90   92 1    
   179   90  211 1    
   180   91  212 1    
   181   91  213 1    
   182   91  214 1    
   183   92   93 2    
   184   92   94 am   BACKBONE|DICT|INTERRES
   185   94   95 1    
   186   94  215 1    
   187   95   96 1    
   188   95   97 1    
   189   95  216 1    
   190   96  217 1    
   191   96  218 1    
   192   96  219 1    
   193   97   98 2    
   194   97   99 am   BACKBONE|DICT|INTERRES
   195   99  100 1    
   196   99  220 1    
   197  100  101 1    
   198  100  102 1    
   199  100  221 1    
   200  101  222 1    
   201  101  223 1    
   202  101  224 1    
   203  102  103 2    
   204  102  104 am   BACKBONE|DICT|INTERRES
   205  104  105 1    
   206  104  225 1    
   207  105  106 1    
   208  105  107 1    
   209  105  226 1    
   210  106  227 1    
   211  106  228 1    
   212  106  229 1    
   213  107  108 2    
   214  107  109 am   BACKBONE|DICT|INTERRES
   215  109  110 1    
   216  109  230 1    
   217  110  111 1    
   218  110  112 1    
   219  110  231 1    
   220  111  232 1    
   221  111  233 1    
   222  111  234 1    
   223  112  113 2    
   224  112  114 am   BACKBONE|DICT|INTERRES
   225  114  115 1    
   226  114  235 1    
   227  115  116 1    
   228  115  117 1    
   229  115  236 1    
   230  116  237 1    
   231  116  238 1    
   232  116  239 1    
   233  117  118 2    
   234  117  119 am   BACKBONE|DICT|INTERRES
   235  119  120 1    
   236  119  240 1    
   237  120  121 1    
   238  120  124 1    
   239  120  241 1    
   240  121  122 am   BACKBONE|DICT|INTERRES
   241  121  123 2    
   242  122  242 1    
   243  122  243 1    
   244  124  125 1    
   245  124  244 1    
   246  124  245 1    
   247  125  126 1    
   248  126  246 1    
   249  126  247 1    
@<TRIPOS>SUBSTRUCTURE
     1 UNK         1 GROUP             0       ****    0 ROOT    
