@<TRIPOS>MOLECULE
3R540
247   249    1
SMALL
USER_CHARGES


@<TRIPOS>ATOM
      1 CA         -4.4408  -13.7680  -48.0252 C.3       0 UNK        -0.1800 
      2 C          -3.0846  -13.9770  -47.3694 C.2       0 UNK         0.5000 
      3 O          -2.7168  -13.2309  -46.4623 O.2       0 UNK        -0.5000 
      4 N          -2.3467  -15.0083  -47.7980 N.am      1 UNK        -0.5000 
      5 CA         -0.9952  -15.3286  -47.3152 C.3       1 UNK         0.1400 
      6 C6         -0.2856  -16.3383  -48.2435 C.3       23 UNK        -0.0398 
      7 S7         -0.0171  -15.6179  -49.9005 S.3       23 UNK        -0.2404 
      8 C8          1.7395  -15.9845  -50.1984 C.3       23 UNK        -0.0205 
      9 C9          1.9240  -17.4012  -50.7184 C.ar      23 UNK        -0.0193 
     10 C10         1.9646  -17.6287  -52.0942 C.ar      23 UNK        -0.1150 
     11 C11         2.1019  -18.9230  -52.5968 C.ar      23 UNK        -0.0193 
     12 C12         2.1948  -19.9982  -51.7087 C.ar      23 UNK        -0.1150 
     13 C13         2.1703  -19.7914  -50.3241 C.ar      23 UNK        -0.0193 
     14 C14         2.0429  -18.4816  -49.8386 C.ar      23 UNK        -0.1150 
     15 C15         2.2918  -21.0183  -49.4158 C.3       23 UNK        -0.0205 
     16 S16         2.3722  -20.7096  -47.6149 S.3       23 UNK        -0.2404 
     17 C17         0.6135  -20.4660  -47.1875 C.3       23 UNK        -0.0398 
     18 CA         -0.1795  -21.7895  -47.0308 C.3       11 UNK         0.1400 
     19 N           0.4860  -22.7786  -46.1781 N.am      11 UNK        -0.5000 
     20 C           0.1935  -24.0872  -46.1821 C.2       10 UNK         0.5000 
     21 O          -0.6454  -24.5906  -46.9282 O.2       10 UNK        -0.5000 
     22 CA          0.9198  -24.9774  -45.1544 C.3       10 UNK         0.1400 
     23 CB          2.2338  -25.5114  -45.7429 C.3       10 UNK        -0.1800 
     24 N           1.2012  -24.2961  -43.8893 N.am      10 UNK        -0.5000 
     25 C           0.2744  -23.7878  -43.0660 C.2       9 UNK         0.5000 
     26 O          -0.9360  -23.8825  -43.2693 O.2       9 UNK        -0.5000 
     27 CA          0.7701  -22.9819  -41.8466 C.3       9 UNK         0.1400 
     28 CB          2.2360  -23.2793  -41.4593 C.3       9 UNK        -0.1800 
     29 N           0.5793  -21.5358  -42.0269 N.am      9 UNK        -0.5000 
     30 C           1.0363  -20.7866  -43.0417 C.2       8 UNK         0.5000 
     31 O           1.6356  -21.2505  -44.0141 O.2       8 UNK        -0.5000 
     32 CA          0.7676  -19.2665  -43.0065 C.3       8 UNK         0.1400 
     33 CB          0.3077  -18.7208  -41.6361 C.3       8 UNK        -0.1800 
     34 N           1.9305  -18.5369  -43.5216 N.am      8 UNK        -0.5000 
     35 C           3.1695  -18.5334  -43.0023 C.2       7 UNK         0.5000 
     36 O           3.4433  -18.9561  -41.8785 O.2       7 UNK        -0.5000 
     37 CA          4.3047  -18.0064  -43.9044 C.3       7 UNK         0.1400 
     38 CB          5.4752  -19.0039  -43.9430 C.3       7 UNK        -0.1800 
     39 N           3.8475  -17.7977  -45.2824 N.am      7 UNK        -0.5000 
     40 C           3.5932  -16.6472  -45.9188 C.2       6 UNK         0.5000 
     41 O           3.1699  -16.6597  -47.0699 O.2       6 UNK        -0.5000 
     42 CA          3.7867  -15.2961  -45.2045 C.3       6 UNK         0.1400 
     43 CB          3.7513  -14.1035  -46.1800 C.3       6 UNK        -0.1800 
     44 N           2.7177  -15.1127  -44.2308 N.am      6 UNK        -0.5000 
     45 C           2.8854  -14.7819  -42.9460 C.2       5 UNK         0.5000 
     46 O           3.9854  -14.6824  -42.3995 O.2       5 UNK        -0.5000 
     47 CA          1.5901  -14.4922  -42.1634 C.3       5 UNK         0.1400 
     48 CB          1.8384  -13.9821  -40.7296 C.3       5 UNK        -0.1800 
     49 N           0.7075  -13.5806  -42.8969 N.am      5 UNK        -0.5000 
     50 C           0.9732  -12.3323  -43.3154 C.2       4 UNK         0.5000 
     51 O           2.0205  -11.7303  -43.0764 O.2       4 UNK        -0.5000 
     52 CA         -0.1119  -11.6372  -44.1643 C.3       4 UNK         0.1400 
     53 CB          0.2895  -11.6552  -45.6472 C.3       4 UNK        -0.1800 
     54 N          -1.4335  -12.2519  -44.0270 N.am      4 UNK        -0.5000 
     55 C          -2.2012  -12.1805  -42.9306 C.2       3 UNK         0.5000 
     56 O          -1.9272  -11.4988  -41.9427 O.2       3 UNK        -0.5000 
     57 CA         -3.4603  -13.0642  -42.9227 C.3       3 UNK         0.1400 
     58 CB         -4.6382  -12.3497  -43.6029 C.3       3 UNK        -0.1800 
     59 N          -3.2288  -14.3553  -43.5751 N.am      3 UNK        -0.5000 
     60 C          -2.4841  -15.3463  -43.0630 C.2       2 UNK         0.5000 
     61 O          -1.9124  -15.2842  -41.9759 O.2       2 UNK        -0.5000 
     62 CA         -2.3265  -16.6080  -43.9278 C.3       2 UNK         0.1400 
     63 CB         -3.5637  -17.5043  -43.7897 C.3       2 UNK        -0.1800 
     64 N          -2.1151  -16.2833  -45.3382 N.am      2 UNK        -0.5000 
     65 C          -0.9714  -15.7993  -45.8435 C.2       1 UNK         0.5000 
     66 O           0.0652  -15.6851  -45.1870 O.2       1 UNK        -0.5000 
     67 C          -1.6077  -21.5063  -46.5263 C.2       11 UNK         0.5000 
     68 O          -2.5066  -21.2986  -47.3391 O.2       11 UNK        -0.5000 
     69 N          -1.8058  -21.5367  -45.1992 N.am      12 UNK        -0.5000 
     70 CA         -3.1120  -21.3808  -44.5568 C.3       12 UNK         0.1400 
     71 CB         -2.9365  -21.0769  -43.0617 C.3       12 UNK        -0.1800 
     72 C          -4.0142  -22.6029  -44.7859 C.2       12 UNK         0.5000 
     73 O          -5.1972  -22.4307  -45.0796 O.2       12 UNK        -0.5000 
     74 N          -3.4227  -23.8049  -44.7294 N.am      13 UNK        -0.5000 
     75 CA         -4.0579  -25.0725  -45.1001 C.3       13 UNK         0.1400 
     76 CB         -3.1103  -26.2335  -44.7649 C.3       13 UNK        -0.1800 
     77 C          -4.4806  -25.1202  -46.5831 C.2       13 UNK         0.5000 
     78 O          -5.4955  -25.7369  -46.9059 O.2       13 UNK        -0.5000 
     79 N          -3.7366  -24.4124  -47.4443 N.am      14 UNK        -0.5000 
     80 CA         -4.0460  -24.1749  -48.8546 C.3       14 UNK         0.1400 
     81 CB         -2.7318  -24.0571  -49.6439 C.3       14 UNK        -0.1800 
     82 C          -4.9582  -22.9447  -49.0665 C.2       14 UNK         0.5000 
     83 O          -4.8658  -22.2927  -50.1089 O.2       14 UNK        -0.5000 
     84 N          -5.8250  -22.6480  -48.0871 N.am      15 UNK        -0.5000 
     85 CA         -6.8495  -21.5990  -48.0857 C.3       15 UNK         0.1400 
     86 CB         -7.9480  -21.9214  -49.1206 C.3       15 UNK        -0.1800 
     87 C          -6.2612  -20.1845  -48.2530 C.2       15 UNK         0.5000 
     88 O          -6.7498  -19.4021  -49.0670 O.2       15 UNK        -0.5000 
     89 N          -5.1877  -19.8974  -47.5036 N.am      16 UNK        -0.5000 
     90 CA         -4.3949  -18.6602  -47.5540 C.3       16 UNK         0.1400 
     91 CB         -5.2324  -17.4533  -47.0815 C.3       16 UNK        -0.1800 
     92 C          -3.7334  -18.4429  -48.9335 C.2       16 UNK         0.5000 
     93 O          -3.6346  -17.3083  -49.4033 O.2       16 UNK        -0.5000 
     94 N          -3.3013  -19.5618  -49.5310 N.am      17 UNK        -0.5000 
     95 CA         -2.7251  -19.7555  -50.8633 C.3       17 UNK         0.1400 
     96 CB         -1.5037  -18.8489  -51.1005 C.3       17 UNK        -0.1800 
     97 C          -3.7405  -19.6912  -52.0236 C.2       17 UNK         0.5000 
     98 O          -3.3317  -19.8286  -53.1779 O.2       17 UNK        -0.5000 
     99 N          -5.0435  -19.5500  -51.7353 N.am      18 UNK        -0.5000 
    100 CA        -6.0986  -19.5412  -52.7534 C.3       18 UNK         0.1400 
    101 CB        -7.4217  -19.0577  -52.1437 C.3       18 UNK        -0.1800 
    102 C         -6.2887  -20.9067  -53.4412 C.2       18 UNK         0.5000 
    103 O         -6.5987  -20.9376  -54.6325 O.2       18 UNK        -0.5000 
    104 N         -6.0764  -22.0050  -52.7005 N.am      19 UNK        -0.5000 
    105 CA        -6.1176  -23.3676  -53.2368 C.3       19 UNK         0.1400 
    106 CB        -6.5381  -24.3514  -52.1344 C.3       19 UNK        -0.1800 
    107 C         -4.7687  -23.7838  -53.8511 C.2       19 UNK         0.5000 
    108 O         -4.7481  -24.6750  -54.7008 O.2       19 UNK        -0.5000 
    109 N         -3.6718  -23.1321  -53.4316 N.am      20 UNK        -0.5000 
    110 CA        -2.3412  -23.2991  -54.0231 C.3       20 UNK         0.1400 
    111 CB        -1.2688  -22.6757  -53.1131 C.3       20 UNK        -0.1800 
    112 C         -2.2623  -22.6936  -55.4361 C.2       20 UNK         0.5000 
    113 O         -1.5640  -23.2415  -56.2894 O.2       20 UNK        -0.5000 
    114 N         -2.9757  -21.5764  -55.6482 N.am      21 UNK        -0.5000 
    115 CA        -3.1554  -20.8021  -56.8855 C.3       21 UNK         0.1400 
    116 CB        -3.7725  -21.6646  -58.0026 C.3       21 UNK        -0.1800 
    117 C         -1.8949  -20.0618  -57.3784 C.2       21 UNK         0.5000 
    118 O         -2.0208  -18.9556  -57.9064 O.2       21 UNK        -0.5000 
    119 N         -0.7167  -20.6561  -57.1604 N.am      22 UNK        -0.5000 
    120 CA         0.6238  -20.1108  -57.4216 C.3       22 UNK         0.1400 
    121 C          0.9651  -19.9852  -58.9395 C.2       22 UNK         0.5000 
    122 N          2.1006  -19.3956  -59.2921 N.am      22 UNK        -0.7600 
    123 O          0.2381  -20.4544  -59.8132 O.2       22 UNK        -0.5000 
    124 C124        0.9096  -18.8063  -56.6194 C.3       23 UNK        -0.0398 
    125 S125        0.5060  -18.9374  -54.8399 S.3       23 UNK        -0.2404 
    126 C126        2.1533  -19.1405  -54.1001 C.3       23 UNK        -0.0205 
    127 H127       -4.4791  -12.7882  -48.5009 H         1 UNK         0.0600 
    128 H128       -4.6431  -14.5246  -48.7841 H         1 UNK         0.0600 
    129 H129       -5.2311  -13.8165  -47.2762 H         1 UNK         0.0600 
    130 H130       -2.6986  -15.5989  -48.5454 H         1 UNK         0.3000 
    131 H131       -0.4172  -14.4031  -47.3399 H         1 UNK         0.0600 
    132 H132        0.6747  -16.6304  -47.8195 H         1 UNK         0.0800 
    133 H133       -0.8677  -17.2550  -48.3462 H         1 UNK         0.0800 
    134 H134        2.3254  -15.8194  -49.2958 H         1 UNK         0.0800 
    135 H135        2.1203  -15.2712  -50.9307 H         1 UNK         0.0800 
    136 H136        1.8747  -16.7974  -52.7795 H         1 UNK         0.1150 
    137 H137        2.2938  -21.0022  -52.0973 H         1 UNK         0.1150 
    138 H138        2.0246  -18.2890  -48.7775 H         1 UNK         0.1150 
    139 H139        1.4675  -21.7005  -49.6264 H         1 UNK         0.0800 
    140 H140        3.2026  -21.5513  -49.6921 H         1 UNK         0.0800 
    141 H141        0.5882  -19.8922  -46.2599 H         1 UNK         0.0800 
    142 H142        0.1494  -19.8343  -47.9470 H         1 UNK         0.0800 
    143 H143       -0.2781  -22.2264  -48.0265 H         1 UNK         0.0600 
    144 H144        1.1650  -22.4172  -45.5137 H         1 UNK         0.3000 
    145 H145        0.2708  -25.8279  -44.9369 H         1 UNK         0.0600 
    146 H146        2.7193  -26.2073  -45.0584 H         1 UNK         0.0600 
    147 H147        2.0542  -26.0470  -46.6762 H         1 UNK         0.0600 
    148 H148        2.9357  -24.7044  -45.9572 H         1 UNK         0.0600 
    149 H149        2.1731  -24.1326  -43.6708 H         1 UNK         0.3000 
    150 H150        0.1395  -23.2809  -41.0081 H         1 UNK         0.0600 
    151 H151        2.3945  -24.3474  -41.3047 H         1 UNK         0.0600 
    152 H152        2.4973  -22.7793  -40.5266 H         1 UNK         0.0600 
    153 H153        2.9436  -22.9418  -42.2175 H         1 UNK         0.0600 
    154 H154        0.0782  -21.0717  -41.2829 H         1 UNK         0.3000 
    155 H155       -0.0383  -19.0914  -43.7198 H         1 UNK         0.0600 
    156 H156        0.1796  -17.6394  -41.6694 H         1 UNK         0.0600 
    157 H157        1.0210  -18.9437  -40.8422 H         1 UNK         0.0600 
    158 H158       -0.6544  -19.1420  -41.3438 H         1 UNK         0.0600 
    159 H159        1.8343  -18.1754  -44.4593 H         1 UNK         0.3000 
    160 H160        4.6755  -17.0877  -43.4544 H         1 UNK         0.0600 
    161 H161        5.1608  -19.9776  -44.3214 H         1 UNK         0.0600 
    162 H162        5.8967  -19.1578  -42.9488 H         1 UNK         0.0600 
    163 H163        6.2814  -18.6408  -44.5807 H         1 UNK         0.0600 
    164 H164        3.6977  -18.6502  -45.8034 H         1 UNK         0.3000 
    165 H165        4.7704  -15.2973  -44.7328 H         1 UNK         0.0600 
    166 H166        4.5195  -14.2022  -46.9479 H         1 UNK         0.0600 
    167 H167        2.7873  -14.0214  -46.6844 H         1 UNK         0.0600 
    168 H168        3.9319  -13.1642  -45.6568 H         1 UNK         0.0600 
    169 H169        1.7700  -15.2232  -44.5876 H         1 UNK         0.3000 
    170 H170        1.0579  -15.4409  -42.0889 H         1 UNK         0.0600 
    171 H171        2.4043  -14.7118  -40.1495 H         1 UNK         0.0600 
    172 H172        2.4019  -13.0487  -40.7211 H         1 UNK         0.0600 
    173 H173        0.8974  -13.8108  -40.2066 H         1 UNK         0.0600 
    174 H174       -0.1859  -13.9717  -43.1592 H         1 UNK         0.3000 
    175 H175       -0.1793  -10.5979  -43.8364 H         1 UNK         0.0600 
    176 H176        0.4228  -12.6736  -46.0116 H         1 UNK         0.0600 
    177 H177       -0.4633  -11.1704  -46.2691 H         1 UNK         0.0600 
    178 H178        1.2313  -11.1276  -45.8033 H         1 UNK         0.0600 
    179 H179       -1.7852  -12.7664  -44.8301 H         1 UNK         0.3000 
    180 H180       -3.7314  -13.2502  -41.8812 H         1 UNK         0.0600 
    181 H181       -4.8515  -11.3990  -43.1127 H         1 UNK         0.0600 
    182 H182       -4.4333  -12.1375  -44.6526 H         1 UNK         0.0600 
    183 H183       -5.5460  -12.9511  -43.5531 H         1 UNK         0.0600 
    184 H184       -3.6192  -14.4627  -44.4991 H         1 UNK         0.3000 
    185 H185       -1.4592  -17.1611  -43.5646 H         1 UNK         0.0600 
    186 H186       -4.4785  -16.9827  -44.0728 H         1 UNK         0.0600 
    187 H187       -3.4760  -18.3868  -44.4172 H         1 UNK         0.0600 
    188 H188       -3.6857  -17.8445  -42.7605 H         1 UNK         0.0600 
    189 H189       -2.9195  -16.3188  -45.9441 H         1 UNK         0.3000 
    190 H190       -1.0374  -21.8130  -44.6059 H         1 UNK         0.3000 
    191 H191       -3.6127  -20.5286  -45.0155 H         1 UNK         0.0600 
    192 H192       -3.9020  -20.8928  -42.5891 H         1 UNK         0.0600 
    193 H193       -2.3277  -20.1868  -42.9089 H         1 UNK         0.0600 
    194 H194       -2.4661  -21.9016  -42.5274 H         1 UNK         0.0600 
    195 H195       -2.4605  -23.8555  -44.4053 H         1 UNK         0.3000 
    196 H196       -4.9600  -25.1809  -44.4946 H         1 UNK         0.0600 
    197 H197       -3.5829  -27.1944  -44.9719 H         1 UNK         0.0600 
    198 H198       -2.8338  -26.2262  -43.7104 H         1 UNK         0.0600 
    199 H199       -2.1932  -26.1866  -45.3518 H         1 UNK         0.0600 
    200 H200       -2.9012  -23.9635  -47.0933 H         1 UNK         0.3000 
    201 H201       -4.5863  -25.0389  -49.2456 H         1 UNK         0.0600 
    202 H202       -2.0783  -24.9090  -49.4558 H         1 UNK         0.0600 
    203 H203       -2.1844  -23.1505  -49.3858 H         1 UNK         0.0600 
    204 H204       -2.9289  -24.0335  -50.7154 H         1 UNK         0.0600 
    205 H205       -5.7858  -23.2069  -47.2453 H         1 UNK         0.3000 
    206 H206       -7.3106  -21.6208  -47.0972 H         1 UNK         0.0600 
    207 H207       -8.3679  -22.9132  -48.9532 H         1 UNK         0.0600 
    208 H208       -8.7692  -21.2067  -49.0557 H         1 UNK         0.0600 
    209 H209       -7.5673  -21.8886  -50.1412 H         1 UNK         0.0600 
    210 H210       -4.8175  -20.6374  -46.9225 H         1 UNK         0.3000 
    211 H211       -3.5759  -18.7903  -46.8463 H         1 UNK         0.0600 
    212 H212       -6.0011  -17.1832  -47.8062 H         1 UNK         0.0600 
    213 H213       -4.6083  -16.5748  -46.9327 H         1 UNK         0.0600 
    214 H214       -5.7282  -17.6635  -46.1341 H         1 UNK         0.0600 
    215 H215       -3.4101  -20.4179  -48.9975 H         1 UNK         0.3000 
    216 H216       -2.3603  -20.7833  -50.8577 H         1 UNK         0.0600 
    217 H217       -1.7885  -17.8035  -51.2170 H         1 UNK         0.0600 
    218 H218       -0.9702  -19.1395  -52.0061 H         1 UNK         0.0600 
    219 H219       -0.7961  -18.9170  -50.2755 H         1 UNK         0.0600 
    220 H220       -5.3369  -19.4774  -50.7686 H         1 UNK         0.3000 
    221 H221       -5.8075  -18.8229  -53.5229 H         1 UNK         0.0600 
    222 H222       -7.8232  -19.7762  -51.4294 H         1 UNK         0.0600 
    223 H223       -7.2983  -18.1039  -51.6306 H         1 UNK         0.0600 
    224 H224       -8.1761  -18.9163  -52.9185 H         1 UNK         0.0600 
    225 H225       -5.7829  -21.9078  -51.7313 H         1 UNK         0.3000 
    226 H226       -6.8715  -23.4169  -54.0255 H         1 UNK         0.0600 
    227 H227       -7.4416  -24.0180  -51.6237 H         1 UNK         0.0600 
    228 H228       -6.7471  -25.3348  -52.5569 H         1 UNK         0.0600 
    229 H229       -5.7553  -24.4839  -51.3900 H         1 UNK         0.0600 
    230 H230       -3.7812  -22.4109  -52.7347 H         1 UNK         0.3000 
    231 H231       -2.1358  -24.3687  -54.1039 H         1 UNK         0.0600 
    232 H232       -1.3781  -21.5948  -53.0328 H         1 UNK         0.0600 
    233 H233       -1.2981  -23.0949  -52.1087 H         1 UNK         0.0600 
    234 H234       -0.2708  -22.8653  -53.5102 H         1 UNK         0.0600 
    235 H235       -3.4109  -21.1590  -54.8330 H         1 UNK         0.3000 
    236 H236       -3.8840  -20.0302  -56.6324 H         1 UNK         0.0600 
    237 H237       -4.6951  -22.1397  -57.6687 H         1 UNK         0.0600 
    238 H238       -4.0165  -21.0540  -58.8727 H         1 UNK         0.0600 
    239 H239       -3.0918  -22.4476  -58.3374 H         1 UNK         0.0600 
    240 H240       -0.7469  -21.5984  -56.7854 H         1 UNK         0.3000 
    241 H241        1.3056  -20.8754  -57.0481 H         1 UNK         0.0600 
    242 H242        2.7483  -19.0276  -58.6133 H         1 UNK         0.3800 
    243 H243        2.3277  -19.3297  -60.2726 H         1 UNK         0.3800 
    244 H244        0.3306  -17.9779  -57.0299 H         1 UNK         0.0800 
    245 H245        1.9544  -18.5126  -56.7203 H         1 UNK         0.0800 
    246 H246        2.5378  -20.1332  -54.3387 H         1 UNK         0.0800 
    247 H247        2.8484  -18.4217  -54.5364 H         1 UNK         0.0800 
@<TRIPOS>BOND
     1    1    2 1    
     2    1  127 1    
     3    1  128 1    
     4    1  129 1    
     5    2    3 2    
     6    2    4 am   BACKBONE|DICT|INTERRES
     7    4    5 1    
     8    4  130 1    
     9    5    6 1    
    10    5   65 1    
    11    5  131 1    
    12    6    7 1    
    13    6  132 1    
    14    6  133 1    
    15    7    8 1    
    16    8    9 1    
    17    8  134 1    
    18    8  135 1    
    19    9   10 ar   
    20    9   14 ar   
    21   10   11 ar   
    22   10  136 1    
    23   11   12 ar   
    24   11  126 1    
    25   12   13 ar   
    26   12  137 1    
    27   13   14 ar   
    28   13   15 1    
    29   14  138 1    
    30   15   16 1    
    31   15  139 1    
    32   15  140 1    
    33   16   17 1    
    34   17   18 1    
    35   17  141 1    
    36   17  142 1    
    37   18   19 1    
    38   18   67 1    
    39   18  143 1    
    40   19   20 am   BACKBONE|DICT|INTERRES
    41   19  144 1    
    42   20   21 2    
    43   20   22 1    
    44   22   23 1    
    45   22   24 1    
    46   22  145 1    
    47   23  146 1    
    48   23  147 1    
    49   23  148 1    
    50   24   25 am   BACKBONE|DICT|INTERRES
    51   24  149 1    
    52   25   26 2    
    53   25   27 1    
    54   27   28 1    
    55   27   29 1    
    56   27  150 1    
    57   28  151 1    
    58   28  152 1    
    59   28  153 1    
    60   29   30 am   BACKBONE|DICT|INTERRES
    61   29  154 1    
    62   30   31 2    
    63   30   32 1    
    64   32   33 1    
    65   32   34 1    
    66   32  155 1    
    67   33  156 1    
    68   33  157 1    
    69   33  158 1    
    70   34   35 am   BACKBONE|DICT|INTERRES
    71   34  159 1    
    72   35   36 2    
    73   35   37 1    
    74   37   38 1    
    75   37   39 1    
    76   37  160 1    
    77   38  161 1    
    78   38  162 1    
    79   38  163 1    
    80   39   40 am   BACKBONE|DICT|INTERRES
    81   39  164 1    
    82   40   41 2    
    83   40   42 1    
    84   42   43 1    
    85   42   44 1    
    86   42  165 1    
    87   43  166 1    
    88   43  167 1    
    89   43  168 1    
    90   44   45 am   BACKBONE|DICT|INTERRES
    91   44  169 1    
    92   45   46 2    
    93   45   47 1    
    94   47   48 1    
    95   47   49 1    
    96   47  170 1    
    97   48  171 1    
    98   48  172 1    
    99   48  173 1    
   100   49   50 am   BACKBONE|DICT|INTERRES
   101   49  174 1    
   102   50   51 2    
   103   50   52 1    
   104   52   53 1    
   105   52   54 1    
   106   52  175 1    
   107   53  176 1    
   108   53  177 1    
   109   53  178 1    
   110   54   55 am   BACKBONE|DICT|INTERRES
   111   54  179 1    
   112   55   56 2    
   113   55   57 1    
   114   57   58 1    
   115   57   59 1    
   116   57  180 1    
   117   58  181 1    
   118   58  182 1    
   119   58  183 1    
   120   59   60 am   BACKBONE|DICT|INTERRES
   121   59  184 1    
   122   60   61 2    
   123   60   62 1    
   124   62   63 1    
   125   62   64 1    
   126   62  185 1    
   127   63  186 1    
   128   63  187 1    
   129   63  188 1    
   130   64   65 am   BACKBONE|DICT|INTERRES
   131   64  189 1    
   132   65   66 2    
   133   67   68 2    
   134   67   69 am   BACKBONE|DICT|INTERRES
   135   69   70 1    
   136   69  190 1    
   137   70   71 1    
   138   70   72 1    
   139   70  191 1    
   140   71  192 1    
   141   71  193 1    
   142   71  194 1    
   143   72   73 2    
   144   72   74 am   BACKBONE|DICT|INTERRES
   145   74   75 1    
   146   74  195 1    
   147   75   76 1    
   148   75   77 1    
   149   75  196 1    
   150   76  197 1    
   151   76  198 1    
   152   76  199 1    
   153   77   78 2    
   154   77   79 am   BACKBONE|DICT|INTERRES
   155   79   80 1    
   156   79  200 1    
   157   80   81 1    
   158   80   82 1    
   159   80  201 1    
   160   81  202 1    
   161   81  203 1    
   162   81  204 1    
   163   82   83 2    
   164   82   84 am   BACKBONE|DICT|INTERRES
   165   84   85 1    
   166   84  205 1    
   167   85   86 1    
   168   85   87 1    
   169   85  206 1    
   170   86  207 1    
   171   86  208 1    
   172   86  209 1    
   173   87   88 2    
   174   87   89 am   BACKBONE|DICT|INTERRES
   175   89   90 1    
   176   89  210 1    
   177   90   91 1    
   178   90   92 1    
   179   90  211 1    
   180   91  212 1    
   181   91  213 1    
   182   91  214 1    
   183   92   93 2    
   184   92   94 am   BACKBONE|DICT|INTERRES
   185   94   95 1    
   186   94  215 1    
   187   95   96 1    
   188   95   97 1    
   189   95  216 1    
   190   96  217 1    
   191   96  218 1    
   192   96  219 1    
   193   97   98 2    
   194   97   99 am   BACKBONE|DICT|INTERRES
   195   99  100 1    
   196   99  220 1    
   197  100  101 1    
   198  100  102 1    
   199  100  221 1    
   200  101  222 1    
   201  101  223 1    
   202  101  224 1    
   203  102  103 2    
   204  102  104 am   BACKBONE|DICT|INTERRES
   205  104  105 1    
   206  104  225 1    
   207  105  106 1    
   208  105  107 1    
   209  105  226 1    
   210  106  227 1    
   211  106  228 1    
   212  106  229 1    
   213  107  108 2    
   214  107  109 am   BACKBONE|DICT|INTERRES
   215  109  110 1    
   216  109  230 1    
   217  110  111 1    
   218  110  112 1    
   219  110  231 1    
   220  111  232 1    
   221  111  233 1    
   222  111  234 1    
   223  112  113 2    
   224  112  114 am   BACKBONE|DICT|INTERRES
   225  114  115 1    
   226  114  235 1    
   227  115  116 1    
   228  115  117 1    
   229  115  236 1    
   230  116  237 1    
   231  116  238 1    
   232  116  239 1    
   233  117  118 2    
   234  117  119 am   BACKBONE|DICT|INTERRES
   235  119  120 1    
   236  119  240 1    
   237  120  121 1    
   238  120  124 1    
   239  120  241 1    
   240  121  122 am   BACKBONE|DICT|INTERRES
   241  121  123 2    
   242  122  242 1    
   243  122  243 1    
   244  124  125 1    
   245  124  244 1    
   246  124  245 1    
   247  125  126 1    
   248  126  246 1    
   249  126  247 1    
@<TRIPOS>SUBSTRUCTURE
     1 UNK         1 GROUP             0       ****    0 ROOT    
