@<TRIPOS>MOLECULE
3R540
247   249    1
SMALL
USER_CHARGES


@<TRIPOS>ATOM
      1 CA          6.5303  -16.1284  -47.8656 C.3       0 UNK        -0.1800 
      2 C           6.5766  -15.4139  -49.2156 C.2       0 UNK         0.5000 
      3 O           7.6558  -15.0236  -49.6555 O.2       0 UNK        -0.5000 
      4 N           5.4456  -15.2172  -49.9079 N.am      1 UNK        -0.5000 
      5 CA          4.0863  -15.5989  -49.5014 C.3       1 UNK         0.1400 
      6 C6          3.1500  -15.8078  -50.7160 C.3       23 UNK        -0.0398 
      7 S7          3.5711  -17.3133  -51.6569 S.3       23 UNK        -0.2404 
      8 C8          2.5657  -18.5814  -50.8114 C.3       23 UNK        -0.0205 
      9 C9          1.0714  -18.3794  -51.0229 C.ar      23 UNK        -0.0193 
     10 C10         0.4840  -18.7130  -52.2474 C.ar      23 UNK        -0.1150 
     11 C11        -0.8839  -18.5140  -52.4576 C.ar      23 UNK        -0.0193 
     12 C12        -1.6674  -17.9937  -51.4247 C.ar      23 UNK        -0.1150 
     13 C13        -1.0945  -17.6619  -50.1949 C.ar      23 UNK        -0.0193 
     14 C14         0.2751  -17.8592  -49.9969 C.ar      23 UNK        -0.1150 
     15 C15        -1.9590  -17.0600  -49.0998 C.3       23 UNK        -0.0205 
     16 S16        -2.6963  -18.3371  -48.0363 S.3       23 UNK        -0.2404 
     17 C17        -1.3492  -18.6761  -46.8471 C.3       23 UNK        -0.0398 
     18 CA         -0.7433  -20.1091  -46.7754 C.3       11 UNK         0.1400 
     19 N          -0.1659  -20.3703  -45.4499 N.am      11 UNK        -0.5000 
     20 C           0.5602  -21.4466  -45.1128 C.2       10 UNK         0.5000 
     21 O           0.8991  -22.3201  -45.9076 O.2       10 UNK        -0.5000 
     22 CA          0.9246  -21.6071  -43.6279 C.3       10 UNK         0.1400 
     23 CB          2.1429  -20.7484  -43.2642 C.3       10 UNK        -0.1800 
     24 N          -0.1946  -21.2751  -42.7481 N.am      10 UNK        -0.5000 
     25 C          -1.3134  -22.0062  -42.6367 C.2       9 UNK         0.5000 
     26 O          -1.4945  -23.0648  -43.2366 O.2       9 UNK        -0.5000 
     27 CA         -2.4381  -21.4483  -41.7401 C.3       9 UNK         0.1400 
     28 CB         -2.2746  -21.9493  -40.2978 C.3       9 UNK        -0.1800 
     29 N          -2.5067  -19.9863  -41.7363 N.am      9 UNK        -0.5000 
     30 C          -2.7143  -19.2312  -42.8224 C.2       8 UNK         0.5000 
     31 O          -2.9770  -19.7011  -43.9315 O.2       8 UNK        -0.5000 
     32 CA         -2.5853  -17.7028  -42.6636 C.3       8 UNK         0.1400 
     33 CB         -3.9718  -17.0844  -42.4309 C.3       8 UNK        -0.1800 
     34 N          -1.6643  -17.1862  -41.6375 N.am      8 UNK        -0.5000 
     35 C          -0.4195  -17.5926  -41.3389 C.2       7 UNK         0.5000 
     36 O           0.0709  -18.6622  -41.6992 O.2       7 UNK        -0.5000 
     37 CA          0.4356  -16.5962  -40.5324 C.3       7 UNK         0.1400 
     38 CB          1.8251  -17.1569  -40.1791 C.3       7 UNK        -0.1800 
     39 N           0.6099  -15.3690  -41.3087 N.am      7 UNK        -0.5000 
     40 C          -0.2192  -14.3181  -41.2818 C.2       6 UNK         0.5000 
     41 O          -1.1829  -14.2307  -40.5198 O.2       6 UNK        -0.5000 
     42 CA          0.0296  -13.2178  -42.3292 C.3       6 UNK         0.1400 
     43 CB          1.2830  -12.3951  -41.9924 C.3       6 UNK        -0.1800 
     44 N           0.1457  -13.7702  -43.6796 N.am      6 UNK        -0.5000 
     45 C          -0.8567  -14.3609  -44.3484 C.2       5 UNK         0.5000 
     46 O          -2.0107  -14.4379  -43.9273 O.2       5 UNK        -0.5000 
     47 CA         -0.5112  -14.9838  -45.7120 C.3       5 UNK         0.1400 
     48 CB         -0.5631  -13.9228  -46.8221 C.3       5 UNK        -0.1800 
     49 N           0.8047  -15.6187  -45.7097 N.am      5 UNK        -0.5000 
     50 C           1.1119  -16.7454  -45.0545 C.2       4 UNK         0.5000 
     51 O           0.2868  -17.4355  -44.4632 O.2       4 UNK        -0.5000 
     52 CA          2.5865  -17.1791  -45.0625 C.3       4 UNK         0.1400 
     53 CB          2.8883  -18.0652  -46.2816 C.3       4 UNK        -0.1800 
     54 N           3.5035  -16.0408  -45.0348 N.am      4 UNK        -0.5000 
     55 C           3.6765  -15.2371  -43.9757 C.2       3 UNK         0.5000 
     56 O           3.0885  -15.3810  -42.9038 O.2       3 UNK        -0.5000 
     57 CA          4.6413  -14.0520  -44.1636 C.3       3 UNK         0.1400 
     58 CB          6.0894  -14.4861  -43.8923 C.3       3 UNK        -0.1800 
     59 N           4.5534  -13.4641  -45.5020 N.am      3 UNK        -0.5000 
     60 C           3.4847  -12.7996  -45.9633 C.2       2 UNK         0.5000 
     61 O           2.4725  -12.5857  -45.2956 O.2       2 UNK        -0.5000 
     62 CA          3.5392  -12.3579  -47.4388 C.3       2 UNK         0.1400 
     63 CB          4.3940  -11.0917  -47.5983 C.3       2 UNK        -0.1800 
     64 N           4.0397  -13.4041  -48.3395 N.am      2 UNK        -0.5000 
     65 C           3.4560  -14.6003  -48.5096 C.2       1 UNK         0.5000 
     66 O           2.4543  -14.9504  -47.8907 O.2       1 UNK        -0.5000 
     67 C          -1.7162  -21.2383  -47.1745 C.2       11 UNK         0.5000 
     68 O          -1.5721  -21.8127  -48.2550 O.2       11 UNK        -0.5000 
     69 N          -2.6425  -21.5749  -46.2647 N.am      12 UNK        -0.5000 
     70 CA         -3.6120  -22.6555  -46.4372 C.3       12 UNK         0.1400 
     71 CB         -4.5896  -22.6650  -45.2537 C.3       12 UNK        -0.1800 
     72 C          -2.9554  -24.0366  -46.6206 C.2       12 UNK         0.5000 
     73 O          -3.4004  -24.8028  -47.4739 O.2       12 UNK        -0.5000 
     74 N          -1.9005  -24.3243  -45.8475 N.am      13 UNK        -0.5000 
     75 CA         -1.1194  -25.5552  -45.9570 C.3       13 UNK         0.1400 
     76 CB         -0.1907  -25.6888  -44.7403 C.3       13 UNK        -0.1800 
     77 C          -0.3168  -25.6372  -47.2683 C.2       13 UNK         0.5000 
     78 O          -0.3530  -26.6718  -47.9353 O.2       13 UNK        -0.5000 
     79 N           0.3939  -24.5542  -47.6112 N.am      14 UNK        -0.5000 
     80 CA          1.2836  -24.4815  -48.7697 C.3       14 UNK         0.1400 
     81 CB          2.1739  -23.2331  -48.6609 C.3       14 UNK        -0.1800 
     82 C           0.5402  -24.4867  -50.1143 C.2       14 UNK         0.5000 
     83 O           0.9676  -25.1849  -51.0347 O.2       14 UNK        -0.5000 
     84 N          -0.5410  -23.7029  -50.2093 N.am      15 UNK        -0.5000 
     85 CA         -1.2745  -23.4640  -51.4530 C.3       15 UNK         0.1400 
     86 CB         -1.4253  -21.9503  -51.6550 C.3       15 UNK        -0.1800 
     87 C          -2.6175  -24.2167  -51.5258 C.2       15 UNK         0.5000 
     88 O          -3.4014  -23.9478  -52.4334 O.2       15 UNK        -0.5000 
     89 N          -2.8330  -25.1778  -50.6163 N.am      16 UNK        -0.5000 
     90 CA         -3.9234  -26.1591  -50.6000 C.3       16 UNK         0.1400 
     91 CB         -3.8345  -27.0944  -51.8250 C.3       16 UNK        -0.1800 
     92 C          -5.3252  -25.5406  -50.4155 C.2       16 UNK         0.5000 
     93 O          -6.1974  -25.6938  -51.2739 O.2       16 UNK        -0.5000 
     94 N          -5.5148  -24.8961  -49.2569 N.am      17 UNK        -0.5000 
     95 CA         -6.7758  -24.4311  -48.6708 C.3       17 UNK         0.1400 
     96 CB         -7.5528  -25.6335  -48.0936 C.3       17 UNK        -0.1800 
     97 C          -7.6174  -23.5611  -49.6245 C.2       17 UNK         0.5000 
     98 O          -7.3149  -22.3810  -49.7870 O.2       17 UNK        -0.5000 
     99 N          -8.6472  -24.1483  -50.2489 N.am      18 UNK        -0.5000 
    100 CA        -9.5449  -23.4896  -51.2009 C.3       18 UNK         0.1400 
    101 CB       -10.6762  -24.4610  -51.5706 C.3       18 UNK        -0.1800 
    102 C         -8.8438  -22.9688  -52.4725 C.2       18 UNK         0.5000 
    103 O         -9.3431  -22.0279  -53.0906 O.2       18 UNK        -0.5000 
    104 N         -7.7011  -23.5687  -52.8329 N.am      19 UNK        -0.5000 
    105 CA        -6.8710  -23.1538  -53.9632 C.3       19 UNK         0.1400 
    106 CB        -6.1338  -24.3841  -54.5152 C.3       19 UNK        -0.1800 
    107 C         -5.8870  -22.0166  -53.6148 C.2       19 UNK         0.5000 
    108 O         -5.2297  -21.5031  -54.5230 O.2       19 UNK        -0.5000 
    109 N         -5.7965  -21.6179  -52.3355 N.am      20 UNK        -0.5000 
    110 CA        -4.8925  -20.5780  -51.8386 C.3       20 UNK         0.1400 
    111 CB        -4.6325  -20.7994  -50.3377 C.3       20 UNK        -0.1800 
    112 C         -5.4073  -19.1585  -52.1547 C.2       20 UNK         0.5000 
    113 O         -5.7097  -18.3850  -51.2451 O.2       20 UNK        -0.5000 
    114 N         -5.5123  -18.8551  -53.4530 N.am      21 UNK        -0.5000 
    115 CA        -5.8847  -17.5558  -54.0014 C.3       21 UNK         0.1400 
    116 CB        -6.5187  -17.7694  -55.3900 C.3       21 UNK        -0.1800 
    117 C         -4.6612  -16.6177  -54.0140 C.2       21 UNK         0.5000 
    118 O         -4.3451  -16.0261  -52.9818 O.2       21 UNK        -0.5000 
    119 N         -3.9962  -16.4999  -55.1726 N.am      22 UNK        -0.5000 
    120 CA        -2.8083  -15.6559  -55.4154 C.3       22 UNK         0.1400 
    121 C         -3.0599  -14.1186  -55.2938 C.2       22 UNK         0.5000 
    122 N         -4.2978  -13.6436  -55.3637 N.am      22 UNK        -0.7600 
    123 O         -2.1223  -13.3346  -55.1725 O.2       22 UNK        -0.5000 
    124 C124       -1.5566  -16.1275  -54.6198 C.3       23 UNK        -0.0398 
    125 S125       -0.9670  -17.7751  -55.1463 S.3       23 UNK        -0.2404 
    126 C126       -1.5198  -18.8643  -53.7954 C.3       23 UNK        -0.0205 
    127 H127        6.1991  -17.1598  -47.9863 H         1 UNK         0.0600 
    128 H128        5.8625  -15.6222  -47.1713 H         1 UNK         0.0600 
    129 H129        7.5213  -16.1502  -47.4117 H         1 UNK         0.0600 
    130 H130        5.5112  -14.7652  -50.8090 H         1 UNK         0.3000 
    131 H131        4.1367  -16.5503  -48.9702 H         1 UNK         0.0600 
    132 H132        2.1049  -15.8694  -50.4115 H         1 UNK         0.0800 
    133 H133        3.2044  -14.9524  -51.3912 H         1 UNK         0.0800 
    134 H134        2.8492  -19.5638  -51.1918 H         1 UNK         0.0800 
    135 H135        2.8078  -18.5889  -49.7477 H         1 UNK         0.0800 
    136 H136        1.0952  -19.1130  -53.0443 H         1 UNK         0.1150 
    137 H137       -2.7251  -17.8321  -51.5790 H         1 UNK         0.1150 
    138 H138        0.7242  -17.5922  -49.0509 H         1 UNK         0.1150 
    139 H139       -1.3836  -16.3547  -48.5008 H         1 UNK         0.0800 
    140 H140       -2.7656  -16.4799  -49.5512 H         1 UNK         0.0800 
    141 H141       -0.5409  -17.9689  -47.0214 H         1 UNK         0.0800 
    142 H142       -1.7614  -18.4049  -45.8756 H         1 UNK         0.0800 
    143 H143        0.0772  -20.1476  -47.4953 H         1 UNK         0.0600 
    144 H144       -0.3840  -19.6957  -44.7277 H         1 UNK         0.3000 
    145 H145        1.1890  -22.6535  -43.4620 H         1 UNK         0.0600 
    146 H146        2.4687  -20.9408  -42.2420 H         1 UNK         0.0600 
    147 H147        2.9860  -20.9594  -43.9234 H         1 UNK         0.0600 
    148 H148        1.9159  -19.6868  -43.3450 H         1 UNK         0.0600 
    149 H149       -0.1375  -20.3814  -42.2611 H         1 UNK         0.3000 
    150 H150       -3.3867  -21.8243  -42.1281 H         1 UNK         0.0600 
    151 H151       -2.2415  -23.0392  -40.2648 H         1 UNK         0.0600 
    152 H152       -3.1087  -21.6312  -39.6722 H         1 UNK         0.0600 
    153 H153       -1.3536  -21.5785  -39.8460 H         1 UNK         0.0600 
    154 H154       -2.2640  -19.5203  -40.8747 H         1 UNK         0.3000 
    155 H155       -2.2159  -17.3265  -43.6183 H         1 UNK         0.0600 
    156 H156       -3.9305  -15.9957  -42.4728 H         1 UNK         0.0600 
    157 H157       -4.3792  -17.3688  -41.4601 H         1 UNK         0.0600 
    158 H158       -4.6808  -17.4086  -43.1942 H         1 UNK         0.0600 
    159 H159       -1.9268  -16.2837  -41.2631 H         1 UNK         0.3000 
    160 H160       -0.0879  -16.3824  -39.5984 H         1 UNK         0.0600 
    161 H161        2.3986  -17.4057  -41.0732 H         1 UNK         0.0600 
    162 H162        1.7400  -18.0638  -39.5794 H         1 UNK         0.0600 
    163 H163        2.4047  -16.4369  -39.6013 H         1 UNK         0.0600 
    164 H164        1.3769  -15.3715  -41.9761 H         1 UNK         0.3000 
    165 H165       -0.8288  -12.5429  -42.3153 H         1 UNK         0.0600 
    166 H166        2.1860  -13.0049  -42.0023 H         1 UNK         0.0600 
    167 H167        1.4229  -11.5825  -42.7057 H         1 UNK         0.0600 
    168 H168        1.2002  -11.9480  -41.0011 H         1 UNK         0.0600 
    169 H169        1.0511  -13.6967  -44.1285 H         1 UNK         0.3000 
    170 H170       -1.2605  -15.7468  -45.9318 H         1 UNK         0.0600 
    171 H171       -1.5579  -13.4816  -46.8930 H         1 UNK         0.0600 
    172 H172        0.1434  -13.1129  -46.6388 H         1 UNK         0.0600 
    173 H173       -0.3255  -14.3520  -47.7951 H         1 UNK         0.0600 
    174 H174        1.5237  -15.1715  -46.2713 H         1 UNK         0.3000 
    175 H175        2.7660  -17.7652  -44.1603 H         1 UNK         0.0600 
    176 H176        2.2757  -18.9671  -46.2662 H         1 UNK         0.0600 
    177 H177        2.6821  -17.5502  -47.2193 H         1 UNK         0.0600 
    178 H178        3.9308  -18.3832  -46.2925 H         1 UNK         0.0600 
    179 H179        3.9871  -15.8229  -45.8908 H         1 UNK         0.3000 
    180 H180        4.3722  -13.2844  -43.4347 H         1 UNK         0.0600 
    181 H181        6.4259  -15.2430  -44.6018 H         1 UNK         0.0600 
    182 H182        6.1881  -14.9082  -42.8913 H         1 UNK         0.0600 
    183 H183        6.7731  -13.6392  -43.9549 H         1 UNK         0.0600 
    184 H184        5.3507  -13.5799  -46.1089 H         1 UNK         0.3000 
    185 H185        2.5186  -12.1186  -47.7451 H         1 UNK         0.0600 
    186 H186        4.0361  -10.2943  -46.9455 H         1 UNK         0.0600 
    187 H187        5.4400  -11.2750  -47.3500 H         1 UNK         0.0600 
    188 H188        4.3529  -10.7152  -48.6205 H         1 UNK         0.0600 
    189 H189        4.8618  -13.1855  -48.8838 H         1 UNK         0.3000 
    190 H190       -2.6998  -21.0363  -45.4054 H         1 UNK         0.3000 
    191 H191       -4.1803  -22.4391  -47.3445 H         1 UNK         0.0600 
    192 H192       -5.3510  -23.4354  -45.3823 H         1 UNK         0.0600 
    193 H193       -5.1050  -21.7089  -45.1602 H         1 UNK         0.0600 
    194 H194       -4.0783  -22.8627  -44.3115 H         1 UNK         0.0600 
    195 H195       -1.6267  -23.6722  -45.1193 H         1 UNK         0.3000 
    196 H196       -1.8146  -26.3973  -45.9407 H         1 UNK         0.0600 
    197 H197        0.4023  -26.6023  -44.7987 H         1 UNK         0.0600 
    198 H198       -0.7620  -25.7311  -43.8128 H         1 UNK         0.0600 
    199 H199        0.5023  -24.8502  -44.6673 H         1 UNK         0.0600 
    200 H200        0.3898  -23.7424  -46.9972 H         1 UNK         0.3000 
    201 H201        1.9336  -25.3588  -48.7476 H         1 UNK         0.0600 
    202 H202        2.7830  -23.2613  -47.7574 H         1 UNK         0.0600 
    203 H203        1.5812  -22.3174  -48.6367 H         1 UNK         0.0600 
    204 H204        2.8552  -23.1615  -49.5097 H         1 UNK         0.0600 
    205 H205       -0.8357  -23.1520  -49.4052 H         1 UNK         0.3000 
    206 H206       -0.6938  -23.8298  -52.3020 H         1 UNK         0.0600 
    207 H207       -0.4510  -21.4627  -51.6783 H         1 UNK         0.0600 
    208 H208       -1.9171  -21.7307  -52.6020 H         1 UNK         0.0600 
    209 H209       -2.0025  -21.4899  -50.8562 H         1 UNK         0.0600 
    210 H210       -2.1428  -25.2827  -49.8854 H         1 UNK         0.3000 
    211 H211       -3.7510  -26.7777  -49.7178 H         1 UNK         0.0600 
    212 H212       -4.0012  -26.5611  -52.7609 H         1 UNK         0.0600 
    213 H213       -4.5823  -27.8860  -51.7648 H         1 UNK         0.0600 
    214 H214       -2.8579  -27.5750  -51.8831 H         1 UNK         0.0600 
    215 H215       -4.7056  -24.8227  -48.6403 H         1 UNK         0.3000 
    216 H216       -6.5047  -23.7859  -47.8339 H         1 UNK         0.0600 
    217 H217       -6.9762  -26.1251  -47.3098 H         1 UNK         0.0600 
    218 H218       -8.4957  -25.3165  -47.6457 H         1 UNK         0.0600 
    219 H219       -7.7778  -26.3834  -48.8527 H         1 UNK         0.0600 
    220 H220       -8.8021  -25.1332  -50.0905 H         1 UNK         0.3000 
    221 H221       -9.9855  -22.6268  -50.6973 H         1 UNK         0.0600 
    222 H222      -10.2913  -25.3593  -52.0550 H         1 UNK         0.0600 
    223 H223      -11.2378  -24.7682  -50.6882 H         1 UNK         0.0600 
    224 H224      -11.3835  -23.9946  -52.2579 H         1 UNK         0.0600 
    225 H225       -7.3368  -24.3251  -52.2601 H         1 UNK         0.3000 
    226 H226       -7.5161  -22.7769  -54.7596 H         1 UNK         0.0600 
    227 H227       -5.4900  -24.8376  -53.7629 H         1 UNK         0.0600 
    228 H228       -6.8370  -25.1450  -54.8536 H         1 UNK         0.0600 
    229 H229       -5.5062  -24.1192  -55.3670 H         1 UNK         0.0600 
    230 H230       -6.3968  -22.0492  -51.6421 H         1 UNK         0.3000 
    231 H231       -3.9371  -20.6876  -52.3517 H         1 UNK         0.0600 
    232 H232       -3.8213  -20.1588  -49.9945 H         1 UNK         0.0600 
    233 H233       -4.3435  -21.8296  -50.1274 H         1 UNK         0.0600 
    234 H234       -5.5061  -20.5647  -49.7303 H         1 UNK         0.0600 
    235 H235       -5.2799  -19.5855  -54.1194 H         1 UNK         0.3000 
    236 H236       -6.6391  -17.0966  -53.3590 H         1 UNK         0.0600 
    237 H237       -7.4445  -18.3394  -55.3072 H         1 UNK         0.0600 
    238 H238       -6.7704  -16.8177  -55.8599 H         1 UNK         0.0600 
    239 H239       -5.8600  -18.3157  -56.0662 H         1 UNK         0.0600 
    240 H240       -4.3298  -17.0191  -55.9716 H         1 UNK         0.3000 
    241 H241       -2.5769  -15.7904  -56.4726 H         1 UNK         0.0600 
    242 H242       -5.0816  -14.2650  -55.4801 H         1 UNK         0.3800 
    243 H243       -4.4515  -12.6495  -55.2971 H         1 UNK         0.3800 
    244 H244       -0.7196  -15.4468  -54.7815 H         1 UNK         0.0800 
    245 H245       -1.7456  -16.1067  -53.5471 H         1 UNK         0.0800 
    246 H246       -2.6071  -18.8309  -53.7319 H         1 UNK         0.0800 
    247 H247       -1.2615  -19.8919  -54.0530 H         1 UNK         0.0800 
@<TRIPOS>BOND
     1    1    2 1    
     2    1  127 1    
     3    1  128 1    
     4    1  129 1    
     5    2    3 2    
     6    2    4 am   BACKBONE|DICT|INTERRES
     7    4    5 1    
     8    4  130 1    
     9    5    6 1    
    10    5   65 1    
    11    5  131 1    
    12    6    7 1    
    13    6  132 1    
    14    6  133 1    
    15    7    8 1    
    16    8    9 1    
    17    8  134 1    
    18    8  135 1    
    19    9   10 ar   
    20    9   14 ar   
    21   10   11 ar   
    22   10  136 1    
    23   11   12 ar   
    24   11  126 1    
    25   12   13 ar   
    26   12  137 1    
    27   13   14 ar   
    28   13   15 1    
    29   14  138 1    
    30   15   16 1    
    31   15  139 1    
    32   15  140 1    
    33   16   17 1    
    34   17   18 1    
    35   17  141 1    
    36   17  142 1    
    37   18   19 1    
    38   18   67 1    
    39   18  143 1    
    40   19   20 am   BACKBONE|DICT|INTERRES
    41   19  144 1    
    42   20   21 2    
    43   20   22 1    
    44   22   23 1    
    45   22   24 1    
    46   22  145 1    
    47   23  146 1    
    48   23  147 1    
    49   23  148 1    
    50   24   25 am   BACKBONE|DICT|INTERRES
    51   24  149 1    
    52   25   26 2    
    53   25   27 1    
    54   27   28 1    
    55   27   29 1    
    56   27  150 1    
    57   28  151 1    
    58   28  152 1    
    59   28  153 1    
    60   29   30 am   BACKBONE|DICT|INTERRES
    61   29  154 1    
    62   30   31 2    
    63   30   32 1    
    64   32   33 1    
    65   32   34 1    
    66   32  155 1    
    67   33  156 1    
    68   33  157 1    
    69   33  158 1    
    70   34   35 am   BACKBONE|DICT|INTERRES
    71   34  159 1    
    72   35   36 2    
    73   35   37 1    
    74   37   38 1    
    75   37   39 1    
    76   37  160 1    
    77   38  161 1    
    78   38  162 1    
    79   38  163 1    
    80   39   40 am   BACKBONE|DICT|INTERRES
    81   39  164 1    
    82   40   41 2    
    83   40   42 1    
    84   42   43 1    
    85   42   44 1    
    86   42  165 1    
    87   43  166 1    
    88   43  167 1    
    89   43  168 1    
    90   44   45 am   BACKBONE|DICT|INTERRES
    91   44  169 1    
    92   45   46 2    
    93   45   47 1    
    94   47   48 1    
    95   47   49 1    
    96   47  170 1    
    97   48  171 1    
    98   48  172 1    
    99   48  173 1    
   100   49   50 am   BACKBONE|DICT|INTERRES
   101   49  174 1    
   102   50   51 2    
   103   50   52 1    
   104   52   53 1    
   105   52   54 1    
   106   52  175 1    
   107   53  176 1    
   108   53  177 1    
   109   53  178 1    
   110   54   55 am   BACKBONE|DICT|INTERRES
   111   54  179 1    
   112   55   56 2    
   113   55   57 1    
   114   57   58 1    
   115   57   59 1    
   116   57  180 1    
   117   58  181 1    
   118   58  182 1    
   119   58  183 1    
   120   59   60 am   BACKBONE|DICT|INTERRES
   121   59  184 1    
   122   60   61 2    
   123   60   62 1    
   124   62   63 1    
   125   62   64 1    
   126   62  185 1    
   127   63  186 1    
   128   63  187 1    
   129   63  188 1    
   130   64   65 am   BACKBONE|DICT|INTERRES
   131   64  189 1    
   132   65   66 2    
   133   67   68 2    
   134   67   69 am   BACKBONE|DICT|INTERRES
   135   69   70 1    
   136   69  190 1    
   137   70   71 1    
   138   70   72 1    
   139   70  191 1    
   140   71  192 1    
   141   71  193 1    
   142   71  194 1    
   143   72   73 2    
   144   72   74 am   BACKBONE|DICT|INTERRES
   145   74   75 1    
   146   74  195 1    
   147   75   76 1    
   148   75   77 1    
   149   75  196 1    
   150   76  197 1    
   151   76  198 1    
   152   76  199 1    
   153   77   78 2    
   154   77   79 am   BACKBONE|DICT|INTERRES
   155   79   80 1    
   156   79  200 1    
   157   80   81 1    
   158   80   82 1    
   159   80  201 1    
   160   81  202 1    
   161   81  203 1    
   162   81  204 1    
   163   82   83 2    
   164   82   84 am   BACKBONE|DICT|INTERRES
   165   84   85 1    
   166   84  205 1    
   167   85   86 1    
   168   85   87 1    
   169   85  206 1    
   170   86  207 1    
   171   86  208 1    
   172   86  209 1    
   173   87   88 2    
   174   87   89 am   BACKBONE|DICT|INTERRES
   175   89   90 1    
   176   89  210 1    
   177   90   91 1    
   178   90   92 1    
   179   90  211 1    
   180   91  212 1    
   181   91  213 1    
   182   91  214 1    
   183   92   93 2    
   184   92   94 am   BACKBONE|DICT|INTERRES
   185   94   95 1    
   186   94  215 1    
   187   95   96 1    
   188   95   97 1    
   189   95  216 1    
   190   96  217 1    
   191   96  218 1    
   192   96  219 1    
   193   97   98 2    
   194   97   99 am   BACKBONE|DICT|INTERRES
   195   99  100 1    
   196   99  220 1    
   197  100  101 1    
   198  100  102 1    
   199  100  221 1    
   200  101  222 1    
   201  101  223 1    
   202  101  224 1    
   203  102  103 2    
   204  102  104 am   BACKBONE|DICT|INTERRES
   205  104  105 1    
   206  104  225 1    
   207  105  106 1    
   208  105  107 1    
   209  105  226 1    
   210  106  227 1    
   211  106  228 1    
   212  106  229 1    
   213  107  108 2    
   214  107  109 am   BACKBONE|DICT|INTERRES
   215  109  110 1    
   216  109  230 1    
   217  110  111 1    
   218  110  112 1    
   219  110  231 1    
   220  111  232 1    
   221  111  233 1    
   222  111  234 1    
   223  112  113 2    
   224  112  114 am   BACKBONE|DICT|INTERRES
   225  114  115 1    
   226  114  235 1    
   227  115  116 1    
   228  115  117 1    
   229  115  236 1    
   230  116  237 1    
   231  116  238 1    
   232  116  239 1    
   233  117  118 2    
   234  117  119 am   BACKBONE|DICT|INTERRES
   235  119  120 1    
   236  119  240 1    
   237  120  121 1    
   238  120  124 1    
   239  120  241 1    
   240  121  122 am   BACKBONE|DICT|INTERRES
   241  121  123 2    
   242  122  242 1    
   243  122  243 1    
   244  124  125 1    
   245  124  244 1    
   246  124  245 1    
   247  125  126 1    
   248  126  246 1    
   249  126  247 1    
@<TRIPOS>SUBSTRUCTURE
     1 UNK         1 GROUP             0       ****    0 ROOT    
