@<TRIPOS>MOLECULE
3R540
247   249    1
SMALL
USER_CHARGES


@<TRIPOS>ATOM
      1 CA         -2.2150  -10.8860  -45.2945 C.3       0 UNK        -0.1800 
      2 C          -1.3666  -11.7673  -46.1977 C.2       0 UNK         0.5000 
      3 O          -0.3476  -12.2957  -45.7510 O.2       0 UNK        -0.5000 
      4 N          -1.7597  -11.9170  -47.4709 N.am      1 UNK        -0.5000 
      5 CA         -1.1178  -12.7903  -48.4700 C.3       1 UNK         0.1400 
      6 C6         -1.2956  -14.2911  -48.1048 C.3       23 UNK        -0.0398 
      7 S7         -1.4937  -15.3844  -49.5519 S.3       23 UNK        -0.2404 
      8 C8         -0.0973  -16.5196  -49.3082 C.3       23 UNK        -0.0205 
      9 C9         -0.0740  -17.6312  -50.3441 C.ar      23 UNK        -0.0193 
     10 C10         0.8671  -17.6142  -51.3770 C.ar      23 UNK        -0.1150 
     11 C11         0.9194  -18.6521  -52.3147 C.ar      23 UNK        -0.0193 
     12 C12         0.0165  -19.7150  -52.2040 C.ar      23 UNK        -0.1150 
     13 C13        -0.9247  -19.7485  -51.1697 C.ar      23 UNK        -0.0193 
     14 C14        -0.9679  -18.7008  -50.2457 C.ar      23 UNK        -0.1150 
     15 C15        -1.9013  -20.9110  -51.0569 C.3       23 UNK        -0.0205 
     16 S16        -1.1856  -22.3508  -50.2097 S.3       23 UNK        -0.2404 
     17 C17        -1.0086  -21.7241  -48.5079 C.3       23 UNK        -0.0398 
     18 CA         -0.7621  -22.8638  -47.4910 C.3       11 UNK         0.1400 
     19 N          -0.0051  -22.4058  -46.3230 N.am      11 UNK        -0.5000 
     20 C           0.5522  -23.2153  -45.4119 C.2       10 UNK         0.5000 
     21 O           0.4856  -24.4426  -45.4633 O.2       10 UNK        -0.5000 
     22 CA          1.2549  -22.5454  -44.2171 C.3       10 UNK         0.1400 
     23 CB          2.6320  -21.9975  -44.6193 C.3       10 UNK        -0.1800 
     24 N           0.4456  -21.4786  -43.6278 N.am      10 UNK        -0.5000 
     25 C          -0.7350  -21.6791  -43.0240 C.2       9 UNK         0.5000 
     26 O          -1.2266  -22.7933  -42.8401 O.2       9 UNK        -0.5000 
     27 CA         -1.5203  -20.4237  -42.5997 C.3       9 UNK         0.1400 
     28 CB         -1.0212  -19.8960  -41.2466 C.3       9 UNK        -0.1800 
     29 N          -1.4559  -19.3531  -43.5959 N.am      9 UNK        -0.5000 
     30 C          -1.9373  -19.4440  -44.8441 C.2       8 UNK         0.5000 
     31 O          -2.5337  -20.4258  -45.2799 O.2       8 UNK        -0.5000 
     32 CA         -1.6463  -18.2678  -45.7883 C.3       8 UNK         0.1400 
     33 CB         -2.6131  -17.1033  -45.5338 C.3       8 UNK        -0.1800 
     34 N          -0.2598  -17.8136  -45.6765 N.am      8 UNK        -0.5000 
     35 C           0.7994  -18.5475  -46.0503 C.2       7 UNK         0.5000 
     36 O           0.7088  -19.6604  -46.5627 O.2       7 UNK        -0.5000 
     37 CA          2.1923  -17.9561  -45.7793 C.3       7 UNK         0.1400 
     38 CB          2.6507  -17.1031  -46.9699 C.3       7 UNK        -0.1800 
     39 N           2.2271  -17.1631  -44.5496 N.am      7 UNK        -0.5000 
     40 C           2.1007  -17.6858  -43.3210 C.2       6 UNK         0.5000 
     41 O           1.9917  -18.8924  -43.0984 O.2       6 UNK        -0.5000 
     42 CA          2.0146  -16.6809  -42.1595 C.3       6 UNK         0.1400 
     43 CB          3.4117  -16.1829  -41.7616 C.3       6 UNK        -0.1800 
     44 N           1.1475  -15.5425  -42.4819 N.am      6 UNK        -0.5000 
     45 C          -0.1826  -15.6422  -42.6331 C.2       5 UNK         0.5000 
     46 O          -0.7817  -16.7133  -42.5308 O.2       5 UNK        -0.5000 
     47 CA         -0.9877  -14.3827  -43.0195 C.3       5 UNK         0.1400 
     48 CB         -2.2492  -14.2087  -42.1505 C.3       5 UNK        -0.1800 
     49 N          -0.2095  -13.1438  -43.0882 N.am      5 UNK        -0.5000 
     50 C           0.3617  -12.4500  -42.0942 C.2       4 UNK         0.5000 
     51 O           0.2822  -12.7598  -40.9046 O.2       4 UNK        -0.5000 
     52 CA          1.1902  -11.2167  -42.5290 C.3       4 UNK         0.1400 
     53 CB          2.1764  -10.7510  -41.4380 C.3       4 UNK        -0.1800 
     54 N           1.8999  -11.3978  -43.8068 N.am      4 UNK        -0.5000 
     55 C           2.7520  -12.3882  -44.1159 C.2       3 UNK         0.5000 
     56 O           3.0239  -13.3091  -43.3446 O.2       3 UNK        -0.5000 
     57 CA          3.3809  -12.3706  -45.5210 C.3       3 UNK         0.1400 
     58 CB          3.6915  -13.7894  -46.0315 C.3       3 UNK        -0.1800 
     59 N           2.5393  -11.6805  -46.5020 N.am      3 UNK        -0.5000 
     60 C           3.0142  -11.0324  -47.5769 C.2       2 UNK         0.5000 
     61 O           4.2180  -10.8611  -47.7791 O.2       2 UNK        -0.5000 
     62 CA          1.9917  -10.4721  -48.5945 C.3       2 UNK         0.1400 
     63 CB          2.5312  -10.4763  -50.0405 C.3       2 UNK        -0.1800 
     64 N           0.6699  -11.1063  -48.5329 N.am      2 UNK        -0.5000 
     65 C           0.3542  -12.3925  -48.7611 C.2       1 UNK         0.5000 
     66 O           1.1645  -13.2371  -49.1421 O.2       1 UNK        -0.5000 
     67 C          -2.0695  -23.5868  -47.1013 C.2       11 UNK         0.5000 
     68 O          -2.4374  -24.5618  -47.7573 O.2       11 UNK        -0.5000 
     69 N          -2.7293  -23.1355  -46.0246 N.am      12 UNK        -0.5000 
     70 CA         -3.9051  -23.7763  -45.4326 C.3       12 UNK         0.1400 
     71 CB         -4.4972  -22.8835  -44.3330 C.3       12 UNK        -0.1800 
     72 C          -3.6127  -25.1887  -44.8989 C.2       12 UNK         0.5000 
     73 O          -4.4478  -26.0784  -45.0575 O.2       12 UNK        -0.5000 
     74 N          -2.4264  -25.3810  -44.3098 N.am      13 UNK        -0.5000 
     75 CA         -1.9450  -26.6869  -43.8662 C.3       13 UNK         0.1400 
     76 CB         -0.8030  -26.4943  -42.8562 C.3       13 UNK        -0.1800 
     77 C          -1.4972  -27.5716  -45.0452 C.2       13 UNK         0.5000 
     78 O          -1.8214  -28.7594  -45.0701 O.2       13 UNK        -0.5000 
     79 N          -0.7482  -26.9838  -45.9874 N.am      14 UNK        -0.5000 
     80 CA         -0.1044  -27.6944  -47.0910 C.3       14 UNK         0.1400 
     81 CB          1.0402  -26.8324  -47.6462 C.3       14 UNK        -0.1800 
     82 C          -1.0569  -28.1036  -48.2282 C.2       14 UNK         0.5000 
     83 O          -0.9134  -29.2077  -48.7562 O.2       14 UNK        -0.5000 
     84 N          -1.9726  -27.2085  -48.6202 N.am      15 UNK        -0.5000 
     85 CA         -2.7581  -27.3292  -49.8520 C.3       15 UNK         0.1400 
     86 CB         -1.9678  -26.6947  -51.0142 C.3       15 UNK        -0.1800 
     87 C          -4.1689  -26.7292  -49.7173 C.2       15 UNK         0.5000 
     88 O          -4.7549  -26.3255  -50.7240 O.2       15 UNK        -0.5000 
     89 N          -4.6875  -26.6466  -48.4815 N.am      16 UNK        -0.5000 
     90 CA         -6.0158  -26.1281  -48.1130 C.3       16 UNK         0.1400 
     91 CB         -7.1206  -27.0584  -48.6565 C.3       16 UNK        -0.1800 
     92 C          -6.2609  -24.6516  -48.5046 C.2       16 UNK         0.5000 
     93 O          -7.4121  -24.2144  -48.5335 O.2       16 UNK        -0.5000 
     94 N          -5.1782  -23.9182  -48.8101 N.am      17 UNK        -0.5000 
     95 CA         -5.1386  -22.5589  -49.3562 C.3       17 UNK         0.1400 
     96 CB         -5.5457  -21.5234  -48.2887 C.3       17 UNK        -0.1800 
     97 C          -5.9191  -22.4130  -50.6823 C.2       17 UNK         0.5000 
     98 O          -6.4936  -21.3565  -50.9477 O.2       17 UNK        -0.5000 
     99 N          -5.9306  -23.4829  -51.4934 N.am      18 UNK        -0.5000 
    100 CA        -6.7102  -23.5933  -52.7302 C.3       18 UNK         0.1400 
    101 CB        -6.6459  -25.0452  -53.2274 C.3       18 UNK        -0.1800 
    102 C         -6.2797  -22.6214  -53.8470 C.2       18 UNK         0.5000 
    103 O         -7.0989  -22.2858  -54.7033 O.2       18 UNK        -0.5000 
    104 N         -5.0163  -22.1840  -53.8125 N.am      19 UNK        -0.5000 
    105 CA        -4.4222  -21.2265  -54.7420 C.3       19 UNK         0.1400 
    106 CB        -3.3122  -21.9309  -55.5444 C.3       19 UNK        -0.1800 
    107 C         -3.9085  -20.0083  -53.9580 C.2       19 UNK         0.5000 
    108 O         -2.7323  -19.6616  -54.0641 O.2       19 UNK        -0.5000 
    109 N         -4.7868  -19.4062  -53.1419 N.am      20 UNK        -0.5000 
    110 CA        -4.5120  -18.2226  -52.3195 C.3       20 UNK         0.1400 
    111 CB        -5.7908  -17.8167  -51.5730 C.3       20 UNK        -0.1800 
    112 C         -3.9621  -17.0371  -53.1377 C.2       20 UNK         0.5000 
    113 O         -4.3872  -16.8288  -54.2778 O.2       20 UNK        -0.5000 
    114 N         -2.9942  -16.3161  -52.5522 N.am      21 UNK        -0.5000 
    115 CA        -2.1874  -15.2573  -53.1789 C.3       21 UNK         0.1400 
    116 CB        -3.0504  -14.0155  -53.4828 C.3       21 UNK        -0.1800 
    117 C         -1.3830  -15.7508  -54.4032 C.2       21 UNK         0.5000 
    118 O         -1.0681  -14.9628  -55.2966 O.2       21 UNK        -0.5000 
    119 N         -1.0811  -17.0552  -54.4142 N.am      22 UNK        -0.5000 
    120 CA        -0.4206  -17.8124  -55.4854 C.3       22 UNK         0.1400 
    121 C         -1.2787  -17.9743  -56.7789 C.2       22 UNK         0.5000 
    122 N         -2.5826  -17.7183  -56.7514 N.am      22 UNK        -0.7600 
    123 O         -0.7622  -18.3613  -57.8240 O.2       22 UNK        -0.5000 
    124 C124        1.0298  -17.3364  -55.7829 C.3       23 UNK        -0.0398 
    125 S125        2.1081  -17.0846  -54.3247 S.3       23 UNK        -0.2404 
    126 C126        1.9863  -18.6600  -53.4077 C.3       23 UNK        -0.0205 
    127 H127       -3.0711  -10.4679  -45.8241 H         1 UNK         0.0600 
    128 H128       -1.6166  -10.0618  -44.9066 H         1 UNK         0.0600 
    129 H129       -2.5858  -11.4660  -44.4495 H         1 UNK         0.0600 
    130 H130       -2.5930  -11.4394  -47.7868 H         1 UNK         0.3000 
    131 H131       -1.6601  -12.6008  -49.3976 H         1 UNK         0.0600 
    132 H132       -2.2106  -14.4128  -47.5252 H         1 UNK         0.0800 
    133 H133       -0.4919  -14.6401  -47.4537 H         1 UNK         0.0800 
    134 H134       -0.1698  -16.9621  -48.3166 H         1 UNK         0.0800 
    135 H135        0.8350  -15.9536  -49.3327 H         1 UNK         0.0800 
    136 H136        1.5711  -16.7968  -51.4452 H         1 UNK         0.1150 
    137 H137        0.0495  -20.5274  -52.9164 H         1 UNK         0.1150 
    138 H138       -1.6897  -18.7204  -49.4415 H         1 UNK         0.1150 
    139 H139       -2.8160  -20.5958  -50.5539 H         1 UNK         0.0800 
    140 H140       -2.1945  -21.2368  -52.0531 H         1 UNK         0.0800 
    141 H141       -1.8710  -21.1160  -48.2282 H         1 UNK         0.0800 
    142 H142       -0.1534  -21.0486  -48.5273 H         1 UNK         0.0800 
    143 H143       -0.1277  -23.6079  -47.9767 H         1 UNK         0.0600 
    144 H144        0.1304  -21.4012  -46.2379 H         1 UNK         0.3000 
    145 H145        1.4078  -23.3092  -43.4517 H         1 UNK         0.0600 
    146 H146        3.1467  -21.5586  -43.7643 H         1 UNK         0.0600 
    147 H147        2.5554  -21.2327  -45.3914 H         1 UNK         0.0600 
    148 H148        3.2677  -22.7933  -45.0094 H         1 UNK         0.0600 
    149 H149        0.8080  -20.5340  -43.6934 H         1 UNK         0.3000 
    150 H150       -2.5679  -20.7101  -42.4874 H         1 UNK         0.0600 
    151 H151       -1.0805  -20.6690  -40.4795 H         1 UNK         0.0600 
    152 H152       -1.6230  -19.0527  -40.9073 H         1 UNK         0.0600 
    153 H153        0.0160  -19.5640  -41.3006 H         1 UNK         0.0600 
    154 H154       -1.0195  -18.4848  -43.2996 H         1 UNK         0.3000 
    155 H155       -1.8028  -18.6154  -46.8119 H         1 UNK         0.0600 
    156 H156       -2.5480  -16.7307  -44.5123 H         1 UNK         0.0600 
    157 H157       -3.6448  -17.4162  -45.6988 H         1 UNK         0.0600 
    158 H158       -2.4160  -16.2739  -46.2093 H         1 UNK         0.0600 
    159 H159       -0.0996  -16.9289  -45.2221 H         1 UNK         0.3000 
    160 H160        2.8924  -18.7866  -45.6687 H         1 UNK         0.0600 
    161 H161        1.9845  -16.2579  -47.1407 H         1 UNK         0.0600 
    162 H162        2.6675  -17.6937  -47.8872 H         1 UNK         0.0600 
    163 H163        3.6585  -16.7175  -46.8159 H         1 UNK         0.0600 
    164 H164        2.3186  -16.1624  -44.6419 H         1 UNK         0.3000 
    165 H165        1.5849  -17.1997  -41.2998 H         1 UNK         0.0600 
    166 H166        3.3571  -15.4678  -40.9405 H         1 UNK         0.0600 
    167 H167        4.0392  -17.0116  -41.4316 H         1 UNK         0.0600 
    168 H168        3.9229  -15.6986  -42.5941 H         1 UNK         0.0600 
    169 H169        1.6002  -14.6434  -42.6079 H         1 UNK         0.3000 
    170 H170       -1.3260  -14.5582  -44.0414 H         1 UNK         0.0600 
    171 H171       -2.9085  -15.0727  -42.2414 H         1 UNK         0.0600 
    172 H172       -2.0037  -14.0993  -41.0941 H         1 UNK         0.0600 
    173 H173       -2.8214  -13.3329  -42.4564 H         1 UNK         0.0600 
    174 H174       -0.0749  -12.7902  -44.0340 H         1 UNK         0.3000 
    175 H175        0.4698  -10.4133  -42.6891 H         1 UNK         0.0600 
    176 H176        2.9014  -11.5276  -41.1920 H         1 UNK         0.0600 
    177 H177        2.7280   -9.8667  -41.7569 H         1 UNK         0.0600 
    178 H178        1.6513  -10.4892  -40.5186 H         1 UNK         0.0600 
    179 H179        1.7218  -10.6953  -44.5100 H         1 UNK         0.3000 
    180 H180        4.3239  -11.8319  -45.4101 H         1 UNK         0.0600 
    181 H181        4.1731  -13.7668  -47.0091 H         1 UNK         0.0600 
    182 H182        2.7744  -14.3685  -46.1234 H         1 UNK         0.0600 
    183 H183        4.3602  -14.3236  -45.3554 H         1 UNK         0.0600 
    184 H184        1.5374  -11.8085  -46.3992 H         1 UNK         0.3000 
    185 H185        1.8355   -9.4309  -48.3095 H         1 UNK         0.0600 
    186 H186        2.7902  -11.4817  -50.3734 H         1 UNK         0.0600 
    187 H187        1.7971  -10.0708  -50.7367 H         1 UNK         0.0600 
    188 H188        3.4290   -9.8633  -50.1268 H         1 UNK         0.0600 
    189 H189       -0.0779  -10.5069  -48.2128 H         1 UNK         0.3000 
    190 H190       -2.4208  -22.2704  -45.5880 H         1 UNK         0.3000 
    191 H191       -4.6600  -23.8739  -46.2096 H         1 UNK         0.0600 
    192 H192       -4.7902  -21.9115  -44.7299 H         1 UNK         0.0600 
    193 H193       -3.7892  -22.7154  -43.5226 H         1 UNK         0.0600 
    194 H194       -5.3890  -23.3381  -43.8999 H         1 UNK         0.0600 
    195 H195       -1.8008  -24.5932  -44.1949 H         1 UNK         0.3000 
    196 H196       -2.7600  -27.2015  -43.3525 H         1 UNK         0.0600 
    197 H197       -1.1343  -25.9142  -41.9946 H         1 UNK         0.0600 
    198 H198        0.0483  -25.9760  -43.2979 H         1 UNK         0.0600 
    199 H199       -0.4452  -27.4552  -42.4845 H         1 UNK         0.0600 
    200 H200       -0.4815  -26.0108  -45.8592 H         1 UNK         0.3000 
    201 H201        0.3377  -28.6090  -46.6898 H         1 UNK         0.0600 
    202 H202        1.7732  -26.6038  -46.8724 H         1 UNK         0.0600 
    203 H203        0.6730  -25.8881  -48.0488 H         1 UNK         0.0600 
    204 H204        1.5662  -27.3495  -48.4498 H         1 UNK         0.0600 
    205 H205       -2.0341  -26.3087  -48.1465 H         1 UNK         0.3000 
    206 H206       -2.9161  -28.3844  -50.0832 H         1 UNK         0.0600 
    207 H207       -1.8109  -25.6275  -50.8509 H         1 UNK         0.0600 
    208 H208       -0.9901  -27.1623  -51.1309 H         1 UNK         0.0600 
    209 H209       -2.4926  -26.8107  -51.9632 H         1 UNK         0.0600 
    210 H210       -4.1201  -26.9738  -47.7115 H         1 UNK         0.3000 
    211 H211       -6.0738  -26.1624  -47.0262 H         1 UNK         0.0600 
    212 H212       -7.1852  -27.0188  -49.7444 H         1 UNK         0.0600 
    213 H213       -8.0985  -26.7799  -48.2621 H         1 UNK         0.0600 
    214 H214       -6.9412  -28.0941  -48.3681 H         1 UNK         0.0600 
    215 H215       -4.2755  -24.3710  -48.7127 H         1 UNK         0.3000 
    216 H216       -4.0954  -22.3739  -49.6050 H         1 UNK         0.0600 
    217 H217       -5.4205  -20.5059  -48.6608 H         1 UNK         0.0600 
    218 H218       -4.9287  -21.6141  -47.3951 H         1 UNK         0.0600 
    219 H219       -6.5883  -21.6381  -47.9915 H         1 UNK         0.0600 
    220 H220       -5.4526  -24.3255  -51.1921 H         1 UNK         0.3000 
    221 H221       -7.7494  -23.3641  -52.4859 H         1 UNK         0.0600 
    222 H222       -5.6222  -25.3467  -53.4533 H         1 UNK         0.0600 
    223 H223       -7.0395  -25.7351  -52.4804 H         1 UNK         0.0600 
    224 H224       -7.2368  -25.1772  -54.1347 H         1 UNK         0.0600 
    225 H225       -4.4274  -22.4980  -53.0550 H         1 UNK         0.3000 
    226 H226       -5.1657  -20.8527  -55.4487 H         1 UNK         0.0600 
    227 H227       -3.7102  -22.7747  -56.1082 H         1 UNK         0.0600 
    228 H228       -2.8546  -21.2479  -56.2615 H         1 UNK         0.0600 
    229 H229       -2.5206  -22.3055  -54.8941 H         1 UNK         0.0600 
    230 H230       -5.7240  -19.7787  -53.0885 H         1 UNK         0.3000 
    231 H231       -3.7610  -18.5096  -51.5819 H         1 UNK         0.0600 
    232 H232       -5.6156  -16.9450  -50.9411 H         1 UNK         0.0600 
    233 H233       -6.1423  -18.6196  -50.9249 H         1 UNK         0.0600 
    234 H234       -6.5959  -17.5653  -52.2646 H         1 UNK         0.0600 
    235 H235       -2.7126  -16.5569  -51.6111 H         1 UNK         0.3000 
    236 H236       -1.4396  -14.9622  -52.4427 H         1 UNK         0.0600 
    237 H237       -3.7778  -14.2095  -54.2713 H         1 UNK         0.0600 
    238 H238       -3.5938  -13.6883  -52.5964 H         1 UNK         0.0600 
    239 H239       -2.4312  -13.1792  -53.8088 H         1 UNK         0.0600 
    240 H240       -1.4139  -17.6261  -53.6494 H         1 UNK         0.3000 
    241 H241       -0.3452  -18.8281  -55.0988 H         1 UNK         0.0600 
    242 H242       -3.1278  -17.8293  -57.5909 H         1 UNK         0.3800 
    243 H243       -3.0322  -17.4263  -55.8924 H         1 UNK         0.3800 
    244 H244        1.0055  -16.3966  -56.3362 H         1 UNK         0.0800 
    245 H245        1.5287  -18.0524  -56.4379 H         1 UNK         0.0800 
    246 H246        2.9490  -18.8523  -52.9328 H         1 UNK         0.0800 
    247 H247        1.8275  -19.4796  -54.1099 H         1 UNK         0.0800 
@<TRIPOS>BOND
     1    1    2 1    
     2    1  127 1    
     3    1  128 1    
     4    1  129 1    
     5    2    3 2    
     6    2    4 am   BACKBONE|DICT|INTERRES
     7    4    5 1    
     8    4  130 1    
     9    5    6 1    
    10    5   65 1    
    11    5  131 1    
    12    6    7 1    
    13    6  132 1    
    14    6  133 1    
    15    7    8 1    
    16    8    9 1    
    17    8  134 1    
    18    8  135 1    
    19    9   10 ar   
    20    9   14 ar   
    21   10   11 ar   
    22   10  136 1    
    23   11   12 ar   
    24   11  126 1    
    25   12   13 ar   
    26   12  137 1    
    27   13   14 ar   
    28   13   15 1    
    29   14  138 1    
    30   15   16 1    
    31   15  139 1    
    32   15  140 1    
    33   16   17 1    
    34   17   18 1    
    35   17  141 1    
    36   17  142 1    
    37   18   19 1    
    38   18   67 1    
    39   18  143 1    
    40   19   20 am   BACKBONE|DICT|INTERRES
    41   19  144 1    
    42   20   21 2    
    43   20   22 1    
    44   22   23 1    
    45   22   24 1    
    46   22  145 1    
    47   23  146 1    
    48   23  147 1    
    49   23  148 1    
    50   24   25 am   BACKBONE|DICT|INTERRES
    51   24  149 1    
    52   25   26 2    
    53   25   27 1    
    54   27   28 1    
    55   27   29 1    
    56   27  150 1    
    57   28  151 1    
    58   28  152 1    
    59   28  153 1    
    60   29   30 am   BACKBONE|DICT|INTERRES
    61   29  154 1    
    62   30   31 2    
    63   30   32 1    
    64   32   33 1    
    65   32   34 1    
    66   32  155 1    
    67   33  156 1    
    68   33  157 1    
    69   33  158 1    
    70   34   35 am   BACKBONE|DICT|INTERRES
    71   34  159 1    
    72   35   36 2    
    73   35   37 1    
    74   37   38 1    
    75   37   39 1    
    76   37  160 1    
    77   38  161 1    
    78   38  162 1    
    79   38  163 1    
    80   39   40 am   BACKBONE|DICT|INTERRES
    81   39  164 1    
    82   40   41 2    
    83   40   42 1    
    84   42   43 1    
    85   42   44 1    
    86   42  165 1    
    87   43  166 1    
    88   43  167 1    
    89   43  168 1    
    90   44   45 am   BACKBONE|DICT|INTERRES
    91   44  169 1    
    92   45   46 2    
    93   45   47 1    
    94   47   48 1    
    95   47   49 1    
    96   47  170 1    
    97   48  171 1    
    98   48  172 1    
    99   48  173 1    
   100   49   50 am   BACKBONE|DICT|INTERRES
   101   49  174 1    
   102   50   51 2    
   103   50   52 1    
   104   52   53 1    
   105   52   54 1    
   106   52  175 1    
   107   53  176 1    
   108   53  177 1    
   109   53  178 1    
   110   54   55 am   BACKBONE|DICT|INTERRES
   111   54  179 1    
   112   55   56 2    
   113   55   57 1    
   114   57   58 1    
   115   57   59 1    
   116   57  180 1    
   117   58  181 1    
   118   58  182 1    
   119   58  183 1    
   120   59   60 am   BACKBONE|DICT|INTERRES
   121   59  184 1    
   122   60   61 2    
   123   60   62 1    
   124   62   63 1    
   125   62   64 1    
   126   62  185 1    
   127   63  186 1    
   128   63  187 1    
   129   63  188 1    
   130   64   65 am   BACKBONE|DICT|INTERRES
   131   64  189 1    
   132   65   66 2    
   133   67   68 2    
   134   67   69 am   BACKBONE|DICT|INTERRES
   135   69   70 1    
   136   69  190 1    
   137   70   71 1    
   138   70   72 1    
   139   70  191 1    
   140   71  192 1    
   141   71  193 1    
   142   71  194 1    
   143   72   73 2    
   144   72   74 am   BACKBONE|DICT|INTERRES
   145   74   75 1    
   146   74  195 1    
   147   75   76 1    
   148   75   77 1    
   149   75  196 1    
   150   76  197 1    
   151   76  198 1    
   152   76  199 1    
   153   77   78 2    
   154   77   79 am   BACKBONE|DICT|INTERRES
   155   79   80 1    
   156   79  200 1    
   157   80   81 1    
   158   80   82 1    
   159   80  201 1    
   160   81  202 1    
   161   81  203 1    
   162   81  204 1    
   163   82   83 2    
   164   82   84 am   BACKBONE|DICT|INTERRES
   165   84   85 1    
   166   84  205 1    
   167   85   86 1    
   168   85   87 1    
   169   85  206 1    
   170   86  207 1    
   171   86  208 1    
   172   86  209 1    
   173   87   88 2    
   174   87   89 am   BACKBONE|DICT|INTERRES
   175   89   90 1    
   176   89  210 1    
   177   90   91 1    
   178   90   92 1    
   179   90  211 1    
   180   91  212 1    
   181   91  213 1    
   182   91  214 1    
   183   92   93 2    
   184   92   94 am   BACKBONE|DICT|INTERRES
   185   94   95 1    
   186   94  215 1    
   187   95   96 1    
   188   95   97 1    
   189   95  216 1    
   190   96  217 1    
   191   96  218 1    
   192   96  219 1    
   193   97   98 2    
   194   97   99 am   BACKBONE|DICT|INTERRES
   195   99  100 1    
   196   99  220 1    
   197  100  101 1    
   198  100  102 1    
   199  100  221 1    
   200  101  222 1    
   201  101  223 1    
   202  101  224 1    
   203  102  103 2    
   204  102  104 am   BACKBONE|DICT|INTERRES
   205  104  105 1    
   206  104  225 1    
   207  105  106 1    
   208  105  107 1    
   209  105  226 1    
   210  106  227 1    
   211  106  228 1    
   212  106  229 1    
   213  107  108 2    
   214  107  109 am   BACKBONE|DICT|INTERRES
   215  109  110 1    
   216  109  230 1    
   217  110  111 1    
   218  110  112 1    
   219  110  231 1    
   220  111  232 1    
   221  111  233 1    
   222  111  234 1    
   223  112  113 2    
   224  112  114 am   BACKBONE|DICT|INTERRES
   225  114  115 1    
   226  114  235 1    
   227  115  116 1    
   228  115  117 1    
   229  115  236 1    
   230  116  237 1    
   231  116  238 1    
   232  116  239 1    
   233  117  118 2    
   234  117  119 am   BACKBONE|DICT|INTERRES
   235  119  120 1    
   236  119  240 1    
   237  120  121 1    
   238  120  124 1    
   239  120  241 1    
   240  121  122 am   BACKBONE|DICT|INTERRES
   241  121  123 2    
   242  122  242 1    
   243  122  243 1    
   244  124  125 1    
   245  124  244 1    
   246  124  245 1    
   247  125  126 1    
   248  126  246 1    
   249  126  247 1    
@<TRIPOS>SUBSTRUCTURE
     1 UNK         1 GROUP             0       ****    0 ROOT    
