@<TRIPOS>MOLECULE
3R540
247   249    1
SMALL
USER_CHARGES


@<TRIPOS>ATOM
      1 CA         -0.0644   -7.1370  -47.7355 C.3       0 UNK        -0.1800 
      2 C           0.6162   -8.3098  -48.4277 C.2       0 UNK         0.5000 
      3 O           1.3345   -8.1095  -49.4078 O.2       0 UNK        -0.5000 
      4 N           0.3868   -9.5306  -47.9283 N.am      1 UNK        -0.5000 
      5 CA          1.0100  -10.7653  -48.4145 C.3       1 UNK         0.1400 
      6 C6          0.2370  -12.0118  -47.9165 C.3       23 UNK        -0.0398 
      7 S7          0.4370  -13.4471  -49.0234 S.3       23 UNK        -0.2404 
      8 C8          0.0034  -14.7909  -47.8817 C.3       23 UNK        -0.0205 
      9 C9         -0.0431  -16.1329  -48.5925 C.ar      23 UNK        -0.0193 
     10 C10        -1.2470  -16.6100  -49.1194 C.ar      23 UNK        -0.1150 
     11 C11        -1.3027  -17.8423  -49.7785 C.ar      23 UNK        -0.0193 
     12 C12        -0.1306  -18.6004  -49.8928 C.ar      23 UNK        -0.1150 
     13 C13         1.0807  -18.1368  -49.3704 C.ar      23 UNK        -0.0193 
     14 C14         1.1169  -16.9006  -48.7199 C.ar      23 UNK        -0.1150 
     15 C15         2.3567  -18.9598  -49.5138 C.3       23 UNK        -0.0205 
     16 S16         2.1505  -20.7110  -49.0472 S.3       23 UNK        -0.2404 
     17 C17         1.6257  -20.5524  -47.3086 C.3       23 UNK        -0.0398 
     18 CA          0.7851  -21.7493  -46.8108 C.3       11 UNK         0.1400 
     19 N           0.6994  -21.7508  -45.3509 N.am      11 UNK        -0.5000 
     20 C           0.2505  -22.7671  -44.6056 C.2       10 UNK         0.5000 
     21 O          -0.1251  -23.8415  -45.0729 O.2       10 UNK        -0.5000 
     22 CA          0.1727  -22.5259  -43.0868 C.3       10 UNK         0.1400 
     23 CB          1.5535  -22.6918  -42.4351 C.3       10 UNK        -0.1800 
     24 N          -0.3742  -21.2096  -42.7515 N.am      10 UNK        -0.5000 
     25 C          -1.6231  -20.8168  -43.0414 C.2       9 UNK         0.5000 
     26 O          -2.4544  -21.5367  -43.5935 O.2       9 UNK        -0.5000 
     27 CA         -1.9961  -19.3638  -42.6994 C.3       9 UNK         0.1400 
     28 CB         -2.2921  -19.2124  -41.2000 C.3       9 UNK        -0.1800 
     29 N          -0.9676  -18.4044  -43.1021 N.am      9 UNK        -0.5000 
     30 C          -0.5746  -18.2006  -44.3685 C.2       8 UNK         0.5000 
     31 O          -1.0530  -18.7839  -45.3389 O.2       8 UNK        -0.5000 
     32 CA          0.5869  -17.2187  -44.5836 C.3       8 UNK         0.1400 
     33 CB          0.1047  -15.7686  -44.4228 C.3       8 UNK        -0.1800 
     34 N           1.6949  -17.4674  -43.6656 N.am      8 UNK        -0.5000 
     35 C           2.3900  -18.6077  -43.5665 C.2       7 UNK         0.5000 
     36 O           2.2135  -19.5855  -44.2901 O.2       7 UNK        -0.5000 
     37 CA          3.4161  -18.6873  -42.4251 C.3       7 UNK         0.1400 
     38 CB          4.7215  -17.9687  -42.7991 C.3       7 UNK        -0.1800 
     39 N           2.8876  -18.1335  -41.1789 N.am      7 UNK        -0.5000 
     40 C           1.9038  -18.6892  -40.4583 C.2       6 UNK         0.5000 
     41 O           1.3500  -19.7480  -40.7562 O.2       6 UNK        -0.5000 
     42 CA          1.4444  -17.9118  -39.2112 C.3       6 UNK         0.1400 
     43 CB          2.3773  -18.1914  -38.0234 C.3       6 UNK        -0.1800 
     44 N           1.3713  -16.4675  -39.4428 N.am      6 UNK        -0.5000 
     45 C           0.4621  -15.8814  -40.2336 C.2       5 UNK         0.5000 
     46 O          -0.4152  -16.4981  -40.8387 O.2       5 UNK        -0.5000 
     47 CA          0.5797  -14.3543  -40.4146 C.3       5 UNK         0.1400 
     48 CB         -0.0642  -13.6195  -39.2292 C.3       5 UNK        -0.1800 
     49 N           1.9494  -13.8589  -40.6097 N.am      5 UNK        -0.5000 
     50 C           2.7898  -14.2916  -41.5585 C.2       4 UNK         0.5000 
     51 O           2.5494  -15.2527  -42.2883 O.2       4 UNK        -0.5000 
     52 CA          4.1360  -13.5590  -41.7076 C.3       4 UNK         0.1400 
     53 CB          5.1464  -14.0894  -40.6787 C.3       4 UNK        -0.1800 
     54 N           4.6847  -13.7588  -43.0521 N.am      4 UNK        -0.5000 
     55 C           4.1635  -13.2334  -44.1680 C.2       3 UNK         0.5000 
     56 O           3.2797  -12.3720  -44.1770 O.2       3 UNK        -0.5000 
     57 CA          4.6930  -13.7966  -45.4938 C.3       3 UNK         0.1400 
     58 CB          3.9618  -15.1034  -45.8611 C.3       3 UNK        -0.1800 
     59 N           4.4988  -12.8030  -46.5440 N.am      3 UNK        -0.5000 
     60 C           5.1314  -12.7710  -47.7207 C.2       2 UNK         0.5000 
     61 O           5.9610  -13.6160  -48.0627 O.2       2 UNK        -0.5000 
     62 CA          4.7722  -11.6069  -48.6717 C.3       2 UNK         0.1400 
     63 CB          5.4254  -11.7501  -50.0588 C.3       2 UNK        -0.1800 
     64 N           3.3262  -11.4559  -48.8532 N.am      2 UNK        -0.5000 
     65 C           2.5008  -10.8207  -48.0136 C.2       1 UNK         0.5000 
     66 O           2.8730  -10.3169  -46.9505 O.2       1 UNK        -0.5000 
     67 C          -0.6119  -21.8232  -47.4682 C.2       11 UNK         0.5000 
     68 O          -0.8059  -22.6174  -48.3884 O.2       11 UNK        -0.5000 
     69 N          -1.5799  -21.0547  -46.9489 N.am      12 UNK        -0.5000 
     70 CA         -2.9779  -21.0876  -47.3809 C.3       12 UNK         0.1400 
     71 CB         -3.7452  -19.9238  -46.7367 C.3       12 UNK        -0.1800 
     72 C          -3.6704  -22.4307  -47.0828 C.2       12 UNK         0.5000 
     73 O          -4.4722  -22.8866  -47.8968 O.2       12 UNK        -0.5000 
     74 N          -3.3356  -23.0530  -45.9431 N.am      13 UNK        -0.5000 
     75 CA         -3.7965  -24.3907  -45.5691 C.3       13 UNK         0.1400 
     76 CB         -3.4850  -24.6551  -44.0885 C.3       13 UNK        -0.1800 
     77 C          -3.1984  -25.4932  -46.4627 C.2       13 UNK         0.5000 
     78 O          -3.9058  -26.4425  -46.8000 O.2       13 UNK        -0.5000 
     79 N          -1.9216  -25.3433  -46.8468 N.am      14 UNK        -0.5000 
     80 CA         -1.2317  -26.2200  -47.7954 C.3       14 UNK         0.1400 
     81 CB          0.2752  -25.9218  -47.7841 C.3       14 UNK        -0.1800 
     82 C          -1.8115  -26.1087  -49.2181 C.2       14 UNK         0.5000 
     83 O          -2.0061  -27.1307  -49.8772 O.2       14 UNK        -0.5000 
     84 N          -2.1473  -24.8830  -49.6429 N.am      15 UNK        -0.5000 
     85 CA         -2.8610  -24.5630  -50.8833 C.3       15 UNK         0.1400 
     86 CB         -2.5477  -23.1063  -51.2669 C.3       15 UNK        -0.1800 
     87 C          -4.3816  -24.8309  -50.7719 C.2       15 UNK         0.5000 
     88 O          -5.1934  -23.9735  -51.1329 O.2       15 UNK        -0.5000 
     89 N          -4.7301  -26.0186  -50.2581 N.am      16 UNK        -0.5000 
     90 CA         -6.0756  -26.4813  -49.9226 C.3       16 UNK         0.1400 
     91 CB         -5.9880  -27.9288  -49.4148 C.3       16 UNK        -0.1800 
     92 C          -7.0732  -26.3887  -51.0899 C.2       16 UNK         0.5000 
     93 O          -6.7065  -26.6543  -52.2366 O.2       16 UNK        -0.5000 
     94 N          -8.3189  -26.0233  -50.7556 N.am      17 UNK        -0.5000 
     95 CA         -9.4421  -25.7821  -51.6697 C.3       17 UNK         0.1400 
     96 CB         -9.8629  -27.0819  -52.3889 C.3       17 UNK        -0.1800 
     97 C          -9.1926  -24.6042  -52.6381 C.2       17 UNK         0.5000 
     98 O          -9.7028  -24.6169  -53.7597 O.2       17 UNK        -0.5000 
     99 N          -8.4253  -23.6046  -52.1705 N.am      18 UNK        -0.5000 
    100 CA        -8.0196  -22.3855  -52.8785 C.3       18 UNK         0.1400 
    101 CB        -9.2446  -21.4853  -53.1497 C.3       18 UNK        -0.1800 
    102 C         -7.2020  -22.7040  -54.1464 C.2       18 UNK         0.5000 
    103 O         -7.5787  -22.3053  -55.2506 O.2       18 UNK        -0.5000 
    104 N         -6.1144  -23.4636  -53.9644 N.am      19 UNK        -0.5000 
    105 CA        -5.2273  -23.8895  -55.0446 C.3       19 UNK         0.1400 
    106 CB        -4.3285  -25.0306  -54.5465 C.3       19 UNK        -0.1800 
    107 C         -4.3688  -22.7275  -55.5749 C.2       19 UNK         0.5000 
    108 O         -3.8407  -21.9438  -54.7821 O.2       19 UNK        -0.5000 
    109 N         -4.2088  -22.6784  -56.9049 N.am      20 UNK        -0.5000 
    110 CA        -3.3723  -21.7398  -57.6592 C.3       20 UNK         0.1400 
    111 CB        -1.8822  -22.1133  -57.4838 C.3       20 UNK        -0.1800 
    112 C         -3.6982  -20.2641  -57.3356 C.2       20 UNK         0.5000 
    113 O         -4.8654  -19.8720  -57.4063 O.2       20 UNK        -0.5000 
    114 N         -2.6758  -19.4781  -56.9717 N.am      21 UNK        -0.5000 
    115 CA        -2.7689  -18.0596  -56.6173 C.3       21 UNK         0.1400 
    116 CB        -1.3483  -17.5031  -56.4339 C.3       21 UNK        -0.1800 
    117 C         -3.6254  -17.7689  -55.3681 C.2       21 UNK         0.5000 
    118 O         -4.0926  -16.6394  -55.2144 O.2       21 UNK        -0.5000 
    119 N         -3.8278  -18.7780  -54.5112 N.am      22 UNK        -0.5000 
    120 CA        -4.7044  -18.7056  -53.3324 C.3       22 UNK         0.1400 
    121 C         -6.2147  -18.8814  -53.6643 C.2       22 UNK         0.5000 
    122 N         -6.6017  -19.1824  -54.8992 N.am      22 UNK        -0.7600 
    123 O         -7.0548  -18.7294  -52.7825 O.2       22 UNK        -0.5000 
    124 C124       -4.2610  -19.6793  -52.2096 C.3       23 UNK        -0.0398 
    125 S125       -2.5082  -19.4660  -51.7515 S.3       23 UNK        -0.2404 
    126 C126       -2.6433  -18.3274  -50.3317 C.3       23 UNK        -0.0205 
    127 H127        0.6831   -6.4373  -47.3617 H         1 UNK         0.0600 
    128 H128       -0.6765   -7.4620  -46.8938 H         1 UNK         0.0600 
    129 H129       -0.7073   -6.6076  -48.4387 H         1 UNK         0.0600 
    130 H130       -0.1834   -9.6227  -47.1000 H         1 UNK         0.3000 
    131 H131        0.9526  -10.7372  -49.5053 H         1 UNK         0.0600 
    132 H132        0.5242  -12.2761  -46.8964 H         1 UNK         0.0800 
    133 H133       -0.8327  -11.7996  -47.8799 H         1 UNK         0.0800 
    134 H134       -0.9617  -14.5789  -47.4189 H         1 UNK         0.0800 
    135 H135        0.7370  -14.8226  -47.0768 H         1 UNK         0.0800 
    136 H136       -2.1443  -16.0156  -49.0183 H         1 UNK         0.1150 
    137 H137       -0.1518  -19.5618  -50.3849 H         1 UNK         0.1150 
    138 H138        2.0485  -16.5299  -48.3156 H         1 UNK         0.1150 
    139 H139        2.6884  -18.9096  -50.5515 H         1 UNK         0.0800 
    140 H140        3.1605  -18.5337  -48.9113 H         1 UNK         0.0800 
    141 H141        1.0852  -19.6190  -47.1461 H         1 UNK         0.0800 
    142 H142        2.5407  -20.4744  -46.7208 H         1 UNK         0.0800 
    143 H143        1.3168  -22.6619  -47.0890 H         1 UNK         0.0600 
    144 H144        1.0343  -20.9124  -44.8820 H         1 UNK         0.3000 
    145 H145       -0.4938  -23.2813  -42.6655 H         1 UNK         0.0600 
    146 H146        1.4896  -22.6029  -41.3505 H         1 UNK         0.0600 
    147 H147        1.9755  -23.6726  -42.6576 H         1 UNK         0.0600 
    148 H148        2.2600  -21.9408  -42.7897 H         1 UNK         0.0600 
    149 H149        0.2438  -20.5681  -42.2649 H         1 UNK         0.3000 
    150 H150       -2.9073  -19.1200  -43.2494 H         1 UNK         0.0600 
    151 H151       -3.0588  -19.9188  -40.8793 H         1 UNK         0.0600 
    152 H152       -2.6566  -18.2111  -40.9705 H         1 UNK         0.0600 
    153 H153       -1.4044  -19.3915  -40.5928 H         1 UNK         0.0600 
    154 H154       -0.5435  -17.8558  -42.3611 H         1 UNK         0.3000 
    155 H155        0.9587  -17.3504  -45.6017 H         1 UNK         0.0600 
    156 H156       -0.2473  -15.5713  -43.4105 H         1 UNK         0.0600 
    157 H157       -0.7214  -15.5538  -45.1008 H         1 UNK         0.0600 
    158 H158        0.9029  -15.0581  -44.6361 H         1 UNK         0.0600 
    159 H159        1.9457  -16.6960  -43.0472 H         1 UNK         0.3000 
    160 H160        3.6460  -19.7419  -42.2587 H         1 UNK         0.0600 
    161 H161        5.4810  -18.1092  -42.0299 H         1 UNK         0.0600 
    162 H162        4.5727  -16.8972  -42.9285 H         1 UNK         0.0600 
    163 H163        5.1281  -18.3592  -43.7328 H         1 UNK         0.0600 
    164 H164        3.2346  -17.2272  -40.9028 H         1 UNK         0.3000 
    165 H165        0.4454  -18.2669  -38.9487 H         1 UNK         0.0600 
    166 H166        2.0147  -17.7087  -37.1157 H         1 UNK         0.0600 
    167 H167        2.4382  -19.2613  -37.8193 H         1 UNK         0.0600 
    168 H168        3.3907  -17.8348  -38.2119 H         1 UNK         0.0600 
    169 H169        2.0644  -15.8902  -38.9898 H         1 UNK         0.3000 
    170 H170        0.0171  -14.0959  -41.3139 H         1 UNK         0.0600 
    171 H171       -1.0897  -13.9563  -39.0706 H         1 UNK         0.0600 
    172 H172        0.4847  -13.7905  -38.3024 H         1 UNK         0.0600 
    173 H173       -0.1015  -12.5441  -39.4043 H         1 UNK         0.0600 
    174 H174        2.2280  -13.0791  -40.0318 H         1 UNK         0.3000 
    175 H175        3.9795  -12.4910  -41.5426 H         1 UNK         0.0600 
    176 H176        5.3260  -15.1583  -40.8032 H         1 UNK         0.0600 
    177 H177        6.1042  -13.5762  -40.7667 H         1 UNK         0.0600 
    178 H178        4.7891  -13.9331  -39.6601 H         1 UNK         0.0600 
    179 H179        5.3890  -14.4761  -43.1384 H         1 UNK         0.3000 
    180 H180        5.7614  -13.9931  -45.3821 H         1 UNK         0.0600 
    181 H181        2.9005  -14.9292  -46.0352 H         1 UNK         0.0600 
    182 H182        4.0438  -15.8417  -45.0634 H         1 UNK         0.0600 
    183 H183        4.3772  -15.5547  -46.7620 H         1 UNK         0.0600 
    184 H184        3.8537  -12.0536  -46.3076 H         1 UNK         0.3000 
    185 H185        5.1673  -10.6957  -48.2176 H         1 UNK         0.0600 
    186 H186        6.5119  -11.8038  -49.9780 H         1 UNK         0.0600 
    187 H187        5.0876  -12.6514  -50.5717 H         1 UNK         0.0600 
    188 H188        5.1928  -10.8953  -50.6941 H         1 UNK         0.0600 
    189 H189        2.9366  -11.8942  -49.6758 H         1 UNK         0.3000 
    190 H190       -1.3475  -20.3822  -46.2209 H         1 UNK         0.3000 
    191 H191       -2.9916  -20.9469  -48.4632 H         1 UNK         0.0600 
    192 H192       -3.7454  -19.9975  -45.6486 H         1 UNK         0.0600 
    193 H193       -4.7844  -19.9095  -47.0675 H         1 UNK         0.0600 
    194 H194       -3.3040  -18.9638  -47.0056 H         1 UNK         0.0600 
    195 H195       -2.7290  -22.5773  -45.2826 H         1 UNK         0.3000 
    196 H196       -4.8811  -24.4187  -45.6930 H         1 UNK         0.0600 
    197 H197       -3.9728  -23.9214  -43.4466 H         1 UNK         0.0600 
    198 H198       -2.4147  -24.6163  -43.8866 H         1 UNK         0.0600 
    199 H199       -3.8407  -25.6404  -43.7849 H         1 UNK         0.0600 
    200 H200       -1.3841  -24.5731  -46.4620 H         1 UNK         0.3000 
    201 H201       -1.3719  -27.2497  -47.4601 H         1 UNK         0.0600 
    202 H202        0.6940  -26.0472  -46.7855 H         1 UNK         0.0600 
    203 H203        0.4914  -24.9052  -48.1112 H         1 UNK         0.0600 
    204 H204        0.8105  -26.6001  -48.4495 H         1 UNK         0.0600 
    205 H205       -1.9140  -24.0922  -49.0489 H         1 UNK         0.3000 
    206 H206       -2.4781  -25.2060  -51.6778 H         1 UNK         0.0600 
    207 H207       -2.9986  -22.8422  -52.2239 H         1 UNK         0.0600 
    208 H208       -2.9276  -22.4075  -50.5208 H         1 UNK         0.0600 
    209 H209       -1.4740  -22.9418  -51.3593 H         1 UNK         0.0600 
    210 H210       -3.9745  -26.6542  -50.0306 H         1 UNK         0.3000 
    211 H211       -6.4306  -25.8485  -49.1068 H         1 UNK         0.0600 
    212 H212       -5.5976  -28.5989  -50.1820 H         1 UNK         0.0600 
    213 H213       -6.9697  -28.3021  -49.1207 H         1 UNK         0.0600 
    214 H214       -5.3386  -28.0047  -48.5427 H         1 UNK         0.0600 
    215 H215       -8.5168  -25.8451  -49.7804 H         1 UNK         0.3000 
    216 H216      -10.2798  -25.4754  -51.0418 H         1 UNK         0.0600 
    217 H217      -10.7949  -26.9405  -52.9371 H         1 UNK         0.0600 
    218 H218      -10.0267  -27.8913  -51.6776 H         1 UNK         0.0600 
    219 H219       -9.1112  -27.4119  -53.1063 H         1 UNK         0.0600 
    220 H220       -8.0210  -23.7222  -51.2521 H         1 UNK         0.3000 
    221 H221       -7.3517  -21.8403  -52.2095 H         1 UNK         0.0600 
    222 H222       -9.9575  -21.9552  -53.8274 H         1 UNK         0.0600 
    223 H223       -9.7687  -21.2456  -52.2247 H         1 UNK         0.0600 
    224 H224       -8.9436  -20.5417  -53.6035 H         1 UNK         0.0600 
    225 H225       -5.8527  -23.7323  -53.0209 H         1 UNK         0.3000 
    226 H226       -5.8467  -24.2763  -55.8567 H         1 UNK         0.0600 
    227 H227       -3.7133  -25.4232  -55.3570 H         1 UNK         0.0600 
    228 H228       -3.6541  -24.6942  -53.7605 H         1 UNK         0.0600 
    229 H229       -4.9180  -25.8595  -54.1548 H         1 UNK         0.0600 
    230 H230       -4.7137  -23.3476  -57.4685 H         1 UNK         0.3000 
    231 H231       -3.6250  -21.8779  -58.7113 H         1 UNK         0.0600 
    232 H232       -1.7080  -23.1523  -57.7641 H         1 UNK         0.0600 
    233 H233       -1.5475  -21.9931  -56.4526 H         1 UNK         0.0600 
    234 H234       -1.2405  -21.5036  -58.1211 H         1 UNK         0.0600 
    235 H235       -1.7560  -19.8908  -56.9183 H         1 UNK         0.3000 
    236 H236       -3.2350  -17.5393  -57.4564 H         1 UNK         0.0600 
    237 H237       -0.7556  -17.6236  -57.3409 H         1 UNK         0.0600 
    238 H238       -1.3722  -16.4372  -56.2029 H         1 UNK         0.0600 
    239 H239       -0.8239  -18.0034  -55.6187 H         1 UNK         0.0600 
    240 H240       -3.4402  -19.6907  -54.7155 H         1 UNK         0.3000 
    241 H241       -4.6178  -17.6984  -52.9205 H         1 UNK         0.0600 
    242 H242       -5.9246  -19.3353  -55.6368 H         1 UNK         0.3800 
    243 H243       -7.5820  -19.2963  -55.0986 H         1 UNK         0.3800 
    244 H244       -4.8780  -19.5508  -51.3186 H         1 UNK         0.0800 
    245 H245       -4.4044  -20.7136  -52.5245 H         1 UNK         0.0800 
    246 H246       -3.2385  -17.4675  -50.6430 H         1 UNK         0.0800 
    247 H247       -3.1967  -18.8165  -49.5309 H         1 UNK         0.0800 
@<TRIPOS>BOND
     1    1    2 1    
     2    1  127 1    
     3    1  128 1    
     4    1  129 1    
     5    2    3 2    
     6    2    4 am   BACKBONE|DICT|INTERRES
     7    4    5 1    
     8    4  130 1    
     9    5    6 1    
    10    5   65 1    
    11    5  131 1    
    12    6    7 1    
    13    6  132 1    
    14    6  133 1    
    15    7    8 1    
    16    8    9 1    
    17    8  134 1    
    18    8  135 1    
    19    9   10 ar   
    20    9   14 ar   
    21   10   11 ar   
    22   10  136 1    
    23   11   12 ar   
    24   11  126 1    
    25   12   13 ar   
    26   12  137 1    
    27   13   14 ar   
    28   13   15 1    
    29   14  138 1    
    30   15   16 1    
    31   15  139 1    
    32   15  140 1    
    33   16   17 1    
    34   17   18 1    
    35   17  141 1    
    36   17  142 1    
    37   18   19 1    
    38   18   67 1    
    39   18  143 1    
    40   19   20 am   BACKBONE|DICT|INTERRES
    41   19  144 1    
    42   20   21 2    
    43   20   22 1    
    44   22   23 1    
    45   22   24 1    
    46   22  145 1    
    47   23  146 1    
    48   23  147 1    
    49   23  148 1    
    50   24   25 am   BACKBONE|DICT|INTERRES
    51   24  149 1    
    52   25   26 2    
    53   25   27 1    
    54   27   28 1    
    55   27   29 1    
    56   27  150 1    
    57   28  151 1    
    58   28  152 1    
    59   28  153 1    
    60   29   30 am   BACKBONE|DICT|INTERRES
    61   29  154 1    
    62   30   31 2    
    63   30   32 1    
    64   32   33 1    
    65   32   34 1    
    66   32  155 1    
    67   33  156 1    
    68   33  157 1    
    69   33  158 1    
    70   34   35 am   BACKBONE|DICT|INTERRES
    71   34  159 1    
    72   35   36 2    
    73   35   37 1    
    74   37   38 1    
    75   37   39 1    
    76   37  160 1    
    77   38  161 1    
    78   38  162 1    
    79   38  163 1    
    80   39   40 am   BACKBONE|DICT|INTERRES
    81   39  164 1    
    82   40   41 2    
    83   40   42 1    
    84   42   43 1    
    85   42   44 1    
    86   42  165 1    
    87   43  166 1    
    88   43  167 1    
    89   43  168 1    
    90   44   45 am   BACKBONE|DICT|INTERRES
    91   44  169 1    
    92   45   46 2    
    93   45   47 1    
    94   47   48 1    
    95   47   49 1    
    96   47  170 1    
    97   48  171 1    
    98   48  172 1    
    99   48  173 1    
   100   49   50 am   BACKBONE|DICT|INTERRES
   101   49  174 1    
   102   50   51 2    
   103   50   52 1    
   104   52   53 1    
   105   52   54 1    
   106   52  175 1    
   107   53  176 1    
   108   53  177 1    
   109   53  178 1    
   110   54   55 am   BACKBONE|DICT|INTERRES
   111   54  179 1    
   112   55   56 2    
   113   55   57 1    
   114   57   58 1    
   115   57   59 1    
   116   57  180 1    
   117   58  181 1    
   118   58  182 1    
   119   58  183 1    
   120   59   60 am   BACKBONE|DICT|INTERRES
   121   59  184 1    
   122   60   61 2    
   123   60   62 1    
   124   62   63 1    
   125   62   64 1    
   126   62  185 1    
   127   63  186 1    
   128   63  187 1    
   129   63  188 1    
   130   64   65 am   BACKBONE|DICT|INTERRES
   131   64  189 1    
   132   65   66 2    
   133   67   68 2    
   134   67   69 am   BACKBONE|DICT|INTERRES
   135   69   70 1    
   136   69  190 1    
   137   70   71 1    
   138   70   72 1    
   139   70  191 1    
   140   71  192 1    
   141   71  193 1    
   142   71  194 1    
   143   72   73 2    
   144   72   74 am   BACKBONE|DICT|INTERRES
   145   74   75 1    
   146   74  195 1    
   147   75   76 1    
   148   75   77 1    
   149   75  196 1    
   150   76  197 1    
   151   76  198 1    
   152   76  199 1    
   153   77   78 2    
   154   77   79 am   BACKBONE|DICT|INTERRES
   155   79   80 1    
   156   79  200 1    
   157   80   81 1    
   158   80   82 1    
   159   80  201 1    
   160   81  202 1    
   161   81  203 1    
   162   81  204 1    
   163   82   83 2    
   164   82   84 am   BACKBONE|DICT|INTERRES
   165   84   85 1    
   166   84  205 1    
   167   85   86 1    
   168   85   87 1    
   169   85  206 1    
   170   86  207 1    
   171   86  208 1    
   172   86  209 1    
   173   87   88 2    
   174   87   89 am   BACKBONE|DICT|INTERRES
   175   89   90 1    
   176   89  210 1    
   177   90   91 1    
   178   90   92 1    
   179   90  211 1    
   180   91  212 1    
   181   91  213 1    
   182   91  214 1    
   183   92   93 2    
   184   92   94 am   BACKBONE|DICT|INTERRES
   185   94   95 1    
   186   94  215 1    
   187   95   96 1    
   188   95   97 1    
   189   95  216 1    
   190   96  217 1    
   191   96  218 1    
   192   96  219 1    
   193   97   98 2    
   194   97   99 am   BACKBONE|DICT|INTERRES
   195   99  100 1    
   196   99  220 1    
   197  100  101 1    
   198  100  102 1    
   199  100  221 1    
   200  101  222 1    
   201  101  223 1    
   202  101  224 1    
   203  102  103 2    
   204  102  104 am   BACKBONE|DICT|INTERRES
   205  104  105 1    
   206  104  225 1    
   207  105  106 1    
   208  105  107 1    
   209  105  226 1    
   210  106  227 1    
   211  106  228 1    
   212  106  229 1    
   213  107  108 2    
   214  107  109 am   BACKBONE|DICT|INTERRES
   215  109  110 1    
   216  109  230 1    
   217  110  111 1    
   218  110  112 1    
   219  110  231 1    
   220  111  232 1    
   221  111  233 1    
   222  111  234 1    
   223  112  113 2    
   224  112  114 am   BACKBONE|DICT|INTERRES
   225  114  115 1    
   226  114  235 1    
   227  115  116 1    
   228  115  117 1    
   229  115  236 1    
   230  116  237 1    
   231  116  238 1    
   232  116  239 1    
   233  117  118 2    
   234  117  119 am   BACKBONE|DICT|INTERRES
   235  119  120 1    
   236  119  240 1    
   237  120  121 1    
   238  120  124 1    
   239  120  241 1    
   240  121  122 am   BACKBONE|DICT|INTERRES
   241  121  123 2    
   242  122  242 1    
   243  122  243 1    
   244  124  125 1    
   245  124  244 1    
   246  124  245 1    
   247  125  126 1    
   248  126  246 1    
   249  126  247 1    
@<TRIPOS>SUBSTRUCTURE
     1 UNK         1 GROUP             0       ****    0 ROOT    
