@<TRIPOS>MOLECULE
3R540
247   249    1
SMALL
USER_CHARGES


@<TRIPOS>ATOM
      1 CA         -4.7209  -12.8418  -48.7798 C.3       0 UNK        -0.1800 
      2 C          -3.5736  -13.3149  -47.9004 C.2       0 UNK         0.5000 
      3 O          -3.2676  -12.6771  -46.8925 O.2       0 UNK        -0.5000 
      4 N          -2.9507  -14.4451  -48.2578 N.am      1 UNK        -0.5000 
      5 CA         -1.8199  -15.0479  -47.5425 C.3       1 UNK         0.1400 
      6 C6         -1.1858  -16.1930  -48.3680 C.3       23 UNK        -0.0398 
      7 S7          0.4980  -16.6459  -47.8208 S.3       23 UNK        -0.2404 
      8 C8          1.2784  -17.1567  -49.3848 C.3       23 UNK        -0.0205 
      9 C9          0.8105  -18.5306  -49.8475 C.ar      23 UNK        -0.0193 
     10 C10        -0.3999  -18.6669  -50.5299 C.ar      23 UNK        -0.1150 
     11 C11        -0.8262  -19.9157  -50.9849 C.ar      23 UNK        -0.0193 
     12 C12        -0.0198  -21.0384  -50.7739 C.ar      23 UNK        -0.1150 
     13 C13         1.2113  -20.9142  -50.1193 C.ar      23 UNK        -0.0193 
     14 C14         1.6098  -19.6599  -49.6427 C.ar      23 UNK        -0.1150 
     15 C15         2.1569  -22.1063  -50.0069 C.3       23 UNK        -0.0205 
     16 S16         1.4473  -23.5387  -49.1335 S.3       23 UNK        -0.2404 
     17 C17         1.4452  -22.9481  -47.4066 C.3       23 UNK        -0.0398 
     18 CA          0.1531  -23.3391  -46.6516 C.3       11 UNK         0.1400 
     19 N           0.2920  -23.1916  -45.2015 N.am      11 UNK        -0.5000 
     20 C          -0.5662  -23.6918  -44.3004 C.2       10 UNK         0.5000 
     21 O          -1.5354  -24.3926  -44.5932 O.2       10 UNK        -0.5000 
     22 CA         -0.3249  -23.2998  -42.8305 C.3       10 UNK         0.1400 
     23 CB          0.7235  -24.2199  -42.1880 C.3       10 UNK        -0.1800 
     24 N           0.0977  -21.9047  -42.6869 N.am      10 UNK        -0.5000 
     25 C          -0.6873  -20.8497  -42.9476 C.2       9 UNK         0.5000 
     26 O          -1.8674  -20.9469  -43.2811 O.2       9 UNK        -0.5000 
     27 CA         -0.0355  -19.4556  -42.8680 C.3       9 UNK         0.1400 
     28 CB         -0.1602  -18.8784  -41.4506 C.3       9 UNK        -0.1800 
     29 N           1.3712  -19.4276  -43.2786 N.am      9 UNK        -0.5000 
     30 C           1.8292  -19.7678  -44.4925 C.2       8 UNK         0.5000 
     31 O           1.1157  -20.2596  -45.3673 O.2       8 UNK        -0.5000 
     32 CA          3.3258  -19.5342  -44.7688 C.3       8 UNK         0.1400 
     33 CB          3.6010  -19.2103  -46.2488 C.3       8 UNK        -0.1800 
     34 N           3.8552  -18.4580  -43.9316 N.am      8 UNK        -0.5000 
     35 C           5.0706  -18.4329  -43.3671 C.2       7 UNK         0.5000 
     36 O           5.8674  -19.3705  -43.4364 O.2       7 UNK        -0.5000 
     37 CA          5.4579  -17.1508  -42.5892 C.3       7 UNK         0.1400 
     38 CB          6.9822  -16.9146  -42.5404 C.3       7 UNK        -0.1800 
     39 N           4.7547  -15.9497  -43.0578 N.am      7 UNK        -0.5000 
     40 C           4.7917  -15.4106  -44.2867 C.2       6 UNK         0.5000 
     41 O           5.5734  -15.7736  -45.1671 O.2       6 UNK        -0.5000 
     42 CA          3.7621  -14.2966  -44.5931 C.3       6 UNK         0.1400 
     43 CB          3.2750  -14.3575  -46.0555 C.3       6 UNK        -0.1800 
     44 N           2.5966  -14.2491  -43.6961 N.am      6 UNK        -0.5000 
     45 C           1.7205  -15.2284  -43.4247 C.2       5 UNK         0.5000 
     46 O           1.8619  -16.3942  -43.7901 O.2       5 UNK        -0.5000 
     47 CA          0.4777  -14.8438  -42.6041 C.3       5 UNK         0.1400 
     48 CB          0.8153  -14.5971  -41.1217 C.3       5 UNK        -0.1800 
     49 N          -0.2724  -13.7356  -43.2017 N.am      5 UNK        -0.5000 
     50 C           0.0578  -12.4423  -43.3160 C.2       4 UNK         0.5000 
     51 O           1.0750  -11.9461  -42.8294 O.2       4 UNK        -0.5000 
     52 CA         -0.8858  -11.5598  -44.1562 C.3       4 UNK         0.1400 
     53 CB         -0.3396  -11.4209  -45.5856 C.3       4 UNK        -0.1800 
     54 N          -2.2588  -12.0661  -44.2236 N.am      4 UNK        -0.5000 
     55 C          -3.1319  -12.0407  -43.2063 C.2       3 UNK         0.5000 
     56 O          -2.8754  -11.5768  -42.0948 O.2       3 UNK        -0.5000 
     57 CA         -4.5197  -12.6470  -43.4738 C.3       3 UNK         0.1400 
     58 CB         -5.4116  -11.6587  -44.2418 C.3       3 UNK        -0.1800 
     59 N          -4.4174  -13.8973  -44.2253 N.am      3 UNK        -0.5000 
     60 C          -4.1991  -15.0981  -43.6703 C.2       2 UNK         0.5000 
     61 O          -4.1205  -15.2858  -42.4562 O.2       2 UNK        -0.5000 
     62 CA         -4.0253  -16.2924  -44.6299 C.3       2 UNK         0.1400 
     63 CB         -5.3595  -17.0219  -44.8459 C.3       2 UNK        -0.1800 
     64 N          -3.4748  -15.9056  -45.9298 N.am      2 UNK        -0.5000 
     65 C          -2.2106  -15.5007  -46.1187 C.2       1 UNK         0.5000 
     66 O          -1.3888  -15.4250  -45.2089 O.2       1 UNK        -0.5000 
     67 C          -1.0677  -22.5546  -47.1631 C.2       11 UNK         0.5000 
     68 O          -1.8368  -23.0918  -47.9569 O.2       11 UNK        -0.5000 
     69 N          -1.2517  -21.3293  -46.6551 N.am      12 UNK        -0.5000 
     70 CA         -2.3831  -20.4637  -46.9753 C.3       12 UNK         0.1400 
     71 CB         -2.1752  -19.0960  -46.3223 C.3       12 UNK        -0.1800 
     72 C          -3.7414  -21.0543  -46.5541 C.2       12 UNK         0.5000 
     73 O          -4.7152  -20.9361  -47.2972 O.2       12 UNK        -0.5000 
     74 N          -3.7781  -21.6878  -45.3736 N.am      13 UNK        -0.5000 
     75 CA         -4.9489  -22.3837  -44.8438 C.3       13 UNK         0.1400 
     76 CB         -4.7105  -22.7308  -43.3663 C.3       13 UNK        -0.1800 
     77 C          -5.3037  -23.6463  -45.6505 C.2       13 UNK         0.5000 
     78 O          -6.4853  -23.8986  -45.8899 O.2       13 UNK        -0.5000 
     79 N          -4.2813  -24.4139  -46.0525 N.am      14 UNK        -0.5000 
     80 CA         -4.4333  -25.6294  -46.8515 C.3       14 UNK         0.1400 
     81 CB         -3.1459  -26.4632  -46.7506 C.3       14 UNK        -0.1800 
     82 C          -4.7694  -25.3400  -48.3261 C.2       14 UNK         0.5000 
     83 O          -5.5841  -26.0531  -48.9122 O.2       14 UNK        -0.5000 
     84 N          -4.1016  -24.3272  -48.8991 N.am      15 UNK        -0.5000 
     85 CA         -4.1016  -23.9147  -50.3085 C.3       15 UNK         0.1400 
     86 CB         -5.4935  -23.4127  -50.7409 C.3       15 UNK        -0.1800 
     87 C          -3.5280  -24.9854  -51.2644 C.2       15 UNK         0.5000 
     88 O          -3.7699  -24.9254  -52.4709 O.2       15 UNK        -0.5000 
     89 N          -2.7648  -25.9409  -50.7126 N.am      16 UNK        -0.5000 
     90 CA         -2.2805  -27.1541  -51.3767 C.3       16 UNK         0.1400 
     91 CB         -1.6143  -28.0570  -50.3271 C.3       16 UNK        -0.1800 
     92 C          -1.3248  -26.9056  -52.5576 C.2       16 UNK         0.5000 
     93 O          -1.2662  -27.7291  -53.4715 O.2       16 UNK        -0.5000 
     94 N          -0.6062  -25.7759  -52.5278 N.am      17 UNK        -0.5000 
     95 CA          0.2899  -25.3397  -53.5995 C.3       17 UNK         0.1400 
     96 CB          1.2423  -24.2699  -53.0439 C.3       17 UNK        -0.1800 
     97 C          -0.4538  -24.7993  -54.8379 C.2       17 UNK         0.5000 
     98 O           0.1569  -24.7083  -55.9032 O.2       17 UNK        -0.5000 
     99 N          -1.7347  -24.4236  -54.6732 N.am      18 UNK        -0.5000 
    100 CA        -2.6151  -23.7992  -55.6715 C.3       18 UNK         0.1400 
    101 CB        -2.9468  -24.7931  -56.8040 C.3       18 UNK        -0.1800 
    102 C         -2.0879  -22.4428  -56.1960 C.2       18 UNK         0.5000 
    103 O         -2.3811  -22.0570  -57.3296 O.2       18 UNK        -0.5000 
    104 N         -1.3053  -21.7514  -55.3583 N.am      19 UNK        -0.5000 
    105 CA        -0.6929  -20.4561  -55.6385 C.3       19 UNK         0.1400 
    106 CB         0.5027  -20.2772  -54.6862 C.3       19 UNK        -0.1800 
    107 C         -1.6947  -19.2938  -55.4959 C.2       19 UNK         0.5000 
    108 O         -2.8190  -19.4840  -55.0229 O.2       19 UNK        -0.5000 
    109 N         -1.2491  -18.0955  -55.8915 N.am      20 UNK        -0.5000 
    110 CA        -1.9615  -16.8334  -55.6933 C.3       20 UNK         0.1400 
    111 CB        -1.2425  -15.7326  -56.4892 C.3       20 UNK        -0.1800 
    112 C         -2.0565  -16.4481  -54.2029 C.2       20 UNK         0.5000 
    113 O         -1.2287  -16.8820  -53.3993 O.2       20 UNK        -0.5000 
    114 N         -3.0557  -15.6161  -53.8798 N.am      21 UNK        -0.5000 
    115 CA        -3.3965  -15.1242  -52.5377 C.3       21 UNK         0.1400 
    116 CB        -2.2299  -14.3356  -51.9038 C.3       21 UNK        -0.1800 
    117 C         -3.9800  -16.2102  -51.6057 C.2       21 UNK         0.5000 
    118 O         -3.9067  -16.0686  -50.3835 O.2       21 UNK        -0.5000 
    119 N         -4.5945  -17.2370  -52.2035 N.am      22 UNK        -0.5000 
    120 CA        -5.4637  -18.2253  -51.5512 C.3       22 UNK         0.1400 
    121 C         -6.8982  -18.1119  -52.1315 C.2       22 UNK         0.5000 
    122 N         -7.9194  -18.3879  -51.3323 N.am      22 UNK        -0.7600 
    123 O         -7.0968  -17.8065  -53.3063 O.2       22 UNK        -0.5000 
    124 C124       -4.9317  -19.6716  -51.7232 C.3       23 UNK        -0.0398 
    125 S125       -3.5470  -20.0191  -50.5958 S.3       23 UNK        -0.2404 
    126 C126       -2.1406  -20.0231  -51.7386 C.3       23 UNK        -0.0205 
    127 H127       -4.9092  -13.5287  -49.6051 H         1 UNK         0.0600 
    128 H128       -4.4916  -11.8616  -49.1974 H         1 UNK         0.0600 
    129 H129       -5.6343  -12.7581  -48.1910 H         1 UNK         0.0600 
    130 H130       -3.2861  -14.9661  -49.0672 H         1 UNK         0.3000 
    131 H131       -1.0692  -14.2628  -47.4328 H         1 UNK         0.0600 
    132 H132       -1.8217  -17.0789  -48.3779 H         1 UNK         0.0800 
    133 H133       -1.1145  -15.8714  -49.4065 H         1 UNK         0.0800 
    134 H134        1.0833  -16.4141  -50.1599 H         1 UNK         0.0800 
    135 H135        2.3598  -17.1624  -49.2411 H         1 UNK         0.0800 
    136 H136       -1.0150  -17.7994  -50.7212 H         1 UNK         0.1150 
    137 H137       -0.3378  -22.0036  -51.1395 H         1 UNK         0.1150 
    138 H138        2.5623  -19.5524  -49.1444 H         1 UNK         0.1150 
    139 H139        2.4353  -22.4171  -51.0141 H         1 UNK         0.0800 
    140 H140        3.0878  -21.8205  -49.5145 H         1 UNK         0.0800 
    141 H141        1.6009  -21.8689  -47.3811 H         1 UNK         0.0800 
    142 H142        2.3120  -23.3898  -46.9134 H         1 UNK         0.0800 
    143 H143       -0.0367  -24.3977  -46.8435 H         1 UNK         0.0600 
    144 H144        1.0101  -22.5574  -44.8831 H         1 UNK         0.3000 
    145 H145       -1.2671  -23.4282  -42.2931 H         1 UNK         0.0600 
    146 H146        0.8459  -23.9975  -41.1278 H         1 UNK         0.0600 
    147 H147        0.4243  -25.2660  -42.2670 H         1 UNK         0.0600 
    148 H148        1.6981  -24.1199  -42.6672 H         1 UNK         0.0600 
    149 H149        1.0554  -21.7376  -42.4157 H         1 UNK         0.3000 
    150 H150       -0.5814  -18.7987  -43.5480 H         1 UNK         0.0600 
    151 H151        0.3866  -19.4782  -40.7220 H         1 UNK         0.0600 
    152 H152       -1.2034  -18.8448  -41.1334 H         1 UNK         0.0600 
    153 H153        0.2252  -17.8600  -41.4037 H         1 UNK         0.0600 
    154 H154        2.0257  -19.0328  -42.6202 H         1 UNK         0.3000 
    155 H155        3.8266  -20.4723  -44.5228 H         1 UNK         0.0600 
    156 H156        3.0607  -18.3178  -46.5680 H         1 UNK         0.0600 
    157 H157        3.2932  -20.0331  -46.8941 H         1 UNK         0.0600 
    158 H158        4.6629  -19.0402  -46.4265 H         1 UNK         0.0600 
    159 H159        3.2466  -17.6453  -43.8417 H         1 UNK         0.3000 
    160 H160        5.1212  -17.3140  -41.5646 H         1 UNK         0.0600 
    161 H161        7.4118  -16.8250  -43.5383 H         1 UNK         0.0600 
    162 H162        7.4902  -17.7401  -42.0406 H         1 UNK         0.0600 
    163 H163        7.2231  -16.0063  -41.9881 H         1 UNK         0.0600 
    164 H164        4.0730  -15.5689  -42.4173 H         1 UNK         0.3000 
    165 H165        4.2895  -13.3518  -44.4563 H         1 UNK         0.0600 
    166 H166        2.5526  -13.5686  -46.2660 H         1 UNK         0.0600 
    167 H167        4.1022  -14.2329  -46.7550 H         1 UNK         0.0600 
    168 H168        2.7996  -15.3136  -46.2772 H         1 UNK         0.0600 
    169 H169        2.3655  -13.3306  -43.3278 H         1 UNK         0.3000 
    170 H170       -0.1978  -15.6999  -42.6436 H         1 UNK         0.0600 
    171 H171        1.2684  -15.4836  -40.6765 H         1 UNK         0.0600 
    172 H172        1.5165  -13.7736  -40.9872 H         1 UNK         0.0600 
    173 H173       -0.0832  -14.3690  -40.5483 H         1 UNK         0.0600 
    174 H174       -1.0676  -14.0462  -43.7492 H         1 UNK         0.3000 
    175 H175       -0.9070  -10.5684  -43.6989 H         1 UNK         0.0600 
    176 H176       -0.2884  -12.3864  -46.0899 H         1 UNK         0.0600 
    177 H177       -0.9670  -10.7622  -46.1865 H         1 UNK         0.0600 
    178 H178        0.6663  -10.9991  -45.5818 H         1 UNK         0.0600 
    179 H179       -2.5717  -12.4106  -45.1274 H         1 UNK         0.3000 
    180 H180       -4.9936  -12.8430  -42.5094 H         1 UNK         0.0600 
    181 H181       -4.9991  -11.4122  -45.2206 H         1 UNK         0.0600 
    182 H182       -5.5226  -10.7250  -43.6890 H         1 UNK         0.0600 
    183 H183       -6.4109  -12.0670  -44.3934 H         1 UNK         0.0600 
    184 H184       -4.4176  -13.8196  -45.2328 H         1 UNK         0.3000 
    185 H185       -3.3300  -16.9914  -44.1596 H         1 UNK         0.0600 
    186 H186       -5.7866  -17.3433  -43.8950 H         1 UNK         0.0600 
    187 H187       -6.0938  -16.3821  -45.3367 H         1 UNK         0.0600 
    188 H188       -5.2269  -17.9144  -45.4582 H         1 UNK         0.0600 
    189 H189       -4.1027  -15.9206  -46.7203 H         1 UNK         0.3000 
    190 H190       -0.5355  -20.9444  -46.0453 H         1 UNK         0.3000 
    191 H191       -2.3840  -20.3281  -48.0561 H         1 UNK         0.0600 
    192 H192       -1.1927  -18.6879  -46.5555 H         1 UNK         0.0600 
    193 H193       -2.9257  -18.3991  -46.6899 H         1 UNK         0.0600 
    194 H194       -2.2708  -19.1399  -45.2381 H         1 UNK         0.0600 
    195 H195       -2.9537  -21.6646  -44.7816 H         1 UNK         0.3000 
    196 H196       -5.8004  -21.7023  -44.8987 H         1 UNK         0.0600 
    197 H197       -5.5730  -23.2450  -42.9408 H         1 UNK         0.0600 
    198 H198       -4.5425  -21.8316  -42.7733 H         1 UNK         0.0600 
    199 H199       -3.8437  -23.3805  -43.2399 H         1 UNK         0.0600 
    200 H200       -3.3392  -24.1603  -45.7783 H         1 UNK         0.3000 
    201 H201       -5.2506  -26.2197  -46.4317 H         1 UNK         0.0600 
    202 H202       -3.2312  -27.3871  -47.3238 H         1 UNK         0.0600 
    203 H203       -2.9383  -26.7407  -45.7170 H         1 UNK         0.0600 
    204 H204       -2.2798  -25.9177  -47.1277 H         1 UNK         0.0600 
    205 H205       -3.4114  -23.8338  -48.3335 H         1 UNK         0.3000 
    206 H206       -3.4155  -23.0690  -50.3675 H         1 UNK         0.0600 
    207 H207       -5.8621  -22.6472  -50.0576 H         1 UNK         0.0600 
    208 H208       -5.4564  -22.9676  -51.7357 H         1 UNK         0.0600 
    209 H209       -6.2259  -24.2194  -50.7712 H         1 UNK         0.0600 
    210 H210       -2.5968  -25.8789  -49.7198 H         1 UNK         0.3000 
    211 H211       -3.1521  -27.6784  -51.7737 H         1 UNK         0.0600 
    212 H212       -0.7619  -27.5652  -49.8564 H         1 UNK         0.0600 
    213 H213       -1.2521  -28.9817  -50.7785 H         1 UNK         0.0600 
    214 H214       -2.3179  -28.3358  -49.5426 H         1 UNK         0.0600 
    215 H215       -0.7043  -25.1647  -51.7305 H         1 UNK         0.3000 
    216 H216        0.8888  -26.1944  -53.9215 H         1 UNK         0.0600 
    217 H217        1.9661  -23.9600  -53.7988 H         1 UNK         0.0600 
    218 H218        1.8064  -24.6481  -52.1911 H         1 UNK         0.0600 
    219 H219        0.7035  -23.3784  -52.7244 H         1 UNK         0.0600 
    220 H220       -2.1674  -24.5844  -53.7701 H         1 UNK         0.3000 
    221 H221       -3.5469  -23.5751  -55.1501 H         1 UNK         0.0600 
    222 H222       -2.0734  -25.0151  -57.4176 H         1 UNK         0.0600 
    223 H223       -3.3237  -25.7341  -56.4031 H         1 UNK         0.0600 
    224 H224       -3.7166  -24.3921  -57.4643 H         1 UNK         0.0600 
    225 H225       -1.1412  -22.1367  -54.4420 H         1 UNK         0.3000 
    226 H226       -0.3221  -20.4607  -56.6657 H         1 UNK         0.0600 
    227 H227        1.2069  -21.1048  -54.7755 H         1 UNK         0.0600 
    228 H228        1.0535  -19.3621  -54.9058 H         1 UNK         0.0600 
    229 H229        0.1840  -20.2210  -53.6459 H         1 UNK         0.0600 
    230 H230       -0.3040  -18.0196  -56.2370 H         1 UNK         0.3000 
    231 H231       -2.9734  -16.9488  -56.0878 H         1 UNK         0.0600 
    232 H232       -0.2215  -15.5829  -56.1354 H         1 UNK         0.0600 
    233 H233       -1.7629  -14.7782  -56.3996 H         1 UNK         0.0600 
    234 H234       -1.1980  -15.9772  -57.5507 H         1 UNK         0.0600 
    235 H235       -3.6698  -15.3016  -54.6186 H         1 UNK         0.3000 
    236 H236       -4.2094  -14.4127  -52.6890 H         1 UNK         0.0600 
    237 H237       -1.8383  -13.5894  -52.5950 H         1 UNK         0.0600 
    238 H238       -2.5557  -13.8032  -51.0106 H         1 UNK         0.0600 
    239 H239       -1.4060  -14.9869  -51.6137 H         1 UNK         0.0600 
    240 H240       -4.6336  -17.2457  -53.2126 H         1 UNK         0.3000 
    241 H241       -5.5345  -18.0044  -50.4839 H         1 UNK         0.0600 
    242 H242       -7.7836  -18.6494  -50.3678 H         1 UNK         0.3800 
    243 H243       -8.8568  -18.3296  -51.6996 H         1 UNK         0.3800 
    244 H244       -5.7086  -20.4004  -51.4860 H         1 UNK         0.0800 
    245 H245       -4.6421  -19.8654  -52.7578 H         1 UNK         0.0800 
    246 H246       -2.1696  -20.9237  -52.3530 H         1 UNK         0.0800 
    247 H247       -2.2309  -19.1760  -52.4186 H         1 UNK         0.0800 
@<TRIPOS>BOND
     1    1    2 1    
     2    1  127 1    
     3    1  128 1    
     4    1  129 1    
     5    2    3 2    
     6    2    4 am   BACKBONE|DICT|INTERRES
     7    4    5 1    
     8    4  130 1    
     9    5    6 1    
    10    5   65 1    
    11    5  131 1    
    12    6    7 1    
    13    6  132 1    
    14    6  133 1    
    15    7    8 1    
    16    8    9 1    
    17    8  134 1    
    18    8  135 1    
    19    9   10 ar   
    20    9   14 ar   
    21   10   11 ar   
    22   10  136 1    
    23   11   12 ar   
    24   11  126 1    
    25   12   13 ar   
    26   12  137 1    
    27   13   14 ar   
    28   13   15 1    
    29   14  138 1    
    30   15   16 1    
    31   15  139 1    
    32   15  140 1    
    33   16   17 1    
    34   17   18 1    
    35   17  141 1    
    36   17  142 1    
    37   18   19 1    
    38   18   67 1    
    39   18  143 1    
    40   19   20 am   BACKBONE|DICT|INTERRES
    41   19  144 1    
    42   20   21 2    
    43   20   22 1    
    44   22   23 1    
    45   22   24 1    
    46   22  145 1    
    47   23  146 1    
    48   23  147 1    
    49   23  148 1    
    50   24   25 am   BACKBONE|DICT|INTERRES
    51   24  149 1    
    52   25   26 2    
    53   25   27 1    
    54   27   28 1    
    55   27   29 1    
    56   27  150 1    
    57   28  151 1    
    58   28  152 1    
    59   28  153 1    
    60   29   30 am   BACKBONE|DICT|INTERRES
    61   29  154 1    
    62   30   31 2    
    63   30   32 1    
    64   32   33 1    
    65   32   34 1    
    66   32  155 1    
    67   33  156 1    
    68   33  157 1    
    69   33  158 1    
    70   34   35 am   BACKBONE|DICT|INTERRES
    71   34  159 1    
    72   35   36 2    
    73   35   37 1    
    74   37   38 1    
    75   37   39 1    
    76   37  160 1    
    77   38  161 1    
    78   38  162 1    
    79   38  163 1    
    80   39   40 am   BACKBONE|DICT|INTERRES
    81   39  164 1    
    82   40   41 2    
    83   40   42 1    
    84   42   43 1    
    85   42   44 1    
    86   42  165 1    
    87   43  166 1    
    88   43  167 1    
    89   43  168 1    
    90   44   45 am   BACKBONE|DICT|INTERRES
    91   44  169 1    
    92   45   46 2    
    93   45   47 1    
    94   47   48 1    
    95   47   49 1    
    96   47  170 1    
    97   48  171 1    
    98   48  172 1    
    99   48  173 1    
   100   49   50 am   BACKBONE|DICT|INTERRES
   101   49  174 1    
   102   50   51 2    
   103   50   52 1    
   104   52   53 1    
   105   52   54 1    
   106   52  175 1    
   107   53  176 1    
   108   53  177 1    
   109   53  178 1    
   110   54   55 am   BACKBONE|DICT|INTERRES
   111   54  179 1    
   112   55   56 2    
   113   55   57 1    
   114   57   58 1    
   115   57   59 1    
   116   57  180 1    
   117   58  181 1    
   118   58  182 1    
   119   58  183 1    
   120   59   60 am   BACKBONE|DICT|INTERRES
   121   59  184 1    
   122   60   61 2    
   123   60   62 1    
   124   62   63 1    
   125   62   64 1    
   126   62  185 1    
   127   63  186 1    
   128   63  187 1    
   129   63  188 1    
   130   64   65 am   BACKBONE|DICT|INTERRES
   131   64  189 1    
   132   65   66 2    
   133   67   68 2    
   134   67   69 am   BACKBONE|DICT|INTERRES
   135   69   70 1    
   136   69  190 1    
   137   70   71 1    
   138   70   72 1    
   139   70  191 1    
   140   71  192 1    
   141   71  193 1    
   142   71  194 1    
   143   72   73 2    
   144   72   74 am   BACKBONE|DICT|INTERRES
   145   74   75 1    
   146   74  195 1    
   147   75   76 1    
   148   75   77 1    
   149   75  196 1    
   150   76  197 1    
   151   76  198 1    
   152   76  199 1    
   153   77   78 2    
   154   77   79 am   BACKBONE|DICT|INTERRES
   155   79   80 1    
   156   79  200 1    
   157   80   81 1    
   158   80   82 1    
   159   80  201 1    
   160   81  202 1    
   161   81  203 1    
   162   81  204 1    
   163   82   83 2    
   164   82   84 am   BACKBONE|DICT|INTERRES
   165   84   85 1    
   166   84  205 1    
   167   85   86 1    
   168   85   87 1    
   169   85  206 1    
   170   86  207 1    
   171   86  208 1    
   172   86  209 1    
   173   87   88 2    
   174   87   89 am   BACKBONE|DICT|INTERRES
   175   89   90 1    
   176   89  210 1    
   177   90   91 1    
   178   90   92 1    
   179   90  211 1    
   180   91  212 1    
   181   91  213 1    
   182   91  214 1    
   183   92   93 2    
   184   92   94 am   BACKBONE|DICT|INTERRES
   185   94   95 1    
   186   94  215 1    
   187   95   96 1    
   188   95   97 1    
   189   95  216 1    
   190   96  217 1    
   191   96  218 1    
   192   96  219 1    
   193   97   98 2    
   194   97   99 am   BACKBONE|DICT|INTERRES
   195   99  100 1    
   196   99  220 1    
   197  100  101 1    
   198  100  102 1    
   199  100  221 1    
   200  101  222 1    
   201  101  223 1    
   202  101  224 1    
   203  102  103 2    
   204  102  104 am   BACKBONE|DICT|INTERRES
   205  104  105 1    
   206  104  225 1    
   207  105  106 1    
   208  105  107 1    
   209  105  226 1    
   210  106  227 1    
   211  106  228 1    
   212  106  229 1    
   213  107  108 2    
   214  107  109 am   BACKBONE|DICT|INTERRES
   215  109  110 1    
   216  109  230 1    
   217  110  111 1    
   218  110  112 1    
   219  110  231 1    
   220  111  232 1    
   221  111  233 1    
   222  111  234 1    
   223  112  113 2    
   224  112  114 am   BACKBONE|DICT|INTERRES
   225  114  115 1    
   226  114  235 1    
   227  115  116 1    
   228  115  117 1    
   229  115  236 1    
   230  116  237 1    
   231  116  238 1    
   232  116  239 1    
   233  117  118 2    
   234  117  119 am   BACKBONE|DICT|INTERRES
   235  119  120 1    
   236  119  240 1    
   237  120  121 1    
   238  120  124 1    
   239  120  241 1    
   240  121  122 am   BACKBONE|DICT|INTERRES
   241  121  123 2    
   242  122  242 1    
   243  122  243 1    
   244  124  125 1    
   245  124  244 1    
   246  124  245 1    
   247  125  126 1    
   248  126  246 1    
   249  126  247 1    
@<TRIPOS>SUBSTRUCTURE
     1 UNK         1 GROUP             0       ****    0 ROOT    
