@<TRIPOS>MOLECULE
3R540
247   249    1
SMALL
USER_CHARGES


@<TRIPOS>ATOM
      1 CA          4.2206  -13.3590  -51.2828 C.3       0 UNK        -0.1800 
      2 C           4.2173  -13.7719  -49.8181 C.2       0 UNK         0.5000 
      3 O           5.2390  -14.2331  -49.3069 O.2       0 UNK        -0.5000 
      4 N           3.0767  -13.6058  -49.1374 N.am      1 UNK        -0.5000 
      5 CA          2.8720  -13.9403  -47.7239 C.3       1 UNK         0.1400 
      6 C6          1.3801  -14.2219  -47.4050 C.3       23 UNK        -0.0398 
      7 S7          0.8053  -15.7221  -48.2682 S.3       23 UNK        -0.2404 
      8 C8         -0.8692  -15.2450  -48.8124 C.3       23 UNK        -0.0205 
      9 C9         -1.4675  -16.2588  -49.7836 C.ar      23 UNK        -0.0193 
     10 C10        -2.0341  -15.8352  -50.9894 C.ar      23 UNK        -0.1150 
     11 C11        -2.5626  -16.7639  -51.8922 C.ar      23 UNK        -0.0193 
     12 C12        -2.5076  -18.1279  -51.5909 C.ar      23 UNK        -0.1150 
     13 C13        -1.9556  -18.5672  -50.3840 C.ar      23 UNK        -0.0193 
     14 C14        -1.4589  -17.6232  -49.4808 C.ar      23 UNK        -0.1150 
     15 C15        -1.9095  -20.0549  -50.0562 C.3       23 UNK        -0.0205 
     16 S16        -0.2048  -20.6910  -49.9200 S.3       23 UNK        -0.2404 
     17 C17         0.1088  -20.5172  -48.1255 C.3       23 UNK        -0.0398 
     18 CA          0.1349  -21.8574  -47.3545 C.3       11 UNK         0.1400 
     19 N           0.5566  -21.6615  -45.9666 N.am      11 UNK        -0.5000 
     20 C           0.7828  -22.6408  -45.0799 C.2       10 UNK         0.5000 
     21 O           0.7181  -23.8406  -45.3476 O.2       10 UNK        -0.5000 
     22 CA          1.0629  -22.2014  -43.6323 C.3       10 UNK         0.1400 
     23 CB          2.5017  -21.6862  -43.4801 C.3       10 UNK        -0.1800 
     24 N           0.1170  -21.1839  -43.1697 N.am      10 UNK        -0.5000 
     25 C          -1.2056  -21.3808  -43.0587 C.2       9 UNK         0.5000 
     26 O          -1.7598  -22.4553  -43.2926 O.2       9 UNK        -0.5000 
     27 CA         -2.0596  -20.1675  -42.6535 C.3       9 UNK         0.1400 
     28 CB         -2.0026  -19.9518  -41.1341 C.3       9 UNK        -0.1800 
     29 N          -1.6687  -18.9384  -43.3461 N.am      9 UNK        -0.5000 
     30 C          -1.7609  -18.7483  -44.6708 C.2       8 UNK         0.5000 
     31 O          -2.2088  -19.5851  -45.4521 O.2       8 UNK        -0.5000 
     32 CA         -1.2068  -17.4265  -45.2303 C.3       8 UNK         0.1400 
     33 CB         -2.1849  -16.2680  -44.9939 C.3       8 UNK        -0.1800 
     34 N           0.1040  -17.0936  -44.6781 N.am      8 UNK        -0.5000 
     35 C           1.2005  -17.8501  -44.8281 C.2       7 UNK         0.5000 
     36 O           1.2325  -18.8949  -45.4787 O.2       7 UNK        -0.5000 
     37 CA          2.4620  -17.3873  -44.0838 C.3       7 UNK         0.1400 
     38 CB          3.2189  -16.3218  -44.8898 C.3       7 UNK        -0.1800 
     39 N           2.1524  -16.8854  -42.7449 N.am      7 UNK        -0.5000 
     40 C           1.7511  -17.6637  -41.7298 C.2       6 UNK         0.5000 
     41 O           1.6387  -18.8877  -41.8068 O.2       6 UNK        -0.5000 
     42 CA          1.3665  -16.9441  -40.4255 C.3       6 UNK         0.1400 
     43 CB          2.6172  -16.5569  -39.6231 C.3       6 UNK        -0.1800 
     44 N           0.5488  -15.7542  -40.6672 N.am      6 UNK        -0.5000 
     45 C          -0.7057  -15.7944  -41.1394 C.2       5 UNK         0.5000 
     46 O          -1.2978  -16.8372  -41.4108 O.2       5 UNK        -0.5000 
     47 CA         -1.4146  -14.4506  -41.3856 C.3       5 UNK         0.1400 
     48 CB         -2.1560  -13.9966  -40.1196 C.3       5 UNK        -0.1800 
     49 N          -0.5281  -13.3772  -41.8336 N.am      5 UNK        -0.5000 
     50 C           0.2555  -13.4082  -42.9197 C.2       4 UNK         0.5000 
     51 O           0.3591  -14.3855  -43.6644 O.2       4 UNK        -0.5000 
     52 CA          1.0842  -12.1462  -43.2230 C.3       4 UNK         0.1400 
     53 CB          0.8041  -10.9502  -42.2844 C.3       4 UNK        -0.1800 
     54 N           2.5159  -12.4433  -43.2570 N.am      4 UNK        -0.5000 
     55 C           3.2708  -12.9540  -42.2713 C.2       3 UNK         0.5000 
     56 O           2.8208  -13.2805  -41.1716 O.2       3 UNK        -0.5000 
     57 CA          4.7762  -13.1503  -42.5578 C.3       3 UNK         0.1400 
     58 CB          5.2660  -14.5307  -42.0876 C.3       3 UNK        -0.1800 
     59 N           5.1127  -12.9710  -43.9747 N.am      3 UNK        -0.5000 
     60 C           5.4249  -11.7970  -44.5421 C.2       2 UNK         0.5000 
     61 O           5.5272  -10.7416  -43.9164 O.2       2 UNK        -0.5000 
     62 CA          5.6204  -11.7898  -46.0711 C.3       2 UNK         0.1400 
     63 CB          7.1015  -11.9916  -46.4243 C.3       2 UNK        -0.1800 
     64 N           4.8196  -12.7869  -46.7891 N.am      2 UNK        -0.5000 
     65 C           3.4814  -12.8472  -46.8209 C.2       1 UNK         0.5000 
     66 O           2.7519  -12.0791  -46.1931 O.2       1 UNK        -0.5000 
     67 C          -1.2161  -22.5981  -47.4325 C.2       11 UNK         0.5000 
     68 O          -1.3159  -23.5868  -48.1563 O.2       11 UNK        -0.5000 
     69 N          -2.2126  -22.1445  -46.6589 N.am      12 UNK        -0.5000 
     70 CA         -3.5502  -22.7334  -46.6141 C.3       12 UNK         0.1400 
     71 CB         -4.4768  -21.8750  -45.7418 C.3       12 UNK        -0.1800 
     72 C          -3.5694  -24.2003  -46.1559 C.2       12 UNK         0.5000 
     73 O          -4.3576  -24.9825  -46.6893 O.2       12 UNK        -0.5000 
     74 N          -2.6932  -24.5488  -45.2063 N.am      13 UNK        -0.5000 
     75 CA         -2.4855  -25.9171  -44.7444 C.3       13 UNK         0.1400 
     76 CB         -1.7185  -25.8937  -43.4129 C.3       13 UNK        -0.1800 
     77 C          -1.7514  -26.7819  -45.7859 C.2       13 UNK         0.5000 
     78 O          -2.1896  -27.8994  -46.0611 O.2       13 UNK        -0.5000 
     79 N          -0.6425  -26.2631  -46.3306 N.am      14 UNK        -0.5000 
     80 CA          0.2564  -27.0017  -47.2179 C.3       14 UNK         0.1400 
     81 CB          1.6272  -26.3077  -47.2417 C.3       14 UNK        -0.1800 
     82 C          -0.2767  -27.1705  -48.6511 C.2       14 UNK         0.5000 
     83 O          -0.1396  -28.2540  -49.2207 O.2       14 UNK        -0.5000 
     84 N          -0.8385  -26.0969  -49.2182 N.am      15 UNK        -0.5000 
     85 CA         -1.2064  -25.9929  -50.6321 C.3       15 UNK         0.1400 
     86 CB         -0.5650  -24.7192  -51.2081 C.3       15 UNK        -0.1800 
     87 C          -2.7291  -26.0087  -50.8649 C.2       15 UNK         0.5000 
     88 O          -3.1486  -25.8968  -52.0162 O.2       15 UNK        -0.5000 
     89 N          -3.5144  -26.1796  -49.7909 N.am      16 UNK        -0.5000 
     90 CA         -4.9775  -26.2630  -49.7443 C.3       16 UNK         0.1400 
     91 CB         -5.5137  -27.4206  -50.6127 C.3       16 UNK        -0.1800 
     92 C          -5.6576  -24.9185  -50.0693 C.2       16 UNK         0.5000 
     93 O          -5.9560  -24.6258  -51.2299 O.2       16 UNK        -0.5000 
     94 N          -5.9110  -24.1366  -49.0116 N.am      17 UNK        -0.5000 
     95 CA         -6.6185  -22.8517  -49.0059 C.3       17 UNK         0.1400 
     96 CB         -8.1193  -23.0653  -49.3073 C.3       17 UNK        -0.1800 
     97 C          -5.9309  -21.8075  -49.9112 C.2       17 UNK         0.5000 
     98 O          -4.7602  -21.5053  -49.6902 O.2       17 UNK        -0.5000 
     99 N          -6.6483  -21.2788  -50.9108 N.am      18 UNK        -0.5000 
    100 CA        -6.1386  -20.3027  -51.8780 C.3       18 UNK         0.1400 
    101 CB        -7.3306  -19.5881  -52.5310 C.3       18 UNK        -0.1800 
    102 C         -5.2131  -20.9116  -52.9525 C.2       18 UNK         0.5000 
    103 O         -4.6804  -20.1625  -53.7736 O.2       18 UNK        -0.5000 
    104 N         -5.0614  -22.2470  -52.9624 N.am      19 UNK        -0.5000 
    105 CA        -4.1444  -23.0402  -53.7936 C.3       19 UNK         0.1400 
    106 CB        -2.6867  -22.7079  -53.4149 C.3       19 UNK        -0.1800 
    107 C         -4.3799  -22.9221  -55.3153 C.2       19 UNK         0.5000 
    108 O         -3.4875  -23.2536  -56.0970 O.2       19 UNK        -0.5000 
    109 N         -5.5588  -22.4115  -55.7046 N.am      20 UNK        -0.5000 
    110 CA        -5.9475  -21.9722  -57.0514 C.3       20 UNK         0.1400 
    111 CB        -5.9868  -23.1598  -58.0354 C.3       20 UNK        -0.1800 
    112 C         -5.1075  -20.7866  -57.5868 C.2       20 UNK         0.5000 
    113 O         -5.1749  -20.4861  -58.7797 O.2       20 UNK        -0.5000 
    114 N         -4.3482  -20.1213  -56.7045 N.am      21 UNK        -0.5000 
    115 CA        -3.4903  -18.9811  -57.0211 C.3       21 UNK         0.1400 
    116 CB        -2.2507  -19.0301  -56.1138 C.3       21 UNK        -0.1800 
    117 C         -4.2328  -17.6434  -56.8619 C.2       21 UNK         0.5000 
    118 O         -3.8904  -16.6775  -57.5451 O.2       21 UNK        -0.5000 
    119 N         -5.2376  -17.6104  -55.9794 N.am      22 UNK        -0.5000 
    120 CA        -6.0777  -16.4367  -55.6955 C.3       22 UNK         0.1400 
    121 C         -7.5568  -16.7952  -55.3692 C.2       22 UNK         0.5000 
    122 N         -8.0330  -17.9889  -55.7048 N.am      22 UNK        -0.7600 
    123 O         -8.2976  -15.9773  -54.8305 O.2       22 UNK        -0.5000 
    124 C124       -5.4166  -15.4599  -54.6843 C.3       23 UNK        -0.0398 
    125 S125       -4.9987  -16.2088  -53.0697 S.3       23 UNK        -0.2404 
    126 C126       -3.1858  -16.2939  -53.1961 C.3       23 UNK        -0.0205 
    127 H127        4.9616  -12.5774  -51.4502 H         1 UNK         0.0600 
    128 H128        3.2485  -12.9804  -51.5996 H         1 UNK         0.0600 
    129 H129        4.4745  -14.2120  -51.9120 H         1 UNK         0.0600 
    130 H130        2.2766  -13.2102  -49.6095 H         1 UNK         0.3000 
    131 H131        3.4250  -14.8569  -47.5106 H         1 UNK         0.0600 
    132 H132        1.2261  -14.3776  -46.3364 H         1 UNK         0.0800 
    133 H133        0.7602  -13.3671  -47.6795 H         1 UNK         0.0800 
    134 H134       -0.8236  -14.2594  -49.2780 H         1 UNK         0.0800 
    135 H135       -1.5203  -15.1540  -47.9423 H         1 UNK         0.0800 
    136 H136       -2.0642  -14.7813  -51.2282 H         1 UNK         0.1150 
    137 H137       -2.9050  -18.8445  -52.2956 H         1 UNK         0.1150 
    138 H138       -1.0317  -17.9455  -48.5468 H         1 UNK         0.1150 
    139 H139       -2.4605  -20.2428  -49.1338 H         1 UNK         0.0800 
    140 H140       -2.4211  -20.6268  -50.8319 H         1 UNK         0.0800 
    141 H141       -0.6246  -19.8535  -47.6707 H         1 UNK         0.0800 
    142 H142        1.0703  -20.0137  -48.0162 H         1 UNK         0.0800 
    143 H143        0.8838  -22.4986  -47.8244 H         1 UNK         0.0600 
    144 H144        0.6598  -20.6965  -45.6621 H         1 UNK         0.3000 
    145 H145        0.9477  -23.0784  -42.9919 H         1 UNK         0.0600 
    146 H146        2.7272  -21.4514  -42.4398 H         1 UNK         0.0600 
    147 H147        3.2218  -22.4370  -43.8077 H         1 UNK         0.0600 
    148 H148        2.6740  -20.7859  -44.0700 H         1 UNK         0.0600 
    149 H149        0.5033  -20.2792  -42.9235 H         1 UNK         0.3000 
    150 H150       -3.0944  -20.3859  -42.9241 H         1 UNK         0.0600 
    151 H151       -2.2820  -20.8599  -40.5983 H         1 UNK         0.0600 
    152 H152       -2.6916  -19.1667  -40.8225 H         1 UNK         0.0600 
    153 H153       -1.0019  -19.6689  -40.8050 H         1 UNK         0.0600 
    154 H154       -1.3266  -18.1818  -42.7596 H         1 UNK         0.3000 
    155 H155       -1.0835  -17.5462  -46.3070 H         1 UNK         0.0600 
    156 H156       -2.3877  -16.1243  -43.9336 H         1 UNK         0.0600 
    157 H157       -3.1386  -16.4594  -45.4871 H         1 UNK         0.0600 
    158 H158       -1.7930  -15.3316  -45.3914 H         1 UNK         0.0600 
    159 H159        0.1763  -16.2210  -44.1621 H         1 UNK         0.3000 
    160 H160        3.1156  -18.2566  -43.9842 H         1 UNK         0.0600 
    161 H161        2.7362  -15.3471  -44.8266 H         1 UNK         0.0600 
    162 H162        3.2767  -16.6016  -45.9423 H         1 UNK         0.0600 
    163 H163        4.2437  -16.2170  -44.5377 H         1 UNK         0.0600 
    164 H164        2.1377  -15.8839  -42.6192 H         1 UNK         0.3000 
    165 H165        0.7808  -17.6415  -39.8225 H         1 UNK         0.0600 
    166 H166        2.3483  -16.1161  -38.6631 H         1 UNK         0.0600 
    167 H167        3.2356  -17.4315  -39.4177 H         1 UNK         0.0600 
    168 H168        3.2345  -15.8369  -40.1600 H         1 UNK         0.0600 
    169 H169        0.9834  -14.8549  -40.5070 H         1 UNK         0.3000 
    170 H170       -2.1550  -14.6081  -42.1710 H         1 UNK         0.0600 
    171 H171       -2.8446  -14.7682  -39.7723 H         1 UNK         0.0600 
    172 H172       -1.4648  -13.7819  -39.3036 H         1 UNK         0.0600 
    173 H173       -2.7451  -13.0987  -40.3069 H         1 UNK         0.0600 
    174 H174       -0.5216  -12.5395  -41.2705 H         1 UNK         0.3000 
    175 H175        0.8074  -11.8425  -44.2334 H         1 UNK         0.0600 
    176 H176        1.0607  -11.1676  -41.2470 H         1 UNK         0.0600 
    177 H177        1.3841  -10.0785  -42.5879 H         1 UNK         0.0600 
    178 H178       -0.2464  -10.6586  -42.3176 H         1 UNK         0.0600 
    179 H179        2.9572  -12.2533  -44.1491 H         1 UNK         0.3000 
    180 H180        5.3082  -12.4006  -41.9687 H         1 UNK         0.0600 
    181 H181        4.6653  -15.3404  -42.4975 H         1 UNK         0.0600 
    182 H182        5.2132  -14.6089  -41.0013 H         1 UNK         0.0600 
    183 H183        6.3048  -14.7022  -42.3701 H         1 UNK         0.0600 
    184 H184        5.0534  -13.7871  -44.5653 H         1 UNK         0.3000 
    185 H185        5.3157  -10.8053  -46.4319 H         1 UNK         0.0600 
    186 H186        7.7271  -11.2466  -45.9308 H         1 UNK         0.0600 
    187 H187        7.4574  -12.9758  -46.1170 H         1 UNK         0.0600 
    188 H188        7.2679  -11.8945  -47.4974 H         1 UNK         0.0600 
    189 H189        5.3261  -13.4191  -47.4002 H         1 UNK         0.3000 
    190 H190       -2.0737  -21.3011  -46.1064 H         1 UNK         0.3000 
    191 H191       -3.9312  -22.7183  -47.6330 H         1 UNK         0.0600 
    192 H192       -4.1019  -21.7911  -44.7218 H         1 UNK         0.0600 
    193 H193       -5.4779  -22.3044  -45.6891 H         1 UNK         0.0600 
    194 H194       -4.5762  -20.8683  -46.1481 H         1 UNK         0.0600 
    195 H195       -2.1229  -23.8265  -44.7784 H         1 UNK         0.3000 
    196 H196       -3.4623  -26.3700  -44.5613 H         1 UNK         0.0600 
    197 H197       -1.5534  -26.9045  -43.0382 H         1 UNK         0.0600 
    198 H198       -2.2746  -25.3494  -42.6494 H         1 UNK         0.0600 
    199 H199       -0.7432  -25.4164  -43.5160 H         1 UNK         0.0600 
    200 H200       -0.3341  -25.3385  -46.0424 H         1 UNK         0.3000 
    201 H201        0.3998  -28.0009  -46.8007 H         1 UNK         0.0600 
    202 H202        2.0608  -26.2577  -46.2428 H         1 UNK         0.0600 
    203 H203        1.5553  -25.2892  -47.6259 H         1 UNK         0.0600 
    204 H204        2.3307  -26.8497  -47.8751 H         1 UNK         0.0600 
    205 H205       -0.9400  -25.2371  -48.6780 H         1 UNK         0.3000 
    206 H206       -0.8006  -26.8406  -51.1876 H         1 UNK         0.0600 
    207 H207        0.5082  -24.6961  -51.0185 H         1 UNK         0.0600 
    208 H208       -0.7010  -24.6690  -52.2882 H         1 UNK         0.0600 
    209 H209       -0.9992  -23.8168  -50.7772 H         1 UNK         0.0600 
    210 H210       -3.0508  -26.2345  -48.8947 H         1 UNK         0.3000 
    211 H211       -5.2274  -26.5156  -48.7129 H         1 UNK         0.0600 
    212 H212       -5.3456  -27.2544  -51.6768 H         1 UNK         0.0600 
    213 H213       -6.5887  -27.5393  -50.4729 H         1 UNK         0.0600 
    214 H214       -5.0441  -28.3663  -50.3425 H         1 UNK         0.0600 
    215 H215       -5.5601  -24.4497  -48.1107 H         1 UNK         0.3000 
    216 H216       -6.5434  -22.4632  -47.9898 H         1 UNK         0.0600 
    217 H217       -8.6778  -22.1327  -49.2170 H         1 UNK         0.0600 
    218 H218       -8.5595  -23.7671  -48.5988 H         1 UNK         0.0600 
    219 H219       -8.2884  -23.4630  -50.3086 H         1 UNK         0.0600 
    220 H220       -7.6004  -21.5891  -51.0398 H         1 UNK         0.3000 
    221 H221       -5.5517  -19.5551  -51.3397 H         1 UNK         0.0600 
    222 H222       -7.9768  -19.1297  -51.7823 H         1 UNK         0.0600 
    223 H223       -6.9867  -18.7888  -53.1870 H         1 UNK         0.0600 
    224 H224       -7.9358  -20.2705  -53.1288 H         1 UNK         0.0600 
    225 H225       -5.5627  -22.7880  -52.2659 H         1 UNK         0.3000 
    226 H226       -4.3313  -24.0836  -53.5399 H         1 UNK         0.0600 
    227 H227       -1.9905  -23.3973  -53.8930 H         1 UNK         0.0600 
    228 H228       -2.4076  -21.6981  -53.7177 H         1 UNK         0.0600 
    229 H229       -2.5367  -22.7872  -52.3386 H         1 UNK         0.0600 
    230 H230       -6.2135  -22.1835  -54.9700 H         1 UNK         0.3000 
    231 H231       -6.9663  -21.5941  -56.9574 H         1 UNK         0.0600 
    232 H232       -6.5776  -23.9841  -57.6359 H         1 UNK         0.0600 
    233 H233       -4.9889  -23.5380  -58.2580 H         1 UNK         0.0600 
    234 H234       -6.4407  -22.8672  -58.9829 H         1 UNK         0.0600 
    235 H235       -4.3748  -20.3995  -55.7285 H         1 UNK         0.3000 
    236 H236       -3.1520  -19.0512  -58.0570 H         1 UNK         0.0600 
    237 H237       -1.6018  -18.1704  -56.2857 H         1 UNK         0.0600 
    238 H238       -2.5217  -19.0355  -55.0579 H         1 UNK         0.0600 
    239 H239       -1.6616  -19.9267  -56.3069 H         1 UNK         0.0600 
    240 H240       -5.4154  -18.4275  -55.4118 H         1 UNK         0.3000 
    241 H241       -6.1749  -15.8818  -56.6304 H         1 UNK         0.0600 
    242 H242       -7.4734  -18.6438  -56.2240 H         1 UNK         0.3800 
    243 H243       -8.9962  -18.2053  -55.5013 H         1 UNK         0.3800 
    244 H244       -4.5135  -15.0431  -55.1313 H         1 UNK         0.0800 
    245 H245       -6.0630  -14.5997  -54.5040 H         1 UNK         0.0800 
    246 H246       -2.9101  -16.9694  -54.0052 H         1 UNK         0.0800 
    247 H247       -2.7921  -15.3126  -53.4653 H         1 UNK         0.0800 
@<TRIPOS>BOND
     1    1    2 1    
     2    1  127 1    
     3    1  128 1    
     4    1  129 1    
     5    2    3 2    
     6    2    4 am   BACKBONE|DICT|INTERRES
     7    4    5 1    
     8    4  130 1    
     9    5    6 1    
    10    5   65 1    
    11    5  131 1    
    12    6    7 1    
    13    6  132 1    
    14    6  133 1    
    15    7    8 1    
    16    8    9 1    
    17    8  134 1    
    18    8  135 1    
    19    9   10 ar   
    20    9   14 ar   
    21   10   11 ar   
    22   10  136 1    
    23   11   12 ar   
    24   11  126 1    
    25   12   13 ar   
    26   12  137 1    
    27   13   14 ar   
    28   13   15 1    
    29   14  138 1    
    30   15   16 1    
    31   15  139 1    
    32   15  140 1    
    33   16   17 1    
    34   17   18 1    
    35   17  141 1    
    36   17  142 1    
    37   18   19 1    
    38   18   67 1    
    39   18  143 1    
    40   19   20 am   BACKBONE|DICT|INTERRES
    41   19  144 1    
    42   20   21 2    
    43   20   22 1    
    44   22   23 1    
    45   22   24 1    
    46   22  145 1    
    47   23  146 1    
    48   23  147 1    
    49   23  148 1    
    50   24   25 am   BACKBONE|DICT|INTERRES
    51   24  149 1    
    52   25   26 2    
    53   25   27 1    
    54   27   28 1    
    55   27   29 1    
    56   27  150 1    
    57   28  151 1    
    58   28  152 1    
    59   28  153 1    
    60   29   30 am   BACKBONE|DICT|INTERRES
    61   29  154 1    
    62   30   31 2    
    63   30   32 1    
    64   32   33 1    
    65   32   34 1    
    66   32  155 1    
    67   33  156 1    
    68   33  157 1    
    69   33  158 1    
    70   34   35 am   BACKBONE|DICT|INTERRES
    71   34  159 1    
    72   35   36 2    
    73   35   37 1    
    74   37   38 1    
    75   37   39 1    
    76   37  160 1    
    77   38  161 1    
    78   38  162 1    
    79   38  163 1    
    80   39   40 am   BACKBONE|DICT|INTERRES
    81   39  164 1    
    82   40   41 2    
    83   40   42 1    
    84   42   43 1    
    85   42   44 1    
    86   42  165 1    
    87   43  166 1    
    88   43  167 1    
    89   43  168 1    
    90   44   45 am   BACKBONE|DICT|INTERRES
    91   44  169 1    
    92   45   46 2    
    93   45   47 1    
    94   47   48 1    
    95   47   49 1    
    96   47  170 1    
    97   48  171 1    
    98   48  172 1    
    99   48  173 1    
   100   49   50 am   BACKBONE|DICT|INTERRES
   101   49  174 1    
   102   50   51 2    
   103   50   52 1    
   104   52   53 1    
   105   52   54 1    
   106   52  175 1    
   107   53  176 1    
   108   53  177 1    
   109   53  178 1    
   110   54   55 am   BACKBONE|DICT|INTERRES
   111   54  179 1    
   112   55   56 2    
   113   55   57 1    
   114   57   58 1    
   115   57   59 1    
   116   57  180 1    
   117   58  181 1    
   118   58  182 1    
   119   58  183 1    
   120   59   60 am   BACKBONE|DICT|INTERRES
   121   59  184 1    
   122   60   61 2    
   123   60   62 1    
   124   62   63 1    
   125   62   64 1    
   126   62  185 1    
   127   63  186 1    
   128   63  187 1    
   129   63  188 1    
   130   64   65 am   BACKBONE|DICT|INTERRES
   131   64  189 1    
   132   65   66 2    
   133   67   68 2    
   134   67   69 am   BACKBONE|DICT|INTERRES
   135   69   70 1    
   136   69  190 1    
   137   70   71 1    
   138   70   72 1    
   139   70  191 1    
   140   71  192 1    
   141   71  193 1    
   142   71  194 1    
   143   72   73 2    
   144   72   74 am   BACKBONE|DICT|INTERRES
   145   74   75 1    
   146   74  195 1    
   147   75   76 1    
   148   75   77 1    
   149   75  196 1    
   150   76  197 1    
   151   76  198 1    
   152   76  199 1    
   153   77   78 2    
   154   77   79 am   BACKBONE|DICT|INTERRES
   155   79   80 1    
   156   79  200 1    
   157   80   81 1    
   158   80   82 1    
   159   80  201 1    
   160   81  202 1    
   161   81  203 1    
   162   81  204 1    
   163   82   83 2    
   164   82   84 am   BACKBONE|DICT|INTERRES
   165   84   85 1    
   166   84  205 1    
   167   85   86 1    
   168   85   87 1    
   169   85  206 1    
   170   86  207 1    
   171   86  208 1    
   172   86  209 1    
   173   87   88 2    
   174   87   89 am   BACKBONE|DICT|INTERRES
   175   89   90 1    
   176   89  210 1    
   177   90   91 1    
   178   90   92 1    
   179   90  211 1    
   180   91  212 1    
   181   91  213 1    
   182   91  214 1    
   183   92   93 2    
   184   92   94 am   BACKBONE|DICT|INTERRES
   185   94   95 1    
   186   94  215 1    
   187   95   96 1    
   188   95   97 1    
   189   95  216 1    
   190   96  217 1    
   191   96  218 1    
   192   96  219 1    
   193   97   98 2    
   194   97   99 am   BACKBONE|DICT|INTERRES
   195   99  100 1    
   196   99  220 1    
   197  100  101 1    
   198  100  102 1    
   199  100  221 1    
   200  101  222 1    
   201  101  223 1    
   202  101  224 1    
   203  102  103 2    
   204  102  104 am   BACKBONE|DICT|INTERRES
   205  104  105 1    
   206  104  225 1    
   207  105  106 1    
   208  105  107 1    
   209  105  226 1    
   210  106  227 1    
   211  106  228 1    
   212  106  229 1    
   213  107  108 2    
   214  107  109 am   BACKBONE|DICT|INTERRES
   215  109  110 1    
   216  109  230 1    
   217  110  111 1    
   218  110  112 1    
   219  110  231 1    
   220  111  232 1    
   221  111  233 1    
   222  111  234 1    
   223  112  113 2    
   224  112  114 am   BACKBONE|DICT|INTERRES
   225  114  115 1    
   226  114  235 1    
   227  115  116 1    
   228  115  117 1    
   229  115  236 1    
   230  116  237 1    
   231  116  238 1    
   232  116  239 1    
   233  117  118 2    
   234  117  119 am   BACKBONE|DICT|INTERRES
   235  119  120 1    
   236  119  240 1    
   237  120  121 1    
   238  120  124 1    
   239  120  241 1    
   240  121  122 am   BACKBONE|DICT|INTERRES
   241  121  123 2    
   242  122  242 1    
   243  122  243 1    
   244  124  125 1    
   245  124  244 1    
   246  124  245 1    
   247  125  126 1    
   248  126  246 1    
   249  126  247 1    
@<TRIPOS>SUBSTRUCTURE
     1 UNK         1 GROUP             0       ****    0 ROOT    
