@<TRIPOS>MOLECULE
3R540
247   249    1
SMALL
USER_CHARGES


@<TRIPOS>ATOM
      1 CA          1.1104  -15.7796  -41.8517 C.3       0 UNK        -0.1800 
      2 C           1.4806  -14.8613  -43.0063 C.2       0 UNK         0.5000 
      3 O           1.2911  -13.6484  -42.9133 O.2       0 UNK        -0.5000 
      4 N           2.0378  -15.4313  -44.0824 N.am      1 UNK        -0.5000 
      5 CA          2.4298  -14.7446  -45.3204 C.3       1 UNK         0.1400 
      6 C6          2.4067  -15.7274  -46.5218 C.3       23 UNK        -0.0398 
      7 S7          2.4066  -14.9019  -48.1541 S.3       23 UNK        -0.2404 
      8 C8          0.6588  -15.0438  -48.6709 C.3       23 UNK        -0.0205 
      9 C9          0.1867  -16.4259  -49.1320 C.ar      23 UNK        -0.0193 
     10 C10        -1.1244  -16.5476  -49.6031 C.ar      23 UNK        -0.1150 
     11 C11        -1.6132  -17.7729  -50.0656 C.ar      23 UNK        -0.0193 
     12 C12        -0.7912  -18.9024  -50.0219 C.ar      23 UNK        -0.1150 
     13 C13         0.5211  -18.8011  -49.5546 C.ar      23 UNK        -0.0193 
     14 C14         1.0041  -17.5645  -49.1176 C.ar      23 UNK        -0.1150 
     15 C15         1.4378  -20.0146  -49.5476 C.3       23 UNK        -0.0205 
     16 S16         1.7400  -20.6138  -47.8577 S.3       23 UNK        -0.2404 
     17 C17         0.1782  -21.4750  -47.4811 C.3       23 UNK        -0.0398 
     18 CA          0.4039  -22.9573  -47.1051 C.3       11 UNK         0.1400 
     19 N           1.3102  -23.1182  -45.9651 N.am      11 UNK        -0.5000 
     20 C           1.8750  -24.2729  -45.5891 C.2       10 UNK         0.5000 
     21 O           1.7116  -25.3379  -46.1819 O.2       10 UNK        -0.5000 
     22 CA          2.7242  -24.2360  -44.3050 C.3       10 UNK         0.1400 
     23 CB          4.1527  -23.7658  -44.6161 C.3       10 UNK        -0.1800 
     24 N           2.1414  -23.3703  -43.2779 N.am      10 UNK        -0.5000 
     25 C           0.9753  -23.6078  -42.6598 C.2       9 UNK         0.5000 
     26 O           0.3026  -24.6222  -42.8418 O.2       9 UNK        -0.5000 
     27 CA          0.4440  -22.4972  -41.7319 C.3       9 UNK         0.1400 
     28 CB          0.9858  -22.6793  -40.3066 C.3       9 UNK        -0.1800 
     29 N           0.7636  -21.1457  -42.2067 N.am      9 UNK        -0.5000 
     30 C           0.3342  -20.6289  -43.3660 C.2       8 UNK         0.5000 
     31 O          -0.3934  -21.2405  -44.1514 O.2       8 UNK        -0.5000 
     32 CA          0.8730  -19.2334  -43.7328 C.3       8 UNK         0.1400 
     33 CB          2.3504  -19.3245  -44.1505 C.3       8 UNK        -0.1800 
     34 N           0.1190  -18.6259  -44.8297 N.am      8 UNK        -0.5000 
     35 C          -1.0698  -18.0268  -44.6900 C.2       7 UNK         0.5000 
     36 O          -1.6365  -17.8688  -43.6056 O.2       7 UNK        -0.5000 
     37 CA         -1.7438  -17.5452  -45.9893 C.3       7 UNK         0.1400 
     38 CB         -2.6365  -18.6430  -46.5828 C.3       7 UNK        -0.1800 
     39 N          -2.5583  -16.3497  -45.7799 N.am      7 UNK        -0.5000 
     40 C          -2.0590  -15.1330  -45.5414 C.2       6 UNK         0.5000 
     41 O          -0.8557  -14.8890  -45.4659 O.2       6 UNK        -0.5000 
     42 CA         -3.0738  -13.9932  -45.3484 C.3       6 UNK         0.1400 
     43 CB         -3.1616  -13.5968  -43.8664 C.3       6 UNK        -0.1800 
     44 N          -2.7053  -12.8168  -46.1350 N.am      6 UNK        -0.5000 
     45 C          -2.7159  -12.7508  -47.4742 C.2       5 UNK         0.5000 
     46 O          -3.1116  -13.6640  -48.1993 O.2       5 UNK        -0.5000 
     47 CA         -2.2177  -11.4399  -48.1174 C.3       5 UNK         0.1400 
     48 CB         -3.4074  -10.5629  -48.5380 C.3       5 UNK        -0.1800 
     49 N          -1.3405  -10.6598  -47.2394 N.am      5 UNK        -0.5000 
     50 C          -0.0660  -10.9757  -46.9793 C.2       4 UNK         0.5000 
     51 O           0.5149  -11.9391  -47.4821 O.2       4 UNK        -0.5000 
     52 CA          0.6586  -10.0837  -45.9563 C.3       4 UNK         0.1400 
     53 CB          0.2246  -10.4529  -44.5285 C.3       4 UNK        -0.1800 
     54 N           2.1055  -10.2502  -46.0537 N.am      4 UNK        -0.5000 
     55 C           2.9079   -9.6322  -46.9291 C.2       3 UNK         0.5000 
     56 O           2.5137   -8.7640  -47.7097 O.2       3 UNK        -0.5000 
     57 CA          4.3917  -10.0704  -46.9645 C.3       3 UNK         0.1400 
     58 CB          5.3563   -8.8670  -46.9304 C.3       3 UNK        -0.1800 
     59 N           4.7473  -11.0763  -45.9515 N.am      3 UNK        -0.5000 
     60 C           4.8073  -10.9332  -44.6190 C.2       2 UNK         0.5000 
     61 O           4.6561   -9.8608  -44.0326 O.2       2 UNK        -0.5000 
     62 CA          4.9671  -12.2415  -43.8194 C.3       2 UNK         0.1400 
     63 CB          5.0247  -12.0119  -42.2986 C.3       2 UNK        -0.1800 
     64 N           3.8488  -13.1389  -44.1142 N.am      2 UNK        -0.5000 
     65 C           3.7694  -13.9849  -45.1483 C.2       1 UNK         0.5000 
     66 O           4.7000  -14.1521  -45.9381 O.2       1 UNK        -0.5000 
     67 C          -0.9436  -23.6540  -46.8445 C.2       11 UNK         0.5000 
     68 O          -1.5100  -24.2360  -47.7687 O.2       11 UNK        -0.5000 
     69 N          -1.4262  -23.6019  -45.5955 N.am      12 UNK        -0.5000 
     70 CA         -2.6164  -24.3191  -45.1410 C.3       12 UNK         0.1400 
     71 CB         -3.0347  -23.8115  -43.7537 C.3       12 UNK        -0.1800 
     72 C          -2.4142  -25.8440  -45.1511 C.2       12 UNK         0.5000 
     73 O          -3.2830  -26.5621  -45.6455 O.2       12 UNK        -0.5000 
     74 N          -1.2537  -26.3060  -44.6634 N.am      13 UNK        -0.5000 
     75 CA         -0.8448  -27.7135  -44.6740 C.3       13 UNK         0.1400 
     76 CB          0.4470  -27.8776  -43.8593 C.3       13 UNK        -0.1800 
     77 C          -0.6706  -28.2820  -46.0964 C.2       13 UNK         0.5000 
     78 O          -1.0612  -29.4223  -46.3482 O.2       13 UNK        -0.5000 
     79 N          -0.1212  -27.4663  -47.0065 N.am      14 UNK        -0.5000 
     80 CA          0.0390  -27.7788  -48.4291 C.3       14 UNK         0.1400 
     81 CB          1.0861  -26.8240  -49.0253 C.3       14 UNK        -0.1800 
     82 C          -1.2727  -27.6933  -49.2378 C.2       14 UNK         0.5000 
     83 O          -1.2925  -28.1308  -50.3885 O.2       14 UNK        -0.5000 
     84 N          -2.3223  -27.1047  -48.6439 N.am      15 UNK        -0.5000 
     85 CA         -3.6286  -26.7824  -49.2315 C.3       15 UNK         0.1400 
     86 CB         -4.3761  -28.0531  -49.6849 C.3       15 UNK        -0.1800 
     87 C          -3.5621  -25.7004  -50.3325 C.2       15 UNK         0.5000 
     88 O          -4.5018  -25.5602  -51.1156 O.2       15 UNK        -0.5000 
     89 N          -2.4784  -24.9133  -50.3419 N.am      16 UNK        -0.5000 
     90 CA         -2.2911  -23.7413  -51.1957 C.3       16 UNK         0.1400 
     91 CB         -0.8069  -23.3450  -51.1911 C.3       16 UNK        -0.1800 
     92 C          -3.1667  -22.5621  -50.7394 C.2       16 UNK         0.5000 
     93 O          -3.6128  -21.7791  -51.5745 O.2       16 UNK        -0.5000 
     94 N          -3.4358  -22.4833  -49.4272 N.am      17 UNK        -0.5000 
     95 CA         -4.3150  -21.4882  -48.8060 C.3       17 UNK         0.1400 
     96 CB         -4.2402  -21.6429  -47.2806 C.3       17 UNK        -0.1800 
     97 C          -5.7857  -21.5872  -49.2604 C.2       17 UNK         0.5000 
     98 O          -6.5060  -20.5910  -49.1998 O.2       17 UNK        -0.5000 
     99 N          -6.2075  -22.7864  -49.6861 N.am      18 UNK        -0.5000 
    100 CA        -7.5638  -23.0747  -50.1506 C.3       18 UNK         0.1400 
    101 CB        -7.8135  -24.5874  -50.0446 C.3       18 UNK        -0.1800 
    102 C         -7.8324  -22.5818  -51.5854 C.2       18 UNK         0.5000 
    103 O         -8.9966  -22.4120  -51.9506 O.2       18 UNK        -0.5000 
    104 N         -6.7725  -22.3696  -52.3772 N.am      19 UNK        -0.5000 
    105 CA        -6.8596  -21.8466  -53.7368 C.3       19 UNK         0.1400 
    106 CB        -5.6077  -22.2688  -54.5220 C.3       19 UNK        -0.1800 
    107 C         -6.9872  -20.3164  -53.7057 C.2       19 UNK         0.5000 
    108 O         -6.2038  -19.6568  -53.0212 O.2       19 UNK        -0.5000 
    109 N         -7.9302  -19.7700  -54.4842 N.am      20 UNK        -0.5000 
    110 CA        -8.1636  -18.3258  -54.6109 C.3       20 UNK         0.1400 
    111 CB        -9.4681  -18.0918  -55.3879 C.3       20 UNK        -0.1800 
    112 C         -6.9933  -17.5758  -55.2790 C.2       20 UNK         0.5000 
    113 O         -6.7595  -16.4074  -54.9694 O.2       20 UNK        -0.5000 
    114 N         -6.2698  -18.2747  -56.1633 N.am      21 UNK        -0.5000 
    115 CA        -5.0502  -17.8014  -56.8195 C.3       21 UNK         0.1400 
    116 CB        -4.9703  -18.4482  -58.2126 C.3       21 UNK        -0.1800 
    117 C         -3.7742  -18.1060  -56.0050 C.2       21 UNK         0.5000 
    118 O         -2.6874  -17.7191  -56.4361 O.2       21 UNK        -0.5000 
    119 N         -3.9145  -18.8090  -54.8711 N.am      22 UNK        -0.5000 
    120 CA        -2.8362  -19.2592  -53.9716 C.3       22 UNK         0.1400 
    121 C         -1.8802  -20.3373  -54.5716 C.2       22 UNK         0.5000 
    122 N         -2.2239  -20.9897  -55.6759 N.am      22 UNK        -0.7600 
    123 O         -0.8208  -20.6144  -54.0164 O.2       22 UNK        -0.5000 
    124 C124       -2.0718  -18.0866  -53.2969 C.3       23 UNK        -0.0398 
    125 S125       -3.1593  -17.0468  -52.2602 S.3       23 UNK        -0.2404 
    126 C126       -3.0208  -17.8675  -50.6373 C.3       23 UNK        -0.0205 
    127 H127        1.7640  -16.6508  -41.8123 H         1 UNK         0.0600 
    128 H128        0.0803  -16.1197  -41.9597 H         1 UNK         0.0600 
    129 H129        1.1992  -15.2517  -40.9021 H         1 UNK         0.0600 
    130 H130        2.2007  -16.4260  -44.0722 H         1 UNK         0.3000 
    131 H131        1.6750  -13.9807  -45.5219 H         1 UNK         0.0600 
    132 H132        3.2522  -16.4158  -46.4769 H         1 UNK         0.0800 
    133 H133        1.5137  -16.3507  -46.4623 H         1 UNK         0.0800 
    134 H134        0.0213  -14.6967  -47.8590 H         1 UNK         0.0800 
    135 H135        0.5042  -14.3411  -49.4906 H         1 UNK         0.0800 
    136 H136       -1.7651  -15.6767  -49.6320 H         1 UNK         0.1150 
    137 H137       -1.1641  -19.8522  -50.3795 H         1 UNK         0.1150 
    138 H138        2.0251  -17.5076  -48.7716 H         1 UNK         0.1150 
    139 H139        1.0341  -20.8201  -50.1630 H         1 UNK         0.0800 
    140 H140        2.3931  -19.7400  -49.9973 H         1 UNK         0.0800 
    141 H141       -0.4977  -21.3966  -48.3341 H         1 UNK         0.0800 
    142 H142       -0.3059  -20.9418  -46.6657 H         1 UNK         0.0800 
    143 H143        0.8618  -23.4539  -47.9631 H         1 UNK         0.0600 
    144 H144        1.4652  -22.2958  -45.4027 H         1 UNK         0.3000 
    145 H145        2.7751  -25.2517  -43.9074 H         1 UNK         0.0600 
    146 H146        4.7820  -23.8018  -43.7267 H         1 UNK         0.0600 
    147 H147        4.6178  -24.4046  -45.3682 H         1 UNK         0.0600 
    148 H148        4.1682  -22.7441  -44.9981 H         1 UNK         0.0600 
    149 H149        2.6364  -22.5180  -43.0626 H         1 UNK         0.3000 
    150 H150       -0.6435  -22.5897  -41.6977 H         1 UNK         0.0600 
    151 H151        2.0702  -22.5687  -40.2695 H         1 UNK         0.0600 
    152 H152        0.7434  -23.6707  -39.9211 H         1 UNK         0.0600 
    153 H153        0.5496  -21.9511  -39.6226 H         1 UNK         0.0600 
    154 H154        1.3640  -20.5924  -41.6124 H         1 UNK         0.3000 
    155 H155        0.7933  -18.5963  -42.8507 H         1 UNK         0.0600 
    156 H156        2.4922  -20.0059  -44.9897 H         1 UNK         0.0600 
    157 H157        2.9720  -19.6848  -43.3301 H         1 UNK         0.0600 
    158 H158        2.7430  -18.3518  -44.4450 H         1 UNK         0.0600 
    159 H159        0.4899  -18.7695  -45.7573 H         1 UNK         0.3000 
    160 H160       -0.9659  -17.3025  -46.7147 H         1 UNK         0.0600 
    161 H161       -2.0457  -19.5105  -46.8689 H         1 UNK         0.0600 
    162 H162       -3.1493  -18.2969  -47.4802 H         1 UNK         0.0600 
    163 H163       -3.3916  -18.9753  -45.8695 H         1 UNK         0.0600 
    164 H164       -3.5587  -16.4805  -45.7900 H         1 UNK         0.3000 
    165 H165       -4.0593  -14.3289  -45.6779 H         1 UNK         0.0600 
    166 H166       -3.9039  -12.8141  -43.7088 H         1 UNK         0.0600 
    167 H167       -3.4521  -14.4499  -43.2518 H         1 UNK         0.0600 
    168 H168       -2.2036  -13.2339  -43.4903 H         1 UNK         0.0600 
    169 H169       -2.3317  -12.0329  -45.6233 H         1 UNK         0.3000 
    170 H170       -1.6599  -11.7090  -49.0171 H         1 UNK         0.0600 
    171 H171       -3.0719   -9.6651  -49.0574 H         1 UNK         0.0600 
    172 H172       -4.0686  -11.1017  -49.2182 H         1 UNK         0.0600 
    173 H173       -4.0032  -10.2526  -47.6787 H         1 UNK         0.0600 
    174 H174       -1.7510   -9.8514  -46.7942 H         1 UNK         0.3000 
    175 H175        0.4006   -9.0400  -46.1482 H         1 UNK         0.0600 
    176 H176       -0.8400  -10.2701  -44.3794 H         1 UNK         0.0600 
    177 H177        0.4089  -11.5061  -44.3129 H         1 UNK         0.0600 
    178 H178        0.7607   -9.8607  -43.7865 H         1 UNK         0.0600 
    179 H179        2.5095  -10.9731  -45.4797 H         1 UNK         0.3000 
    180 H180        4.5273  -10.5666  -47.9265 H         1 UNK         0.0600 
    181 H181        5.2176   -8.2572  -46.0376 H         1 UNK         0.0600 
    182 H182        5.1981   -8.2171  -47.7918 H         1 UNK         0.0600 
    183 H183        6.3960   -9.1928  -46.9584 H         1 UNK         0.0600 
    184 H184        4.8639  -12.0187  -46.3083 H         1 UNK         0.3000 
    185 H185        5.9066  -12.7065  -44.1252 H         1 UNK         0.0600 
    186 H186        5.8542  -11.3553  -42.0330 H         1 UNK         0.0600 
    187 H187        4.1078  -11.5548  -41.9240 H         1 UNK         0.0600 
    188 H188        5.1711  -12.9512  -41.7652 H         1 UNK         0.0600 
    189 H189        3.0309  -13.0637  -43.5151 H         1 UNK         0.3000 
    190 H190       -0.9392  -23.0342  -44.9100 H         1 UNK         0.3000 
    191 H191       -3.4272  -24.0995  -45.8353 H         1 UNK         0.0600 
    192 H192       -3.2043  -22.7345  -43.7640 H         1 UNK         0.0600 
    193 H193       -3.9624  -24.2851  -43.4306 H         1 UNK         0.0600 
    194 H194       -2.2795  -24.0238  -42.9978 H         1 UNK         0.0600 
    195 H195       -0.6138  -25.6503  -44.2241 H         1 UNK         0.3000 
    196 H196       -1.6309  -28.2902  -44.1822 H         1 UNK         0.0600 
    197 H197        0.7553  -28.9230  -43.8220 H         1 UNK         0.0600 
    198 H198        0.3099  -27.5415  -42.8313 H         1 UNK         0.0600 
    199 H199        1.2702  -27.3074  -44.2900 H         1 UNK         0.0600 
    200 H200        0.2539  -26.5750  -46.6961 H         1 UNK         0.3000 
    201 H201        0.4148  -28.7998  -48.5206 H         1 UNK         0.0600 
    202 H202        1.2665  -27.0440  -50.0783 H         1 UNK         0.0600 
    203 H203        2.0416  -26.9139  -48.5082 H         1 UNK         0.0600 
    204 H204        0.7648  -25.7841  -48.9575 H         1 UNK         0.0600 
    205 H205       -2.1924  -26.7788  -47.6947 H         1 UNK         0.3000 
    206 H206       -4.2092  -26.3389  -48.4215 H         1 UNK         0.0600 
    207 H207       -4.4062  -28.7973  -48.8890 H         1 UNK         0.0600 
    208 H208       -5.4083  -27.8237  -49.9522 H         1 UNK         0.0600 
    209 H209       -3.9098  -28.5110  -50.5573 H         1 UNK         0.0600 
    210 H210       -1.8089  -25.0346  -49.5905 H         1 UNK         0.3000 
    211 H211       -2.5784  -24.0003  -52.2170 H         1 UNK         0.0600 
    212 H212       -0.4579  -23.0935  -50.1898 H         1 UNK         0.0600 
    213 H213       -0.6331  -22.4764  -51.8280 H         1 UNK         0.0600 
    214 H214       -0.1828  -24.1551  -51.5686 H         1 UNK         0.0600 
    215 H215       -3.0108  -23.1688  -48.8141 H         1 UNK         0.3000 
    216 H216       -3.9442  -20.4973  -49.0726 H         1 UNK         0.0600 
    217 H217       -4.7901  -20.8438  -46.7824 H         1 UNK         0.0600 
    218 H218       -3.2131  -21.6059  -46.9202 H         1 UNK         0.0600 
    219 H219       -4.6808  -22.5855  -46.9569 H         1 UNK         0.0600 
    220 H220       -5.5455  -23.5474  -49.7248 H         1 UNK         0.3000 
    221 H221       -8.2723  -22.5686  -49.4912 H         1 UNK         0.0600 
    222 H222       -7.1513  -25.1524  -50.7012 H         1 UNK         0.0600 
    223 H223       -7.6616  -24.9439  -49.0257 H         1 UNK         0.0600 
    224 H224       -8.8385  -24.8337  -50.3247 H         1 UNK         0.0600 
    225 H225       -5.8438  -22.4453  -51.9839 H         1 UNK         0.3000 
    226 H226       -7.7332  -22.2744  -54.2335 H         1 UNK         0.0600 
    227 H227       -5.6481  -21.9058  -55.5495 H         1 UNK         0.0600 
    228 H228       -4.6959  -21.8769  -54.0705 H         1 UNK         0.0600 
    229 H229       -5.5171  -23.3544  -54.5636 H         1 UNK         0.0600 
    230 H230       -8.5400  -20.3730  -55.0182 H         1 UNK         0.3000 
    231 H231       -8.2859  -17.9148  -53.6064 H         1 UNK         0.0600 
    232 H232       -9.4156  -18.5023  -56.3971 H         1 UNK         0.0600 
    233 H233       -9.6830  -17.0261  -55.4779 H         1 UNK         0.0600 
    234 H234      -10.3172  -18.5511  -54.8813 H         1 UNK         0.0600 
    235 H235       -6.5505  -19.2233  -56.3638 H         1 UNK         0.3000 
    236 H236       -5.1023  -16.7185  -56.9503 H         1 UNK         0.0600 
    237 H237       -5.8491  -18.2053  -58.8103 H         1 UNK         0.0600 
    238 H238       -4.0986  -18.0914  -58.7627 H         1 UNK         0.0600 
    239 H239       -4.8967  -19.5346  -58.1496 H         1 UNK         0.0600 
    240 H240       -4.8478  -19.0367  -54.5533 H         1 UNK         0.3000 
    241 H241       -3.3529  -19.7903  -53.1741 H         1 UNK         0.0600 
    242 H242       -3.0850  -20.7789  -56.1514 H         1 UNK         0.3800 
    243 H243       -1.6017  -21.6891  -56.0488 H         1 UNK         0.3800 
    244 H244       -1.2512  -18.4564  -52.6838 H         1 UNK         0.0800 
    245 H245       -1.6028  -17.4515  -54.0485 H         1 UNK         0.0800 
    246 H246       -3.7230  -17.4030  -49.9437 H         1 UNK         0.0800 
    247 H247       -3.3323  -18.9079  -50.7406 H         1 UNK         0.0800 
@<TRIPOS>BOND
     1    1    2 1    
     2    1  127 1    
     3    1  128 1    
     4    1  129 1    
     5    2    3 2    
     6    2    4 am   BACKBONE|DICT|INTERRES
     7    4    5 1    
     8    4  130 1    
     9    5    6 1    
    10    5   65 1    
    11    5  131 1    
    12    6    7 1    
    13    6  132 1    
    14    6  133 1    
    15    7    8 1    
    16    8    9 1    
    17    8  134 1    
    18    8  135 1    
    19    9   10 ar   
    20    9   14 ar   
    21   10   11 ar   
    22   10  136 1    
    23   11   12 ar   
    24   11  126 1    
    25   12   13 ar   
    26   12  137 1    
    27   13   14 ar   
    28   13   15 1    
    29   14  138 1    
    30   15   16 1    
    31   15  139 1    
    32   15  140 1    
    33   16   17 1    
    34   17   18 1    
    35   17  141 1    
    36   17  142 1    
    37   18   19 1    
    38   18   67 1    
    39   18  143 1    
    40   19   20 am   BACKBONE|DICT|INTERRES
    41   19  144 1    
    42   20   21 2    
    43   20   22 1    
    44   22   23 1    
    45   22   24 1    
    46   22  145 1    
    47   23  146 1    
    48   23  147 1    
    49   23  148 1    
    50   24   25 am   BACKBONE|DICT|INTERRES
    51   24  149 1    
    52   25   26 2    
    53   25   27 1    
    54   27   28 1    
    55   27   29 1    
    56   27  150 1    
    57   28  151 1    
    58   28  152 1    
    59   28  153 1    
    60   29   30 am   BACKBONE|DICT|INTERRES
    61   29  154 1    
    62   30   31 2    
    63   30   32 1    
    64   32   33 1    
    65   32   34 1    
    66   32  155 1    
    67   33  156 1    
    68   33  157 1    
    69   33  158 1    
    70   34   35 am   BACKBONE|DICT|INTERRES
    71   34  159 1    
    72   35   36 2    
    73   35   37 1    
    74   37   38 1    
    75   37   39 1    
    76   37  160 1    
    77   38  161 1    
    78   38  162 1    
    79   38  163 1    
    80   39   40 am   BACKBONE|DICT|INTERRES
    81   39  164 1    
    82   40   41 2    
    83   40   42 1    
    84   42   43 1    
    85   42   44 1    
    86   42  165 1    
    87   43  166 1    
    88   43  167 1    
    89   43  168 1    
    90   44   45 am   BACKBONE|DICT|INTERRES
    91   44  169 1    
    92   45   46 2    
    93   45   47 1    
    94   47   48 1    
    95   47   49 1    
    96   47  170 1    
    97   48  171 1    
    98   48  172 1    
    99   48  173 1    
   100   49   50 am   BACKBONE|DICT|INTERRES
   101   49  174 1    
   102   50   51 2    
   103   50   52 1    
   104   52   53 1    
   105   52   54 1    
   106   52  175 1    
   107   53  176 1    
   108   53  177 1    
   109   53  178 1    
   110   54   55 am   BACKBONE|DICT|INTERRES
   111   54  179 1    
   112   55   56 2    
   113   55   57 1    
   114   57   58 1    
   115   57   59 1    
   116   57  180 1    
   117   58  181 1    
   118   58  182 1    
   119   58  183 1    
   120   59   60 am   BACKBONE|DICT|INTERRES
   121   59  184 1    
   122   60   61 2    
   123   60   62 1    
   124   62   63 1    
   125   62   64 1    
   126   62  185 1    
   127   63  186 1    
   128   63  187 1    
   129   63  188 1    
   130   64   65 am   BACKBONE|DICT|INTERRES
   131   64  189 1    
   132   65   66 2    
   133   67   68 2    
   134   67   69 am   BACKBONE|DICT|INTERRES
   135   69   70 1    
   136   69  190 1    
   137   70   71 1    
   138   70   72 1    
   139   70  191 1    
   140   71  192 1    
   141   71  193 1    
   142   71  194 1    
   143   72   73 2    
   144   72   74 am   BACKBONE|DICT|INTERRES
   145   74   75 1    
   146   74  195 1    
   147   75   76 1    
   148   75   77 1    
   149   75  196 1    
   150   76  197 1    
   151   76  198 1    
   152   76  199 1    
   153   77   78 2    
   154   77   79 am   BACKBONE|DICT|INTERRES
   155   79   80 1    
   156   79  200 1    
   157   80   81 1    
   158   80   82 1    
   159   80  201 1    
   160   81  202 1    
   161   81  203 1    
   162   81  204 1    
   163   82   83 2    
   164   82   84 am   BACKBONE|DICT|INTERRES
   165   84   85 1    
   166   84  205 1    
   167   85   86 1    
   168   85   87 1    
   169   85  206 1    
   170   86  207 1    
   171   86  208 1    
   172   86  209 1    
   173   87   88 2    
   174   87   89 am   BACKBONE|DICT|INTERRES
   175   89   90 1    
   176   89  210 1    
   177   90   91 1    
   178   90   92 1    
   179   90  211 1    
   180   91  212 1    
   181   91  213 1    
   182   91  214 1    
   183   92   93 2    
   184   92   94 am   BACKBONE|DICT|INTERRES
   185   94   95 1    
   186   94  215 1    
   187   95   96 1    
   188   95   97 1    
   189   95  216 1    
   190   96  217 1    
   191   96  218 1    
   192   96  219 1    
   193   97   98 2    
   194   97   99 am   BACKBONE|DICT|INTERRES
   195   99  100 1    
   196   99  220 1    
   197  100  101 1    
   198  100  102 1    
   199  100  221 1    
   200  101  222 1    
   201  101  223 1    
   202  101  224 1    
   203  102  103 2    
   204  102  104 am   BACKBONE|DICT|INTERRES
   205  104  105 1    
   206  104  225 1    
   207  105  106 1    
   208  105  107 1    
   209  105  226 1    
   210  106  227 1    
   211  106  228 1    
   212  106  229 1    
   213  107  108 2    
   214  107  109 am   BACKBONE|DICT|INTERRES
   215  109  110 1    
   216  109  230 1    
   217  110  111 1    
   218  110  112 1    
   219  110  231 1    
   220  111  232 1    
   221  111  233 1    
   222  111  234 1    
   223  112  113 2    
   224  112  114 am   BACKBONE|DICT|INTERRES
   225  114  115 1    
   226  114  235 1    
   227  115  116 1    
   228  115  117 1    
   229  115  236 1    
   230  116  237 1    
   231  116  238 1    
   232  116  239 1    
   233  117  118 2    
   234  117  119 am   BACKBONE|DICT|INTERRES
   235  119  120 1    
   236  119  240 1    
   237  120  121 1    
   238  120  124 1    
   239  120  241 1    
   240  121  122 am   BACKBONE|DICT|INTERRES
   241  121  123 2    
   242  122  242 1    
   243  122  243 1    
   244  124  125 1    
   245  124  244 1    
   246  124  245 1    
   247  125  126 1    
   248  126  246 1    
   249  126  247 1    
@<TRIPOS>SUBSTRUCTURE
     1 UNK         1 GROUP             0       ****    0 ROOT    
