@<TRIPOS>MOLECULE
3R540
247   249    1
SMALL
USER_CHARGES


@<TRIPOS>ATOM
      1 CA         -0.9476  -13.1438  -48.4399 C.3       0 UNK        -0.1800 
      2 C           0.3943  -12.9209  -47.7566 C.2       0 UNK         0.5000 
      3 O           0.5133  -13.1556  -46.5562 O.2       0 UNK        -0.5000 
      4 N           1.3976  -12.4679  -48.5214 N.am      1 UNK        -0.5000 
      5 CA          2.7806  -12.2025  -48.0889 C.3       1 UNK         0.1400 
      6 C6          3.5568  -13.4676  -47.6292 C.3       23 UNK        -0.0398 
      7 S7          3.5303  -14.8136  -48.8621 S.3       23 UNK        -0.2404 
      8 C8          2.5784  -16.0568  -47.9414 C.3       23 UNK        -0.0205 
      9 C9          2.0194  -17.1343  -48.8529 C.ar      23 UNK        -0.0193 
     10 C10         0.8868  -16.8749  -49.6303 C.ar      23 UNK        -0.1150 
     11 C11         0.3481  -17.8687  -50.4522 C.ar      23 UNK        -0.0193 
     12 C12         0.9478  -19.1312  -50.4874 C.ar      23 UNK        -0.1150 
     13 C13         2.0805  -19.4016  -49.7131 C.ar      23 UNK        -0.0193 
     14 C14         2.6136  -18.3981  -48.8997 C.ar      23 UNK        -0.1150 
     15 C15         2.7325  -20.7762  -49.7565 C.3       23 UNK        -0.0205 
     16 S16         2.3458  -21.7645  -48.2771 S.3       23 UNK        -0.2404 
     17 C17         0.5365  -21.9126  -48.4280 C.3       23 UNK        -0.0398 
     18 CA         -0.0586  -22.9473  -47.4492 C.3       11 UNK         0.1400 
     19 N           0.0920  -22.5461  -46.0457 N.am      11 UNK        -0.5000 
     20 C          -0.1583  -23.3460  -45.0000 C.2       10 UNK         0.5000 
     21 O          -0.5261  -24.5144  -45.1111 O.2       10 UNK        -0.5000 
     22 CA         -0.0400  -22.7278  -43.5962 C.3       10 UNK         0.1400 
     23 CB          1.4296  -22.5803  -43.1754 C.3       10 UNK        -0.1800 
     24 N          -0.7266  -21.4397  -43.4997 N.am      10 UNK        -0.5000 
     25 C          -2.0508  -21.2808  -43.6414 C.2       9 UNK         0.5000 
     26 O          -2.8351  -22.2159  -43.8060 O.2       9 UNK        -0.5000 
     27 CA         -2.5864  -19.8363  -43.6426 C.3       9 UNK         0.1400 
     28 CB         -2.7822  -19.3241  -42.2082 C.3       9 UNK        -0.1800 
     29 N          -1.7280  -18.9093  -44.3809 N.am      9 UNK        -0.5000 
     30 C          -1.4598  -18.9930  -45.6921 C.2       8 UNK         0.5000 
     31 O          -1.9416  -19.8431  -46.4380 O.2       8 UNK        -0.5000 
     32 CA         -0.4333  -17.9945  -46.2524 C.3       8 UNK         0.1400 
     33 CB         -1.0865  -16.6245  -46.4919 C.3       8 UNK        -0.1800 
     34 N           0.7362  -17.8629  -45.3789 N.am      8 UNK        -0.5000 
     35 C           1.5746  -18.8742  -45.1023 C.2       7 UNK         0.5000 
     36 O           1.4774  -19.9944  -45.5997 O.2       7 UNK        -0.5000 
     37 CA          2.6530  -18.6219  -44.0356 C.3       7 UNK         0.1400 
     38 CB          3.9090  -17.9779  -44.6401 C.3       7 UNK        -0.1800 
     39 N           2.1433  -17.8017  -42.9374 N.am      7 UNK        -0.5000 
     40 C           1.2841  -18.2539  -42.0110 C.2       6 UNK         0.5000 
     41 O           0.8864  -19.4177  -41.9642 O.2       6 UNK        -0.5000 
     42 CA          0.7430  -17.2306  -40.9936 C.3       6 UNK         0.1400 
     43 CB          1.6754  -17.1339  -39.7773 C.3       6 UNK        -0.1800 
     44 N           0.5614  -15.8980  -41.5696 N.am      6 UNK        -0.5000 
     45 C          -0.2922  -15.6051  -42.5610 C.2       5 UNK         0.5000 
     46 O          -1.0843  -16.4198  -43.0328 O.2       5 UNK        -0.5000 
     47 CA         -0.2169  -14.1855  -43.1574 C.3       5 UNK         0.1400 
     48 CB         -1.3225  -13.2933  -42.5759 C.3       5 UNK        -0.1800 
     49 N           1.0792  -13.5322  -42.9561 N.am      5 UNK        -0.5000 
     50 C           2.2457  -13.9444  -43.4692 C.2       4 UNK         0.5000 
     51 O           2.3544  -14.9566  -44.1635 O.2       4 UNK        -0.5000 
     52 CA          3.4920  -13.1119  -43.0986 C.3       4 UNK         0.1400 
     53 CB          4.7470  -13.5118  -43.8941 C.3       4 UNK        -0.1800 
     54 N           3.2698  -11.6688  -43.2328 N.am      4 UNK        -0.5000 
     55 C           2.6930  -10.8921  -42.3037 C.2       3 UNK         0.5000 
     56 O           2.2369  -11.3346  -41.2486 O.2       3 UNK        -0.5000 
     57 CA          2.5880   -9.3811  -42.5870 C.3       3 UNK         0.1400 
     58 CB          3.7317   -8.6266  -41.8920 C.3       3 UNK        -0.1800 
     59 N           2.6005   -9.0500  -44.0108 N.am      3 UNK        -0.5000 
     60 C           1.5876   -9.2721  -44.8580 C.2       2 UNK         0.5000 
     61 O           0.5108   -9.7658  -44.5206 O.2       2 UNK        -0.5000 
     62 CA          1.8098   -8.8854  -46.3354 C.3       2 UNK         0.1400 
     63 CB          2.9811   -7.9024  -46.5623 C.3       2 UNK        -0.1800 
     64 N           1.9629  -10.0684  -47.1859 N.am      2 UNK        -0.5000 
     65 C           2.8681  -11.0517  -47.0573 C.2       1 UNK         0.5000 
     66 O           3.7384  -11.0669  -46.1834 O.2       1 UNK        -0.5000 
     67 C          -1.5254  -23.2540  -47.8166 C.2       11 UNK         0.5000 
     68 O          -1.7737  -24.1865  -48.5819 O.2       11 UNK        -0.5000 
     69 N          -2.4795  -22.4954  -47.2604 N.am      12 UNK        -0.5000 
     70 CA         -3.9153  -22.7291  -47.4185 C.3       12 UNK         0.1400 
     71 CB         -4.7078  -21.5710  -46.7978 C.3       12 UNK        -0.1800 
     72 C          -4.3726  -24.0774  -46.8357 C.2       12 UNK         0.5000 
     73 O          -5.2420  -24.7204  -47.4221 O.2       12 UNK        -0.5000 
     74 N          -3.7653  -24.4902  -45.7171 N.am      13 UNK        -0.5000 
     75 CA         -4.0048  -25.7840  -45.0864 C.3       13 UNK         0.1400 
     76 CB         -3.5924  -25.7123  -43.6072 C.3       13 UNK        -0.1800 
     77 C          -3.2709  -26.9281  -45.8096 C.2       13 UNK         0.5000 
     78 O          -3.8925  -27.9426  -46.1273 O.2       13 UNK        -0.5000 
     79 N          -1.9601  -26.7602  -46.0290 N.am      14 UNK        -0.5000 
     80 CA         -1.0645  -27.8227  -46.4868 C.3       14 UNK         0.1400 
     81 CB          0.3730  -27.4898  -46.0569 C.3       14 UNK        -0.1800 
     82 C          -1.1155  -28.0789  -48.0015 C.2       14 UNK         0.5000 
     83 O          -1.0623  -29.2384  -48.4140 O.2       14 UNK        -0.5000 
     84 N          -1.1809  -27.0067  -48.8001 N.am      15 UNK        -0.5000 
     85 CA         -1.0549  -27.0521  -50.2603 C.3       15 UNK         0.1400 
     86 CB          0.0831  -26.1041  -50.6806 C.3       15 UNK        -0.1800 
     87 C          -2.3625  -26.6850  -50.9839 C.2       15 UNK         0.5000 
     88 O          -2.3885  -26.7167  -52.2148 O.2       15 UNK        -0.5000 
     89 N          -3.4101  -26.3283  -50.2239 N.am      16 UNK        -0.5000 
     90 CA         -4.7127  -25.8368  -50.6908 C.3       16 UNK         0.1400 
     91 CB         -5.4745  -26.9253  -51.4756 C.3       16 UNK        -0.1800 
     92 C          -4.6053  -24.5038  -51.4623 C.2       16 UNK         0.5000 
     93 O          -5.3957  -24.2500  -52.3736 O.2       16 UNK        -0.5000 
     94 N          -3.6323  -23.6609  -51.0804 N.am      17 UNK        -0.5000 
     95 CA         -3.2944  -22.4123  -51.7709 C.3       17 UNK         0.1400 
     96 CB         -2.0418  -21.7933  -51.1400 C.3       17 UNK        -0.1800 
     97 C          -4.4345  -21.3791  -51.8262 C.2       17 UNK         0.5000 
     98 O          -4.4811  -20.5944  -52.7715 O.2       17 UNK        -0.5000 
     99 N          -5.3486  -21.4142  -50.8467 N.am      18 UNK        -0.5000 
    100 CA        -6.5480  -20.5760  -50.8096 C.3       18 UNK         0.1400 
    101 CB        -7.1826  -20.6458  -49.4135 C.3       18 UNK        -0.1800 
    102 C         -7.5746  -20.9547  -51.8931 C.2       18 UNK         0.5000 
    103 O         -8.2034  -20.0640  -52.4641 O.2       18 UNK        -0.5000 
    104 N         -7.6985  -22.2571  -52.1900 N.am      19 UNK        -0.5000 
    105 CA        -8.5536  -22.7795  -53.2598 C.3       19 UNK         0.1400 
    106 CB        -8.7885  -24.2829  -53.0464 C.3       19 UNK        -0.1800 
    107 C         -7.9550  -22.5084  -54.6520 C.2       19 UNK         0.5000 
    108 O         -8.6997  -22.2700  -55.6029 O.2       19 UNK        -0.5000 
    109 N         -6.6174  -22.5024  -54.7308 N.am      20 UNK        -0.5000 
    110 CA        -5.8425  -22.1144  -55.9109 C.3       20 UNK         0.1400 
    111 CB        -4.4380  -22.7280  -55.7946 C.3       20 UNK        -0.1800 
    112 C         -5.7463  -20.5848  -56.1058 C.2       20 UNK         0.5000 
    113 O         -5.1733  -20.1461  -57.1043 O.2       20 UNK        -0.5000 
    114 N         -6.2583  -19.8016  -55.1421 N.am      21 UNK        -0.5000 
    115 CA        -6.2289  -18.3351  -55.0628 C.3       21 UNK         0.1400 
    116 CB        -7.1566  -17.7224  -56.1318 C.3       21 UNK        -0.1800 
    117 C         -4.7976  -17.7531  -55.1028 C.2       21 UNK         0.5000 
    118 O         -4.5768  -16.6818  -55.6704 O.2       21 UNK        -0.5000 
    119 N         -3.8475  -18.4928  -54.5163 N.am      22 UNK        -0.5000 
    120 CA        -2.3977  -18.2518  -54.5541 C.3       22 UNK         0.1400 
    121 C         -1.7478  -18.4027  -55.9687 C.2       22 UNK         0.5000 
    122 N         -2.4170  -18.9923  -56.9540 N.am      22 UNK        -0.7600 
    123 O         -0.6051  -18.0076  -56.1812 O.2       22 UNK        -0.5000 
    124 C124       -2.0020  -16.9416  -53.8126 C.3       23 UNK        -0.0398 
    125 S125       -0.3820  -17.0560  -52.9788 S.3       23 UNK        -0.2404 
    126 C126       -0.8746  -17.5782  -51.3078 C.3       23 UNK        -0.0205 
    127 H127       -1.7272  -12.5810  -47.9267 H         1 UNK         0.0600 
    128 H128       -1.2146  -14.1997  -48.4123 H         1 UNK         0.0600 
    129 H129       -0.9298  -12.8261  -49.4826 H         1 UNK         0.0600 
    130 H130        1.2232  -12.3059  -49.5034 H         1 UNK         0.3000 
    131 H131        3.2921  -11.8244  -48.9751 H         1 UNK         0.0600 
    132 H132        3.1609  -13.8290  -46.6791 H         1 UNK         0.0800 
    133 H133        4.6040  -13.2221  -47.4459 H         1 UNK         0.0800 
    134 H134        3.2199  -16.4960  -47.1787 H         1 UNK         0.0800 
    135 H135        1.7608  -15.5739  -47.4096 H         1 UNK         0.0800 
    136 H136        0.4294  -15.8962  -49.5979 H         1 UNK         0.1150 
    137 H137        0.5356  -19.9009  -51.1242 H         1 UNK         0.1150 
    138 H138        3.4843  -18.6080  -48.2945 H         1 UNK         0.1150 
    139 H139        2.4239  -21.3230  -50.6489 H         1 UNK         0.0800 
    140 H140        3.8147  -20.6603  -49.8300 H         1 UNK         0.0800 
    141 H141        0.3247  -22.1965  -49.4588 H         1 UNK         0.0800 
    142 H142        0.0837  -20.9318  -48.2701 H         1 UNK         0.0800 
    143 H143        0.4916  -23.8820  -47.5784 H         1 UNK         0.0600 
    144 H144        0.4351  -21.6032  -45.8781 H         1 UNK         0.3000 
    145 H145       -0.5210  -23.4114  -42.8934 H         1 UNK         0.0600 
    146 H146        1.5118  -22.1920  -42.1601 H         1 UNK         0.0600 
    147 H147        1.9380  -23.5449  -43.1971 H         1 UNK         0.0600 
    148 H148        1.9768  -21.9086  -43.8357 H         1 UNK         0.0600 
    149 H149       -0.1508  -20.6265  -43.3134 H         1 UNK         0.3000 
    150 H150       -3.5609  -19.8440  -44.1343 H         1 UNK         0.0600 
    151 H151       -3.4566  -19.9750  -41.6505 H         1 UNK         0.0600 
    152 H152       -3.2154  -18.3236  -42.2024 H         1 UNK         0.0600 
    153 H153       -1.8397  -19.2830  -41.6625 H         1 UNK         0.0600 
    154 H154       -1.3294  -18.1374  -43.8532 H         1 UNK         0.3000 
    155 H155       -0.0866  -18.3797  -47.2134 H         1 UNK         0.0600 
    156 H156       -1.5320  -16.2164  -45.5856 H         1 UNK         0.0600 
    157 H157       -1.8798  -16.7023  -47.2361 H         1 UNK         0.0600 
    158 H158       -0.3686  -15.8970  -46.8617 H         1 UNK         0.0600 
    159 H159        0.8717  -16.9761  -44.9145 H         1 UNK         0.3000 
    160 H160        2.9463  -19.5930  -43.6312 H         1 UNK         0.0600 
    161 H161        3.7179  -16.9683  -44.9985 H         1 UNK         0.0600 
    162 H162        4.2800  -18.5621  -45.4833 H         1 UNK         0.0600 
    163 H163        4.7117  -17.9212  -43.9049 H         1 UNK         0.0600 
    164 H164        2.3766  -16.8173  -42.9612 H         1 UNK         0.3000 
    165 H165       -0.2315  -17.5851  -40.6516 H         1 UNK         0.0600 
    166 H166        1.2643  -16.4699  -39.0167 H         1 UNK         0.0600 
    167 H167        1.8133  -18.1116  -39.3134 H         1 UNK         0.0600 
    168 H168        2.6619  -16.7595  -40.0538 H         1 UNK         0.0600 
    169 H169        1.1690  -15.1668  -41.2315 H         1 UNK         0.3000 
    170 H170       -0.3802  -14.2772  -44.2328 H         1 UNK         0.0600 
    171 H171       -2.3064  -13.7373  -42.7334 H         1 UNK         0.0600 
    172 H172       -1.1960  -13.1432  -41.5030 H         1 UNK         0.0600 
    173 H173       -1.3283  -12.3136  -43.0547 H         1 UNK         0.0600 
    174 H174        1.0906  -12.7059  -42.3704 H         1 UNK         0.3000 
    175 H175        3.7032  -13.3357  -42.0509 H         1 UNK         0.0600 
    176 H176        4.6383  -13.2994  -44.9553 H         1 UNK         0.0600 
    177 H177        5.6244  -12.9727  -43.5371 H         1 UNK         0.0600 
    178 H178        4.9592  -14.5768  -43.7906 H         1 UNK         0.0600 
    179 H179        3.5453  -11.2546  -44.1174 H         1 UNK         0.3000 
    180 H180        1.6441   -9.0329  -42.1624 H         1 UNK         0.0600 
    181 H181        4.7056   -8.9211  -42.2852 H         1 UNK         0.0600 
    182 H182        3.7367   -8.8259  -40.8195 H         1 UNK         0.0600 
    183 H183        3.6289   -7.5488  -42.0199 H         1 UNK         0.0600 
    184 H184        3.4584   -8.6665  -44.3801 H         1 UNK         0.3000 
    185 H185        0.8960   -8.3851  -46.6591 H         1 UNK         0.0600 
    186 H186        2.8629   -7.0035  -45.9556 H         1 UNK         0.0600 
    187 H187        3.9491   -8.3427  -46.3215 H         1 UNK         0.0600 
    188 H188        3.0193   -7.5813  -47.6032 H         1 UNK         0.0600 
    189 H189        1.2664  -10.1753  -47.9095 H         1 UNK         0.3000 
    190 H190       -2.2088  -21.6826  -46.7118 H         1 UNK         0.3000 
    191 H191       -4.1314  -22.7457  -48.4865 H         1 UNK         0.0600 
    192 H192       -4.4672  -20.6245  -47.2820 H         1 UNK         0.0600 
    193 H193       -5.7812  -21.7312  -46.9030 H         1 UNK         0.0600 
    194 H194       -4.5002  -21.4652  -45.7341 H         1 UNK         0.0600 
    195 H195       -3.0860  -23.8815  -45.2762 H         1 UNK         0.3000 
    196 H196       -5.0752  -25.9983  -45.1212 H         1 UNK         0.0600 
    197 H197       -3.7685  -26.6647  -43.1056 H         1 UNK         0.0600 
    198 H198       -4.1673  -24.9531  -43.0766 H         1 UNK         0.0600 
    199 H199       -2.5360  -25.4689  -43.4901 H         1 UNK         0.0600 
    200 H200       -1.5148  -25.8960  -45.7242 H         1 UNK         0.3000 
    201 H201       -1.3500  -28.7509  -45.9867 H         1 UNK         0.0600 
    202 H202        0.4433  -27.3700  -44.9756 H         1 UNK         0.0600 
    203 H203        0.7283  -26.5676  -46.5186 H         1 UNK         0.0600 
    204 H204        1.0616  -28.2863  -46.3417 H         1 UNK         0.0600 
    205 H205       -1.2654  -26.0799  -48.3949 H         1 UNK         0.3000 
    206 H206       -0.7873  -28.0572  -50.5919 H         1 UNK         0.0600 
    207 H207        1.0162  -26.3625  -50.1798 H         1 UNK         0.0600 
    208 H208        0.2661  -26.1635  -51.7542 H         1 UNK         0.0600 
    209 H209       -0.1448  -25.0641  -50.4472 H         1 UNK         0.0600 
    210 H210       -3.2738  -26.3262  -49.2229 H         1 UNK         0.3000 
    211 H211       -5.2992  -25.6209  -49.7996 H         1 UNK         0.0600 
    212 H212       -5.0063  -27.1388  -52.4367 H         1 UNK         0.0600 
    213 H213       -6.5002  -26.6142  -51.6770 H         1 UNK         0.0600 
    214 H214       -5.5244  -27.8563  -50.9111 H         1 UNK         0.0600 
    215 H215       -3.0157  -23.9479  -50.3287 H         1 UNK         0.3000 
    216 H216       -3.0495  -22.6767  -52.8007 H         1 UNK         0.0600 
    217 H217       -1.7227  -20.9118  -51.6968 H         1 UNK         0.0600 
    218 H218       -1.2130  -22.5005  -51.1531 H         1 UNK         0.0600 
    219 H219       -2.2180  -21.4844  -50.1094 H         1 UNK         0.0600 
    220 H220       -5.2463  -22.1019  -50.1177 H         1 UNK         0.3000 
    221 H221       -6.2472  -19.5419  -50.9920 H         1 UNK         0.0600 
    222 H222       -7.4079  -21.6717  -49.1199 H         1 UNK         0.0600 
    223 H223       -6.5211  -20.2135  -48.6640 H         1 UNK         0.0600 
    224 H224       -8.1155  -20.0813  -49.3783 H         1 UNK         0.0600 
    225 H225       -7.0937  -22.9262  -51.7329 H         1 UNK         0.3000 
    226 H226       -9.5212  -22.2756  -53.2072 H         1 UNK         0.0600 
    227 H227       -9.2247  -24.4797  -52.0670 H         1 UNK         0.0600 
    228 H228       -9.4775  -24.6772  -53.7942 H         1 UNK         0.0600 
    229 H229       -7.8634  -24.8544  -53.1234 H         1 UNK         0.0600 
    230 H230       -6.0908  -22.7639  -53.9064 H         1 UNK         0.3000 
    231 H231       -6.3245  -22.5290  -56.7985 H         1 UNK         0.0600 
    232 H232       -4.4864  -23.8049  -55.6312 H         1 UNK         0.0600 
    233 H233       -3.8757  -22.2871  -54.9721 H         1 UNK         0.0600 
    234 H234       -3.8628  -22.5634  -56.7066 H         1 UNK         0.0600 
    235 H235       -6.6737  -20.2639  -54.3456 H         1 UNK         0.3000 
    236 H236       -6.6338  -18.0752  -54.0838 H         1 UNK         0.0600 
    237 H237       -7.2476  -16.6436  -56.0007 H         1 UNK         0.0600 
    238 H238       -6.7830  -17.8998  -57.1408 H         1 UNK         0.0600 
    239 H239       -8.1608  -18.1414  -56.0674 H         1 UNK         0.0600 
    240 H240       -4.1346  -19.3393  -54.0274 H         1 UNK         0.3000 
    241 H241       -1.9898  -19.0864  -53.9828 H         1 UNK         0.0600 
    242 H242       -3.3692  -19.3196  -56.8310 H         1 UNK         0.3800 
    243 H243       -1.9763  -19.0874  -57.8549 H         1 UNK         0.3800 
    244 H244       -2.7479  -16.6905  -53.0571 H         1 UNK         0.0800 
    245 H245       -1.9902  -16.0952  -54.5012 H         1 UNK         0.0800 
    246 H246       -1.5047  -18.4664  -51.3710 H         1 UNK         0.0800 
    247 H247       -1.4827  -16.7987  -50.8461 H         1 UNK         0.0800 
@<TRIPOS>BOND
     1    1    2 1    
     2    1  127 1    
     3    1  128 1    
     4    1  129 1    
     5    2    3 2    
     6    2    4 am   BACKBONE|DICT|INTERRES
     7    4    5 1    
     8    4  130 1    
     9    5    6 1    
    10    5   65 1    
    11    5  131 1    
    12    6    7 1    
    13    6  132 1    
    14    6  133 1    
    15    7    8 1    
    16    8    9 1    
    17    8  134 1    
    18    8  135 1    
    19    9   10 ar   
    20    9   14 ar   
    21   10   11 ar   
    22   10  136 1    
    23   11   12 ar   
    24   11  126 1    
    25   12   13 ar   
    26   12  137 1    
    27   13   14 ar   
    28   13   15 1    
    29   14  138 1    
    30   15   16 1    
    31   15  139 1    
    32   15  140 1    
    33   16   17 1    
    34   17   18 1    
    35   17  141 1    
    36   17  142 1    
    37   18   19 1    
    38   18   67 1    
    39   18  143 1    
    40   19   20 am   BACKBONE|DICT|INTERRES
    41   19  144 1    
    42   20   21 2    
    43   20   22 1    
    44   22   23 1    
    45   22   24 1    
    46   22  145 1    
    47   23  146 1    
    48   23  147 1    
    49   23  148 1    
    50   24   25 am   BACKBONE|DICT|INTERRES
    51   24  149 1    
    52   25   26 2    
    53   25   27 1    
    54   27   28 1    
    55   27   29 1    
    56   27  150 1    
    57   28  151 1    
    58   28  152 1    
    59   28  153 1    
    60   29   30 am   BACKBONE|DICT|INTERRES
    61   29  154 1    
    62   30   31 2    
    63   30   32 1    
    64   32   33 1    
    65   32   34 1    
    66   32  155 1    
    67   33  156 1    
    68   33  157 1    
    69   33  158 1    
    70   34   35 am   BACKBONE|DICT|INTERRES
    71   34  159 1    
    72   35   36 2    
    73   35   37 1    
    74   37   38 1    
    75   37   39 1    
    76   37  160 1    
    77   38  161 1    
    78   38  162 1    
    79   38  163 1    
    80   39   40 am   BACKBONE|DICT|INTERRES
    81   39  164 1    
    82   40   41 2    
    83   40   42 1    
    84   42   43 1    
    85   42   44 1    
    86   42  165 1    
    87   43  166 1    
    88   43  167 1    
    89   43  168 1    
    90   44   45 am   BACKBONE|DICT|INTERRES
    91   44  169 1    
    92   45   46 2    
    93   45   47 1    
    94   47   48 1    
    95   47   49 1    
    96   47  170 1    
    97   48  171 1    
    98   48  172 1    
    99   48  173 1    
   100   49   50 am   BACKBONE|DICT|INTERRES
   101   49  174 1    
   102   50   51 2    
   103   50   52 1    
   104   52   53 1    
   105   52   54 1    
   106   52  175 1    
   107   53  176 1    
   108   53  177 1    
   109   53  178 1    
   110   54   55 am   BACKBONE|DICT|INTERRES
   111   54  179 1    
   112   55   56 2    
   113   55   57 1    
   114   57   58 1    
   115   57   59 1    
   116   57  180 1    
   117   58  181 1    
   118   58  182 1    
   119   58  183 1    
   120   59   60 am   BACKBONE|DICT|INTERRES
   121   59  184 1    
   122   60   61 2    
   123   60   62 1    
   124   62   63 1    
   125   62   64 1    
   126   62  185 1    
   127   63  186 1    
   128   63  187 1    
   129   63  188 1    
   130   64   65 am   BACKBONE|DICT|INTERRES
   131   64  189 1    
   132   65   66 2    
   133   67   68 2    
   134   67   69 am   BACKBONE|DICT|INTERRES
   135   69   70 1    
   136   69  190 1    
   137   70   71 1    
   138   70   72 1    
   139   70  191 1    
   140   71  192 1    
   141   71  193 1    
   142   71  194 1    
   143   72   73 2    
   144   72   74 am   BACKBONE|DICT|INTERRES
   145   74   75 1    
   146   74  195 1    
   147   75   76 1    
   148   75   77 1    
   149   75  196 1    
   150   76  197 1    
   151   76  198 1    
   152   76  199 1    
   153   77   78 2    
   154   77   79 am   BACKBONE|DICT|INTERRES
   155   79   80 1    
   156   79  200 1    
   157   80   81 1    
   158   80   82 1    
   159   80  201 1    
   160   81  202 1    
   161   81  203 1    
   162   81  204 1    
   163   82   83 2    
   164   82   84 am   BACKBONE|DICT|INTERRES
   165   84   85 1    
   166   84  205 1    
   167   85   86 1    
   168   85   87 1    
   169   85  206 1    
   170   86  207 1    
   171   86  208 1    
   172   86  209 1    
   173   87   88 2    
   174   87   89 am   BACKBONE|DICT|INTERRES
   175   89   90 1    
   176   89  210 1    
   177   90   91 1    
   178   90   92 1    
   179   90  211 1    
   180   91  212 1    
   181   91  213 1    
   182   91  214 1    
   183   92   93 2    
   184   92   94 am   BACKBONE|DICT|INTERRES
   185   94   95 1    
   186   94  215 1    
   187   95   96 1    
   188   95   97 1    
   189   95  216 1    
   190   96  217 1    
   191   96  218 1    
   192   96  219 1    
   193   97   98 2    
   194   97   99 am   BACKBONE|DICT|INTERRES
   195   99  100 1    
   196   99  220 1    
   197  100  101 1    
   198  100  102 1    
   199  100  221 1    
   200  101  222 1    
   201  101  223 1    
   202  101  224 1    
   203  102  103 2    
   204  102  104 am   BACKBONE|DICT|INTERRES
   205  104  105 1    
   206  104  225 1    
   207  105  106 1    
   208  105  107 1    
   209  105  226 1    
   210  106  227 1    
   211  106  228 1    
   212  106  229 1    
   213  107  108 2    
   214  107  109 am   BACKBONE|DICT|INTERRES
   215  109  110 1    
   216  109  230 1    
   217  110  111 1    
   218  110  112 1    
   219  110  231 1    
   220  111  232 1    
   221  111  233 1    
   222  111  234 1    
   223  112  113 2    
   224  112  114 am   BACKBONE|DICT|INTERRES
   225  114  115 1    
   226  114  235 1    
   227  115  116 1    
   228  115  117 1    
   229  115  236 1    
   230  116  237 1    
   231  116  238 1    
   232  116  239 1    
   233  117  118 2    
   234  117  119 am   BACKBONE|DICT|INTERRES
   235  119  120 1    
   236  119  240 1    
   237  120  121 1    
   238  120  124 1    
   239  120  241 1    
   240  121  122 am   BACKBONE|DICT|INTERRES
   241  121  123 2    
   242  122  242 1    
   243  122  243 1    
   244  124  125 1    
   245  124  244 1    
   246  124  245 1    
   247  125  126 1    
   248  126  246 1    
   249  126  247 1    
@<TRIPOS>SUBSTRUCTURE
     1 UNK         1 GROUP             0       ****    0 ROOT    
