@<TRIPOS>MOLECULE
3R540
247   249    1
SMALL
USER_CHARGES


@<TRIPOS>ATOM
      1 CA         -2.6401  -13.1434  -46.0852 C.3       0 UNK        -0.1800 
      2 C          -1.7283  -12.6873  -47.2130 C.2       0 UNK         0.5000 
      3 O          -1.9738  -11.6384  -47.8089 O.2       0 UNK        -0.5000 
      4 N          -0.6767  -13.4649  -47.4980 N.am      1 UNK        -0.5000 
      5 CA          0.3160  -13.2344  -48.5541 C.3       1 UNK         0.1400 
      6 C6          1.2464  -14.4584  -48.7217 C.3       23 UNK        -0.0398 
      7 S7          0.3476  -15.9295  -49.3048 S.3       23 UNK        -0.2404 
      8 C8          1.7008  -17.1404  -49.3198 C.3       23 UNK        -0.0205 
      9 C9          1.4731  -18.1781  -50.4029 C.ar      23 UNK        -0.0193 
     10 C10         2.0254  -17.9990  -51.6738 C.ar      23 UNK        -0.1150 
     11 C11         1.8027  -18.9402  -52.6818 C.ar      23 UNK        -0.0193 
     12 C12         1.0358  -20.0765  -52.4036 C.ar      23 UNK        -0.1150 
     13 C13         0.4764  -20.2650  -51.1364 C.ar      23 UNK        -0.0193 
     14 C14         0.6968  -19.3084  -50.1414 C.ar      23 UNK        -0.1150 
     15 C15        -0.3785  -21.4914  -50.8521 C.3       23 UNK        -0.0205 
     16 S16         0.5656  -22.7655  -49.9602 S.3       23 UNK        -0.2404 
     17 C17         0.5297  -22.1056  -48.2575 C.3       23 UNK        -0.0398 
     18 CA          0.4566  -23.2099  -47.1807 C.3       11 UNK         0.1400 
     19 N           0.7133  -22.6783  -45.8434 N.am      11 UNK        -0.5000 
     20 C           0.9546  -23.4328  -44.7624 C.2       10 UNK         0.5000 
     21 O           1.0971  -24.6553  -44.7943 O.2       10 UNK        -0.5000 
     22 CA          0.9977  -22.7004  -43.4099 C.3       10 UNK         0.1400 
     23 CB          2.3989  -22.1286  -43.1486 C.3       10 UNK        -0.1800 
     24 N          -0.0022  -21.6335  -43.3134 N.am      10 UNK        -0.5000 
     25 C          -1.3275  -21.8335  -43.3659 C.2       9 UNK         0.5000 
     26 O          -1.8443  -22.9467  -43.4573 O.2       9 UNK        -0.5000 
     27 CA         -2.2296  -20.5873  -43.3492 C.3       9 UNK         0.1400 
     28 CB         -2.4367  -20.0919  -41.9106 C.3       9 UNK        -0.1800 
     29 N          -1.7220  -19.4951  -44.1809 N.am      9 UNK        -0.5000 
     30 C          -1.5841  -19.5439  -45.5136 C.2       8 UNK         0.5000 
     31 O          -1.8796  -20.5228  -46.1984 O.2       8 UNK        -0.5000 
     32 CA         -0.9575  -18.3126  -46.1940 C.3       8 UNK         0.1400 
     33 CB         -1.9672  -17.1663  -46.3346 C.3       8 UNK        -0.1800 
     34 N           0.2281  -17.8374  -45.4867 N.am      8 UNK        -0.5000 
     35 C           1.3574  -18.5465  -45.3536 C.2       7 UNK         0.5000 
     36 O           1.5379  -19.6562  -45.8580 O.2       7 UNK        -0.5000 
     37 CA          2.4466  -17.9207  -44.4681 C.3       7 UNK         0.1400 
     38 CB          3.2438  -16.8675  -45.2529 C.3       7 UNK        -0.1800 
     39 N           1.8840  -17.3164  -43.2580 N.am      7 UNK        -0.5000 
     40 C           1.3308  -18.0151  -42.2553 C.2       6 UNK         0.5000 
     41 O           1.2549  -19.2423  -42.2389 O.2       6 UNK        -0.5000 
     42 CA          0.7230  -17.2088  -41.0934 C.3       6 UNK         0.1400 
     43 CB          1.8112  -16.8014  -40.0892 C.3       6 UNK        -0.1800 
     44 N           0.0054  -16.0160  -41.5423 N.am      6 UNK        -0.5000 
     45 C          -1.0954  -16.0306  -42.3074 C.2       5 UNK         0.5000 
     46 O          -1.6413  -17.0586  -42.7030 O.2       5 UNK        -0.5000 
     47 CA         -1.6477  -14.6655  -42.7508 C.3       5 UNK         0.1400 
     48 CB         -2.6398  -14.1157  -41.7165 C.3       5 UNK        -0.1800 
     49 N          -0.5968  -13.6748  -42.9905 N.am      5 UNK        -0.5000 
     50 C           0.3683  -13.7856  -43.9112 C.2       4 UNK         0.5000 
     51 O           0.4412  -14.7210  -44.7136 O.2       4 UNK        -0.5000 
     52 CA          1.3968  -12.6405  -43.9386 C.3       4 UNK         0.1400 
     53 CB          2.7418  -13.0804  -44.5413 C.3       4 UNK        -0.1800 
     54 N           0.8542  -11.4951  -44.6735 N.am      4 UNK        -0.5000 
     55 C          -0.0157  -10.6141  -44.1520 C.2       3 UNK         0.5000 
     56 O          -0.3640  -10.6484  -42.9701 O.2       3 UNK        -0.5000 
     57 CA         -0.6596   -9.5587  -45.0777 C.3       3 UNK         0.1400 
     58 CB         -0.6056   -8.1380  -44.4782 C.3       3 UNK        -0.1800 
     59 N          -0.1916   -9.5917  -46.4668 N.am      3 UNK        -0.5000 
     60 C           0.9709   -9.1544  -46.9749 C.2       2 UNK         0.5000 
     61 O           1.8432   -8.5810  -46.3214 O.2       2 UNK        -0.5000 
     62 CA          1.1912   -9.4713  -48.4732 C.3       2 UNK         0.1400 
     63 CB          2.6482   -9.2571  -48.9347 C.3       2 UNK        -0.1800 
     64 N           0.7212  -10.8214  -48.8185 N.am      2 UNK        -0.5000 
     65 C           1.1329  -11.9643  -48.2501 C.2       1 UNK         0.5000 
     66 O           2.0631  -12.0248  -47.4483 O.2       1 UNK        -0.5000 
     67 C          -0.8770  -23.9847  -47.2157 C.2       11 UNK         0.5000 
     68 O          -0.8761  -25.1503  -47.6080 O.2       11 UNK        -0.5000 
     69 N          -1.9651  -23.3524  -46.7460 N.am      12 UNK        -0.5000 
     70 CA         -3.3231  -23.9085  -46.7049 C.3       12 UNK         0.1400 
     71 CB         -4.2737  -22.8820  -46.0691 C.3       12 UNK        -0.1800 
     72 C          -3.4293  -25.2465  -45.9500 C.2       12 UNK         0.5000 
     73 O          -4.1761  -26.1300  -46.3714 O.2       12 UNK        -0.5000 
     74 N          -2.6656  -25.3718  -44.8568 N.am      13 UNK        -0.5000 
     75 CA         -2.5418  -26.5856  -44.0528 C.3       13 UNK         0.1400 
     76 CB         -1.8002  -26.2450  -42.7511 C.3       13 UNK        -0.1800 
     77 C          -1.8355  -27.7429  -44.7866 C.2       13 UNK         0.5000 
     78 O          -2.0886  -28.9018  -44.4540 O.2       13 UNK        -0.5000 
     79 N          -0.9670  -27.4232  -45.7558 N.am      14 UNK        -0.5000 
     80 CA         -0.2518  -28.3993  -46.5726 C.3       14 UNK         0.1400 
     81 CB          1.1067  -27.8245  -47.0071 C.3       14 UNK        -0.1800 
     82 C          -1.0885  -28.8350  -47.7866 C.2       14 UNK         0.5000 
     83 O          -1.2188  -30.0375  -48.0214 O.2       14 UNK        -0.5000 
     84 N          -1.6462  -27.8695  -48.5299 N.am      15 UNK        -0.5000 
     85 CA         -2.4358  -28.1019  -49.7391 C.3       15 UNK         0.1400 
     86 CB         -1.5136  -28.5390  -50.8966 C.3       15 UNK        -0.1800 
     87 C          -3.2130  -26.8372  -50.1337 C.2       15 UNK         0.5000 
     88 O          -2.8514  -25.7363  -49.7198 O.2       15 UNK        -0.5000 
     89 N          -4.2366  -27.0201  -50.9794 N.am      16 UNK        -0.5000 
     90 CA         -5.0747  -25.9795  -51.5827 C.3       16 UNK         0.1400 
     91 CB         -4.2558  -25.1408  -52.5929 C.3       16 UNK        -0.1800 
     92 C          -5.8262  -25.1434  -50.5242 C.2       16 UNK         0.5000 
     93 O          -6.6664  -25.6950  -49.8113 O.2       16 UNK        -0.5000 
     94 N          -5.5351  -23.8418  -50.4545 N.am      17 UNK        -0.5000 
     95 CA         -6.1366  -22.8658  -49.5557 C.3       17 UNK         0.1400 
     96 CB         -7.4854  -22.3896  -50.1315 C.3       17 UNK        -0.1800 
     97 C          -5.1483  -21.7041  -49.3648 C.2       17 UNK         0.5000 
     98 O          -4.0470  -21.7371  -49.9207 O.2       17 UNK        -0.5000 
     99 N          -5.5574  -20.7024  -48.5746 N.am      18 UNK        -0.5000 
    100 CA        -4.8085  -19.4769  -48.2936 C.3       18 UNK         0.1400 
    101 CB        -5.5893  -18.6459  -47.2617 C.3       18 UNK        -0.1800 
    102 C         -4.5425  -18.6790  -49.5834 C.2       18 UNK         0.5000 
    103 O         -5.4733  -18.0899  -50.1370 O.2       18 UNK        -0.5000 
    104 N         -3.2951  -18.7484  -50.0673 N.am      19 UNK        -0.5000 
    105 CA        -2.7817  -18.2760  -51.3600 C.3       19 UNK         0.1400 
    106 CB        -2.9587  -16.7564  -51.5367 C.3       19 UNK        -0.1800 
    107 C         -3.3384  -19.0616  -52.5649 C.2       19 UNK         0.5000 
    108 O         -2.5553  -19.5424  -53.3843 O.2       19 UNK        -0.5000 
    109 N         -4.6697  -19.1931  -52.6483 N.am      20 UNK        -0.5000 
    110 CA        -5.4309  -19.8701  -53.7009 C.3       20 UNK         0.1400 
    111 CB        -5.2271  -21.4000  -53.6058 C.3       20 UNK        -0.1800 
    112 C         -5.1113  -19.2685  -55.0864 C.2       20 UNK         0.5000 
    113 O         -5.3099  -18.0668  -55.2793 O.2       20 UNK        -0.5000 
    114 N         -4.5759  -20.0839  -56.0056 N.am      21 UNK        -0.5000 
    115 CA        -4.1223  -19.6817  -57.3414 C.3       21 UNK         0.1400 
    116 CB        -3.7261  -20.9403  -58.1286 C.3       21 UNK        -0.1800 
    117 C         -2.9638  -18.6604  -57.3359 C.2       21 UNK         0.5000 
    118 O         -2.7670  -17.9679  -58.3352 O.2       21 UNK        -0.5000 
    119 N         -2.2348  -18.5699  -56.2161 N.am      22 UNK        -0.5000 
    120 CA        -1.2147  -17.5462  -55.9493 C.3       22 UNK         0.1400 
    121 C         -1.8032  -16.1372  -55.6274 C.2       22 UNK         0.5000 
    122 N         -3.1015  -15.9900  -55.3807 N.am      22 UNK        -0.7600 
    123 O         -1.0723  -15.1511  -55.6163 O.2       22 UNK        -0.5000 
    124 C124       -0.2508  -18.0323  -54.8369 C.3       23 UNK        -0.0398 
    125 S125        1.4596  -17.4198  -54.9871 S.3       23 UNK        -0.2404 
    126 C126        2.3681  -18.7157  -54.0785 C.3       23 UNK        -0.0205 
    127 H127       -2.4241  -12.5853  -45.1745 H         1 UNK         0.0600 
    128 H128       -2.5146  -14.2058  -45.8819 H         1 UNK         0.0600 
    129 H129       -3.6834  -12.9749  -46.3515 H         1 UNK         0.0600 
    130 H130       -0.4997  -14.2772  -46.9224 H         1 UNK         0.3000 
    131 H131       -0.2170  -13.0798  -49.4948 H         1 UNK         0.0600 
    132 H132        2.0351  -14.2406  -49.4444 H         1 UNK         0.0800 
    133 H133        1.7438  -14.7007  -47.7801 H         1 UNK         0.0800 
    134 H134        2.6557  -16.6399  -49.4875 H         1 UNK         0.0800 
    135 H135        1.7711  -17.6183  -48.3415 H         1 UNK         0.0800 
    136 H136        2.6117  -17.1161  -51.8870 H         1 UNK         0.1150 
    137 H137        0.8586  -20.8077  -53.1796 H         1 UNK         0.1150 
    138 H138        0.2615  -19.4353  -49.1628 H         1 UNK         0.1150 
    139 H139       -1.2698  -21.2148  -50.2872 H         1 UNK         0.0800 
    140 H140       -0.7428  -21.9182  -51.7879 H         1 UNK         0.0800 
    141 H141        1.4347  -21.5121  -48.1182 H         1 UNK         0.0800 
    142 H142       -0.3062  -21.4158  -48.1419 H         1 UNK         0.0800 
    143 H143        1.2537  -23.9261  -47.3934 H         1 UNK         0.0600 
    144 H144        0.6444  -21.6740  -45.7289 H         1 UNK         0.3000 
    145 H145        0.7785  -23.4336  -42.6310 H         1 UNK         0.0600 
    146 H146        2.4709  -21.7070  -42.1460 H         1 UNK         0.0600 
    147 H147        3.1604  -22.9054  -43.2286 H         1 UNK         0.0600 
    148 H148        2.6526  -21.3435  -43.8617 H         1 UNK         0.0600 
    149 H149        0.3518  -20.6919  -43.1716 H         1 UNK         0.3000 
    150 H150       -3.2032  -20.8781  -43.7475 H         1 UNK         0.0600 
    151 H151       -2.8252  -20.8880  -41.2743 H         1 UNK         0.0600 
    152 H152       -3.1526  -19.2705  -41.8765 H         1 UNK         0.0600 
    153 H153       -1.5038  -19.7415  -41.4680 H         1 UNK         0.0600 
    154 H154       -1.4958  -18.6306  -43.6948 H         1 UNK         0.3000 
    155 H155       -0.6477  -18.6081  -47.1973 H         1 UNK         0.0600 
    156 H156       -1.5135  -16.3028  -46.8196 H         1 UNK         0.0600 
    157 H157       -2.3570  -16.8441  -45.3689 H         1 UNK         0.0600 
    158 H158       -2.8116  -17.4707  -46.9503 H         1 UNK         0.0600 
    159 H159        0.1722  -16.9263  -45.0482 H         1 UNK         0.3000 
    160 H160        3.1328  -18.7149  -44.1665 H         1 UNK         0.0600 
    161 H161        2.6075  -16.0548  -45.6032 H         1 UNK         0.0600 
    162 H162        3.7153  -17.3122  -46.1302 H         1 UNK         0.0600 
    163 H163        4.0362  -16.4347  -44.6422 H         1 UNK         0.0600 
    164 H164        1.8605  -16.3084  -43.2210 H         1 UNK         0.3000 
    165 H165        0.0092  -17.8556  -40.5789 H         1 UNK         0.0600 
    166 H166        2.5418  -16.1260  -40.5361 H         1 UNK         0.0600 
    167 H167        1.3798  -16.3030  -39.2209 H         1 UNK         0.0600 
    168 H168        2.3522  -17.6758  -39.7247 H         1 UNK         0.0600 
    169 H169        0.3843  -15.1231  -41.2642 H         1 UNK         0.3000 
    170 H170       -2.1854  -14.8239  -43.6857 H         1 UNK         0.0600 
    171 H171       -3.4456  -14.8275  -41.5317 H         1 UNK         0.0600 
    172 H172       -2.1551  -13.9118  -40.7610 H         1 UNK         0.0600 
    173 H173       -3.0985  -13.1901  -42.0650 H         1 UNK         0.0600 
    174 H174       -0.6224  -12.8348  -42.4256 H         1 UNK         0.3000 
    175 H175        1.5970  -12.3376  -42.9086 H         1 UNK         0.0600 
    176 H176        3.4274  -12.2386  -44.6392 H         1 UNK         0.0600 
    177 H177        3.2242  -13.8213  -43.9030 H         1 UNK         0.0600 
    178 H178        2.6269  -13.5354  -45.5241 H         1 UNK         0.0600 
    179 H179        1.1143  -11.4290  -45.6505 H         1 UNK         0.3000 
    180 H180       -1.7132   -9.8361  -45.1337 H         1 UNK         0.0600 
    181 H181       -1.0656   -7.4087  -45.1449 H         1 UNK         0.0600 
    182 H182       -1.1452   -8.0951  -43.5315 H         1 UNK         0.0600 
    183 H183        0.4168   -7.8168  -44.2788 H         1 UNK         0.0600 
    184 H184       -0.8107  -10.0875  -47.1012 H         1 UNK         0.3000 
    185 H185        0.5637   -8.7725  -49.0283 H         1 UNK         0.0600 
    186 H186        2.7638   -9.4880  -49.9936 H         1 UNK         0.0600 
    187 H187        2.9523   -8.2193  -48.7944 H         1 UNK         0.0600 
    188 H188        3.3489   -9.8794  -48.3774 H         1 UNK         0.0600 
    189 H189       -0.0893  -10.8579  -49.4225 H         1 UNK         0.3000 
    190 H190       -1.8722  -22.3871  -46.4397 H         1 UNK         0.3000 
    191 H191       -3.6338  -24.0761  -47.7376 H         1 UNK         0.0600 
    192 H192       -5.3128  -23.1947  -46.1765 H         1 UNK         0.0600 
    193 H193       -4.1744  -21.9028  -46.5326 H         1 UNK         0.0600 
    194 H194       -4.0798  -22.7601  -45.0037 H         1 UNK         0.0600 
    195 H195       -2.1427  -24.5607  -44.5386 H         1 UNK         0.3000 
    196 H196       -3.5476  -26.9235  -43.7956 H         1 UNK         0.0600 
    197 H197       -1.7022  -27.1242  -42.1131 H         1 UNK         0.0600 
    198 H198       -2.3354  -25.4865  -42.1794 H         1 UNK         0.0600 
    199 H199       -0.7963  -25.8673  -42.9495 H         1 UNK         0.0600 
    200 H200       -0.8576  -26.4506  -46.0206 H         1 UNK         0.3000 
    201 H201       -0.0480  -29.2872  -45.9701 H         1 UNK         0.0600 
    202 H202        1.7007  -27.5238  -46.1438 H         1 UNK         0.0600 
    203 H203        0.9981  -26.9550  -47.6550 H         1 UNK         0.0600 
    204 H204        1.6835  -28.5690  -47.5570 H         1 UNK         0.0600 
    205 H205       -1.5187  -26.8899  -48.2784 H         1 UNK         0.3000 
    206 H206       -3.1622  -28.8910  -49.5338 H         1 UNK         0.0600 
    207 H207       -1.0112  -29.4812  -50.6793 H         1 UNK         0.0600 
    208 H208       -2.0768  -28.6856  -51.8189 H         1 UNK         0.0600 
    209 H209       -0.7465  -27.7899  -51.0971 H         1 UNK         0.0600 
    210 H210       -4.4729  -27.9661  -51.2438 H         1 UNK         0.3000 
    211 H211       -5.8461  -26.5018  -52.1504 H         1 UNK         0.0600 
    212 H212       -3.4451  -24.5889  -52.1157 H         1 UNK         0.0600 
    213 H213       -4.8900  -24.4201  -53.1105 H         1 UNK         0.0600 
    214 H214       -3.8116  -25.7791  -53.3566 H         1 UNK         0.0600 
    215 H215       -4.7544  -23.4790  -50.9878 H         1 UNK         0.3000 
    216 H216       -6.2972  -23.3292  -48.5803 H         1 UNK         0.0600 
    217 H217       -7.9924  -21.7074  -49.4487 H         1 UNK         0.0600 
    218 H218       -8.1618  -23.2273  -50.3014 H         1 UNK         0.0600 
    219 H219       -7.3571  -21.8686  -51.0806 H         1 UNK         0.0600 
    220 H220       -6.4837  -20.7488  -48.1770 H         1 UNK         0.3000 
    221 H221       -3.8516  -19.7569  -47.8502 H         1 UNK         0.0600 
    222 H222       -6.6045  -18.4348  -47.6001 H         1 UNK         0.0600 
    223 H223       -5.6553  -19.1679  -46.3068 H         1 UNK         0.0600 
    224 H224       -5.1069  -17.6866  -47.0750 H         1 UNK         0.0600 
    225 H225       -2.6479  -19.3320  -49.5581 H         1 UNK         0.3000 
    226 H226       -1.7090  -18.4644  -51.3376 H         1 UNK         0.0600 
    227 H227       -2.5308  -16.2106  -50.6958 H         1 UNK         0.0600 
    228 H228       -2.4512  -16.4119  -52.4383 H         1 UNK         0.0600 
    229 H229       -4.0065  -16.4697  -51.6260 H         1 UNK         0.0600 
    230 H230       -5.2160  -18.7462  -51.9172 H         1 UNK         0.3000 
    231 H231       -6.4840  -19.6608  -53.5087 H         1 UNK         0.0600 
    232 H232       -5.8557  -21.9288  -54.3233 H         1 UNK         0.0600 
    233 H233       -5.4988  -21.7639  -52.6161 H         1 UNK         0.0600 
    234 H234       -4.1919  -21.6937  -53.7835 H         1 UNK         0.0600 
    235 H235       -4.4194  -21.0485  -55.7522 H         1 UNK         0.3000 
    236 H236       -4.9658  -19.2105  -57.8499 H         1 UNK         0.0600 
    237 H237       -2.8989  -21.4680  -57.6522 H         1 UNK         0.0600 
    238 H238       -4.5634  -21.6332  -58.2141 H         1 UNK         0.0600 
    239 H239       -3.4128  -20.6857  -59.1420 H         1 UNK         0.0600 
    240 H240       -2.4783  -19.1565  -55.4252 H         1 UNK         0.3000 
    241 H241       -0.6366  -17.4331  -56.8683 H         1 UNK         0.0600 
    242 H242       -3.7395  -16.7777  -55.4016 H         1 UNK         0.3800 
    243 H243       -3.4609  -15.0688  -55.1884 H         1 UNK         0.3800 
    244 H244       -0.1954  -19.1217  -54.8589 H         1 UNK         0.0800 
    245 H245       -0.6280  -17.7770  -53.8452 H         1 UNK         0.0800 
    246 H246        2.3443  -19.6411  -54.6561 H         1 UNK         0.0800 
    247 H247        3.4180  -18.4291  -54.0041 H         1 UNK         0.0800 
@<TRIPOS>BOND
     1    1    2 1    
     2    1  127 1    
     3    1  128 1    
     4    1  129 1    
     5    2    3 2    
     6    2    4 am   BACKBONE|DICT|INTERRES
     7    4    5 1    
     8    4  130 1    
     9    5    6 1    
    10    5   65 1    
    11    5  131 1    
    12    6    7 1    
    13    6  132 1    
    14    6  133 1    
    15    7    8 1    
    16    8    9 1    
    17    8  134 1    
    18    8  135 1    
    19    9   10 ar   
    20    9   14 ar   
    21   10   11 ar   
    22   10  136 1    
    23   11   12 ar   
    24   11  126 1    
    25   12   13 ar   
    26   12  137 1    
    27   13   14 ar   
    28   13   15 1    
    29   14  138 1    
    30   15   16 1    
    31   15  139 1    
    32   15  140 1    
    33   16   17 1    
    34   17   18 1    
    35   17  141 1    
    36   17  142 1    
    37   18   19 1    
    38   18   67 1    
    39   18  143 1    
    40   19   20 am   BACKBONE|DICT|INTERRES
    41   19  144 1    
    42   20   21 2    
    43   20   22 1    
    44   22   23 1    
    45   22   24 1    
    46   22  145 1    
    47   23  146 1    
    48   23  147 1    
    49   23  148 1    
    50   24   25 am   BACKBONE|DICT|INTERRES
    51   24  149 1    
    52   25   26 2    
    53   25   27 1    
    54   27   28 1    
    55   27   29 1    
    56   27  150 1    
    57   28  151 1    
    58   28  152 1    
    59   28  153 1    
    60   29   30 am   BACKBONE|DICT|INTERRES
    61   29  154 1    
    62   30   31 2    
    63   30   32 1    
    64   32   33 1    
    65   32   34 1    
    66   32  155 1    
    67   33  156 1    
    68   33  157 1    
    69   33  158 1    
    70   34   35 am   BACKBONE|DICT|INTERRES
    71   34  159 1    
    72   35   36 2    
    73   35   37 1    
    74   37   38 1    
    75   37   39 1    
    76   37  160 1    
    77   38  161 1    
    78   38  162 1    
    79   38  163 1    
    80   39   40 am   BACKBONE|DICT|INTERRES
    81   39  164 1    
    82   40   41 2    
    83   40   42 1    
    84   42   43 1    
    85   42   44 1    
    86   42  165 1    
    87   43  166 1    
    88   43  167 1    
    89   43  168 1    
    90   44   45 am   BACKBONE|DICT|INTERRES
    91   44  169 1    
    92   45   46 2    
    93   45   47 1    
    94   47   48 1    
    95   47   49 1    
    96   47  170 1    
    97   48  171 1    
    98   48  172 1    
    99   48  173 1    
   100   49   50 am   BACKBONE|DICT|INTERRES
   101   49  174 1    
   102   50   51 2    
   103   50   52 1    
   104   52   53 1    
   105   52   54 1    
   106   52  175 1    
   107   53  176 1    
   108   53  177 1    
   109   53  178 1    
   110   54   55 am   BACKBONE|DICT|INTERRES
   111   54  179 1    
   112   55   56 2    
   113   55   57 1    
   114   57   58 1    
   115   57   59 1    
   116   57  180 1    
   117   58  181 1    
   118   58  182 1    
   119   58  183 1    
   120   59   60 am   BACKBONE|DICT|INTERRES
   121   59  184 1    
   122   60   61 2    
   123   60   62 1    
   124   62   63 1    
   125   62   64 1    
   126   62  185 1    
   127   63  186 1    
   128   63  187 1    
   129   63  188 1    
   130   64   65 am   BACKBONE|DICT|INTERRES
   131   64  189 1    
   132   65   66 2    
   133   67   68 2    
   134   67   69 am   BACKBONE|DICT|INTERRES
   135   69   70 1    
   136   69  190 1    
   137   70   71 1    
   138   70   72 1    
   139   70  191 1    
   140   71  192 1    
   141   71  193 1    
   142   71  194 1    
   143   72   73 2    
   144   72   74 am   BACKBONE|DICT|INTERRES
   145   74   75 1    
   146   74  195 1    
   147   75   76 1    
   148   75   77 1    
   149   75  196 1    
   150   76  197 1    
   151   76  198 1    
   152   76  199 1    
   153   77   78 2    
   154   77   79 am   BACKBONE|DICT|INTERRES
   155   79   80 1    
   156   79  200 1    
   157   80   81 1    
   158   80   82 1    
   159   80  201 1    
   160   81  202 1    
   161   81  203 1    
   162   81  204 1    
   163   82   83 2    
   164   82   84 am   BACKBONE|DICT|INTERRES
   165   84   85 1    
   166   84  205 1    
   167   85   86 1    
   168   85   87 1    
   169   85  206 1    
   170   86  207 1    
   171   86  208 1    
   172   86  209 1    
   173   87   88 2    
   174   87   89 am   BACKBONE|DICT|INTERRES
   175   89   90 1    
   176   89  210 1    
   177   90   91 1    
   178   90   92 1    
   179   90  211 1    
   180   91  212 1    
   181   91  213 1    
   182   91  214 1    
   183   92   93 2    
   184   92   94 am   BACKBONE|DICT|INTERRES
   185   94   95 1    
   186   94  215 1    
   187   95   96 1    
   188   95   97 1    
   189   95  216 1    
   190   96  217 1    
   191   96  218 1    
   192   96  219 1    
   193   97   98 2    
   194   97   99 am   BACKBONE|DICT|INTERRES
   195   99  100 1    
   196   99  220 1    
   197  100  101 1    
   198  100  102 1    
   199  100  221 1    
   200  101  222 1    
   201  101  223 1    
   202  101  224 1    
   203  102  103 2    
   204  102  104 am   BACKBONE|DICT|INTERRES
   205  104  105 1    
   206  104  225 1    
   207  105  106 1    
   208  105  107 1    
   209  105  226 1    
   210  106  227 1    
   211  106  228 1    
   212  106  229 1    
   213  107  108 2    
   214  107  109 am   BACKBONE|DICT|INTERRES
   215  109  110 1    
   216  109  230 1    
   217  110  111 1    
   218  110  112 1    
   219  110  231 1    
   220  111  232 1    
   221  111  233 1    
   222  111  234 1    
   223  112  113 2    
   224  112  114 am   BACKBONE|DICT|INTERRES
   225  114  115 1    
   226  114  235 1    
   227  115  116 1    
   228  115  117 1    
   229  115  236 1    
   230  116  237 1    
   231  116  238 1    
   232  116  239 1    
   233  117  118 2    
   234  117  119 am   BACKBONE|DICT|INTERRES
   235  119  120 1    
   236  119  240 1    
   237  120  121 1    
   238  120  124 1    
   239  120  241 1    
   240  121  122 am   BACKBONE|DICT|INTERRES
   241  121  123 2    
   242  122  242 1    
   243  122  243 1    
   244  124  125 1    
   245  124  244 1    
   246  124  245 1    
   247  125  126 1    
   248  126  246 1    
   249  126  247 1    
@<TRIPOS>SUBSTRUCTURE
     1 UNK         1 GROUP             0       ****    0 ROOT    
