@<TRIPOS>MOLECULE
3R540
247   249    1
SMALL
USER_CHARGES


@<TRIPOS>ATOM
      1 CA         -4.7345  -16.5432  -48.8344 C.3       0 UNK        -0.1800 
      2 C          -3.7100  -15.6366  -48.1690 C.2       0 UNK         0.5000 
      3 O          -2.9431  -16.0912  -47.3215 O.2       0 UNK        -0.5000 
      4 N          -3.7058  -14.3516  -48.5435 N.am      1 UNK        -0.5000 
      5 CA         -2.8194  -13.2689  -48.0868 C.3       1 UNK         0.1400 
      6 C6         -1.2960  -13.5403  -48.2345 C.3       23 UNK        -0.0398 
      7 S7         -0.8053  -14.2470  -49.8428 S.3       23 UNK        -0.2404 
      8 C8          0.1249  -15.7043  -49.2747 C.3       23 UNK        -0.0205 
      9 C9          0.3789  -16.6895  -50.4007 C.ar      23 UNK        -0.0193 
     10 C10         1.3151  -16.3974  -51.3972 C.ar      23 UNK        -0.1150 
     11 C11         1.5804  -17.3185  -52.4145 C.ar      23 UNK        -0.0193 
     12 C12         0.8964  -18.5381  -52.4269 C.ar      23 UNK        -0.1150 
     13 C13        -0.0407  -18.8408  -51.4355 C.ar      23 UNK        -0.0193 
     14 C14        -0.2979  -17.9116  -50.4250 C.ar      23 UNK        -0.1150 
     15 C15        -0.7616  -20.1780  -51.4535 C.3       23 UNK        -0.0205 
     16 S16         0.3636  -21.5485  -51.0502 S.3       23 UNK        -0.2404 
     17 C17         0.6042  -21.2846  -49.2613 C.3       23 UNK        -0.0398 
     18 CA         -0.0742  -22.3564  -48.3760 C.3       11 UNK         0.1400 
     19 N           0.4327  -22.2808  -47.0051 N.am      11 UNK        -0.5000 
     20 C           0.3412  -23.2667  -46.1049 C.2       10 UNK         0.5000 
     21 O          -0.3666  -24.2618  -46.2509 O.2       10 UNK        -0.5000 
     22 CA          1.2167  -23.1319  -44.8452 C.3       10 UNK         0.1400 
     23 CB          2.7045  -22.9793  -45.2044 C.3       10 UNK        -0.1800 
     24 N           0.8019  -22.0160  -44.0044 N.am      10 UNK        -0.5000 
     25 C          -0.3348  -21.9902  -43.2987 C.2       9 UNK         0.5000 
     26 O          -1.1143  -22.9381  -43.2251 O.2       9 UNK        -0.5000 
     27 CA         -0.6855  -20.6664  -42.5956 C.3       9 UNK         0.1400 
     28 CB          0.0429  -20.5528  -41.2489 C.3       9 UNK        -0.1800 
     29 N          -0.3929  -19.4915  -43.4169 N.am      9 UNK        -0.5000 
     30 C          -0.9138  -19.2586  -44.6297 C.2       8 UNK         0.5000 
     31 O          -1.7157  -20.0107  -45.1828 O.2       8 UNK        -0.5000 
     32 CA         -0.4041  -18.0099  -45.3685 C.3       8 UNK         0.1400 
     33 CB         -1.0540  -16.7330  -44.8111 C.3       8 UNK        -0.1800 
     34 N           1.0538  -17.9051  -45.2942 N.am      8 UNK        -0.5000 
     35 C           1.9014  -18.7428  -45.9101 C.2       7 UNK         0.5000 
     36 O           1.5444  -19.6479  -46.6637 O.2       7 UNK        -0.5000 
     37 CA          3.3971  -18.5795  -45.5894 C.3       7 UNK         0.1400 
     38 CB          4.0469  -17.5339  -46.5039 C.3       7 UNK        -0.1800 
     39 N           3.6299  -18.2259  -44.1885 N.am      7 UNK        -0.5000 
     40 C           3.4514  -19.0810  -43.1711 C.2       6 UNK         0.5000 
     41 O           3.0972  -20.2503  -43.3195 O.2       6 UNK        -0.5000 
     42 CA          3.6612  -18.5321  -41.7473 C.3       6 UNK         0.1400 
     43 CB          5.1349  -18.6564  -41.3340 C.3       6 UNK        -0.1800 
     44 N           3.2291  -17.1430  -41.5820 N.am      6 UNK        -0.5000 
     45 C           1.9839  -16.6926  -41.7866 C.2       5 UNK         0.5000 
     46 O           1.0552  -17.4103  -42.1549 O.2       5 UNK        -0.5000 
     47 CA          1.7233  -15.1914  -41.5671 C.3       5 UNK         0.1400 
     48 CB          2.7937  -14.4899  -40.7018 C.3       5 UNK        -0.1800 
     49 N           1.5378  -14.4676  -42.8272 N.am      5 UNK        -0.5000 
     50 C           2.4019  -14.3671  -43.8514 C.2       4 UNK         0.5000 
     51 O           3.4467  -15.0155  -43.9289 O.2       4 UNK        -0.5000 
     52 CA          2.0560  -13.3707  -44.9821 C.3       4 UNK         0.1400 
     53 CB          1.8780  -14.0886  -46.3282 C.3       4 UNK        -0.1800 
     54 N           0.8595  -12.5705  -44.7124 N.am      4 UNK        -0.5000 
     55 C           0.7907  -11.5424  -43.8544 C.2       3 UNK         0.5000 
     56 O           1.7625  -11.1026  -43.2397 O.2       3 UNK        -0.5000 
     57 CA         -0.5993  -10.9139  -43.6242 C.3       3 UNK         0.1400 
     58 CB         -0.6944   -9.5499  -44.3246 C.3       3 UNK        -0.1800 
     59 N          -1.7180  -11.7482  -44.0737 N.am      3 UNK        -0.5000 
     60 C          -2.0780  -12.9368  -43.5736 C.2       2 UNK         0.5000 
     61 O          -1.4715  -13.5001  -42.6618 O.2       2 UNK        -0.5000 
     62 CA         -3.2778  -13.6371  -44.2435 C.3       2 UNK         0.1400 
     63 CB         -4.6113  -12.9793  -43.8426 C.3       2 UNK        -0.1800 
     64 N          -3.1498  -13.7601  -45.7032 N.am      2 UNK        -0.5000 
     65 C          -3.1222  -12.8066  -46.6466 C.2       1 UNK         0.5000 
     66 O          -3.2795  -11.6066  -46.4179 O.2       1 UNK        -0.5000 
     67 C          -1.6112  -22.2819  -48.4670 C.2       11 UNK         0.5000 
     68 O          -2.2048  -23.0018  -49.2752 O.2       11 UNK        -0.5000 
     69 N          -2.2292  -21.4022  -47.6686 N.am      12 UNK        -0.5000 
     70 CA         -3.6689  -21.1760  -47.7026 C.3       12 UNK         0.1400 
     71 CB         -3.9977  -19.7076  -47.3895 C.3       12 UNK        -0.1800 
     72 C          -4.3891  -22.1405  -46.7552 C.2       12 UNK         0.5000 
     73 O          -5.2564  -22.8841  -47.2108 O.2       12 UNK        -0.5000 
     74 N          -4.0282  -22.1151  -45.4654 N.am      13 UNK        -0.5000 
     75 CA         -4.7362  -22.8658  -44.4287 C.3       13 UNK         0.1400 
     76 CB         -4.5151  -22.2243  -43.0497 C.3       13 UNK        -0.1800 
     77 C          -4.4049  -24.3687  -44.4430 C.2       13 UNK         0.5000 
     78 O          -5.2886  -25.1720  -44.7438 O.2       13 UNK        -0.5000 
     79 N          -3.1579  -24.7316  -44.1094 N.am      14 UNK        -0.5000 
     80 CA         -2.7336  -26.1223  -43.9147 C.3       14 UNK         0.1400 
     81 CB         -1.3358  -26.1624  -43.2797 C.3       14 UNK        -0.1800 
     82 C          -2.7745  -26.9690  -45.1983 C.2       14 UNK         0.5000 
     83 O          -3.2673  -28.0974  -45.1642 O.2       14 UNK        -0.5000 
     84 N          -2.2790  -26.4075  -46.3082 N.am      15 UNK        -0.5000 
     85 CA         -2.2632  -27.0549  -47.6220 C.3       15 UNK         0.1400 
     86 CB         -1.1107  -26.4766  -48.4551 C.3       15 UNK        -0.1800 
     87 C          -3.6049  -26.9537  -48.3781 C.2       15 UNK         0.5000 
     88 O          -3.7239  -27.5491  -49.4495 O.2       15 UNK        -0.5000 
     89 N          -4.5831  -26.2278  -47.8124 N.am      16 UNK        -0.5000 
     90 CA         -5.9485  -26.0279  -48.3090 C.3       16 UNK         0.1400 
     91 CB         -6.7452  -27.3482  -48.2487 C.3       16 UNK        -0.1800 
     92 C          -5.9767  -25.3620  -49.7002 C.2       16 UNK         0.5000 
     93 O          -6.5088  -25.9334  -50.6540 O.2       16 UNK        -0.5000 
     94 N          -5.3898  -24.1590  -49.7679 N.am      17 UNK        -0.5000 
     95 CA         -5.2402  -23.2932  -50.9402 C.3       17 UNK         0.1400 
     96 CB         -6.6089  -22.7457  -51.3937 C.3       17 UNK        -0.1800 
     97 C          -4.4576  -23.9798  -52.0739 C.2       17 UNK         0.5000 
     98 O          -5.0253  -24.2994  -53.1207 O.2       17 UNK        -0.5000 
     99 N          -3.1553  -24.1946  -51.8384 N.am      18 UNK        -0.5000 
    100 CA        -2.2289  -24.7976  -52.8056 C.3       18 UNK         0.1400 
    101 CB        -0.8990  -25.1162  -52.1097 C.3       18 UNK        -0.1800 
    102 C         -2.0032  -23.9436  -54.0726 C.2       18 UNK         0.5000 
    103 O         -1.6517  -24.4897  -55.1193 O.2       18 UNK        -0.5000 
    104 N         -2.2505  -22.6350  -53.9657 N.am      19 UNK        -0.5000 
    105 CA        -2.3758  -21.6869  -55.0641 C.3       19 UNK         0.1400 
    106 CB        -0.9987  -21.1066  -55.4345 C.3       19 UNK        -0.1800 
    107 C         -3.3585  -20.5938  -54.6190 C.2       19 UNK         0.5000 
    108 O         -3.6152  -20.4491  -53.4187 O.2       19 UNK        -0.5000 
    109 N         -3.8792  -19.8234  -55.5806 N.am      20 UNK        -0.5000 
    110 CA        -4.8385  -18.7345  -55.3676 C.3       20 UNK         0.1400 
    111 CB        -5.6177  -18.5035  -56.6751 C.3       20 UNK        -0.1800 
    112 C         -4.1563  -17.4499  -54.8478 C.2       20 UNK         0.5000 
    113 O         -4.2378  -16.3996  -55.4887 O.2       20 UNK        -0.5000 
    114 N         -3.4469  -17.5743  -53.7160 N.am      21 UNK        -0.5000 
    115 CA        -2.6948  -16.5296  -53.0038 C.3       21 UNK         0.1400 
    116 CB        -3.6715  -15.5156  -52.3740 C.3       21 UNK        -0.1800 
    117 C         -1.6035  -15.8417  -53.8581 C.2       21 UNK         0.5000 
    118 O         -1.2387  -14.6979  -53.5822 O.2       21 UNK        -0.5000 
    119 N         -1.1384  -16.5360  -54.9076 N.am      22 UNK        -0.5000 
    120 CA        -0.2781  -16.0124  -55.9827 C.3       22 UNK         0.1400 
    121 C         -0.9135  -14.8443  -56.8051 C.2       22 UNK         0.5000 
    122 N         -2.2332  -14.6895  -56.8266 N.am      22 UNK        -0.7600 
    123 O         -0.2108  -14.0848  -57.4672 O.2       22 UNK        -0.5000 
    124 C124        1.1745  -15.7229  -55.5079 C.3       23 UNK        -0.0398 
    125 S125        2.0918  -17.2638  -55.1692 S.3       23 UNK        -0.2404 
    126 C126        2.6553  -17.0241  -53.4531 C.3       23 UNK        -0.0205 
    127 H127       -5.4223  -15.9817  -49.4668 H         1 UNK         0.0600 
    128 H128       -5.3217  -17.0620  -48.0773 H         1 UNK         0.0600 
    129 H129       -4.2314  -17.2858  -49.4534 H         1 UNK         0.0600 
    130 H130       -4.3893  -14.0585  -49.2269 H         1 UNK         0.3000 
    131 H131       -3.0553  -12.4253  -48.7376 H         1 UNK         0.0600 
    132 H132       -0.9525  -14.2028  -47.4396 H         1 UNK         0.0800 
    133 H133       -0.7404  -12.6102  -48.1029 H         1 UNK         0.0800 
    134 H134       -0.4193  -16.1972  -48.4674 H         1 UNK         0.0800 
    135 H135        1.0783  -15.3830  -48.8541 H         1 UNK         0.0800 
    136 H136        1.8454  -15.4560  -51.3683 H         1 UNK         0.1150 
    137 H137        1.1093  -19.2641  -53.1989 H         1 UNK         0.1150 
    138 H138       -1.0178  -18.1424  -49.6518 H         1 UNK         0.1150 
    139 H139       -1.6114  -20.1810  -50.7691 H         1 UNK         0.0800 
    140 H140       -1.1728  -20.3429  -52.4458 H         1 UNK         0.0800 
    141 H141        0.2752  -20.2854  -48.9740 H         1 UNK         0.0800 
    142 H142        1.6813  -21.2959  -49.0884 H         1 UNK         0.0800 
    143 H143        0.2171  -23.3346  -48.7657 H         1 UNK         0.0600 
    144 H144        0.9687  -21.4469  -46.7779 H         1 UNK         0.3000 
    145 H145        1.1118  -24.0524  -44.2680 H         1 UNK         0.0600 
    146 H146        3.3267  -23.0103  -44.3098 H         1 UNK         0.0600 
    147 H147        2.9082  -22.0371  -45.7143 H         1 UNK         0.0600 
    148 H148        3.0346  -23.7874  -45.8582 H         1 UNK         0.0600 
    149 H149        1.4217  -21.2140  -43.9667 H         1 UNK         0.3000 
    150 H150       -1.7589  -20.6644  -42.4003 H         1 UNK         0.0600 
    151 H151       -0.2127  -21.3887  -40.5967 H         1 UNK         0.0600 
    152 H152       -0.2311  -19.6357  -40.7271 H         1 UNK         0.0600 
    153 H153        1.1250  -20.5558  -41.3763 H         1 UNK         0.0600 
    154 H154        0.2337  -18.7975  -43.0145 H         1 UNK         0.3000 
    155 H155       -0.6917  -18.1035  -46.4184 H         1 UNK         0.0600 
    156 H156       -0.7520  -16.5257  -43.7852 H         1 UNK         0.0600 
    157 H157       -2.1410  -16.8213  -44.8159 H         1 UNK         0.0600 
    158 H158       -0.8006  -15.8644  -45.4166 H         1 UNK         0.0600 
    159 H159        1.4291  -17.2441  -44.6305 H         1 UNK         0.3000 
    160 H160        3.8801  -19.5393  -45.7861 H         1 UNK         0.0600 
    161 H161        3.6635  -16.5363  -46.3016 H         1 UNK         0.0600 
    162 H162        3.8560  -17.7563  -47.5548 H         1 UNK         0.0600 
    163 H163        5.1280  -17.5094  -46.3664 H         1 UNK         0.0600 
    164 H164        3.8801  -17.2650  -43.9873 H         1 UNK         0.3000 
    165 H165        3.0656  -19.1440  -41.0676 H         1 UNK         0.0600 
    166 H166        5.2804  -18.3585  -40.2955 H         1 UNK         0.0600 
    167 H167        5.4807  -19.6870  -41.4265 H         1 UNK         0.0600 
    168 H168        5.7813  -18.0359  -41.9561 H         1 UNK         0.0600 
    169 H169        3.9389  -16.4773  -41.3136 H         1 UNK         0.3000 
    170 H170        0.7743  -15.1245  -41.0327 H         1 UNK         0.0600 
    171 H171        2.9205  -14.9965  -39.7441 H         1 UNK         0.0600 
    172 H172        3.7670  -14.4530  -41.1924 H         1 UNK         0.0600 
    173 H173        2.5002  -13.4629  -40.4834 H         1 UNK         0.0600 
    174 H174        0.6706  -13.9480  -42.8899 H         1 UNK         0.3000 
    175 H175        2.9030  -12.6882  -45.0776 H         1 UNK         0.0600 
    176 H176        1.1635  -14.9086  -46.2640 H         1 UNK         0.0600 
    177 H177        1.5400  -13.4009  -47.1034 H         1 UNK         0.0600 
    178 H178        2.8259  -14.5002  -46.6713 H         1 UNK         0.0600 
    179 H179        0.0062  -12.8607  -45.1636 H         1 UNK         0.3000 
    180 H180       -0.7099  -10.7584  -42.5492 H         1 UNK         0.0600 
    181 H181       -1.6406   -9.0569  -44.1008 H         1 UNK         0.0600 
    182 H182       -0.6160   -9.6493  -45.4081 H         1 UNK         0.0600 
    183 H183        0.1037   -8.8827  -43.9963 H         1 UNK         0.0600 
    184 H184       -2.2668  -11.3938  -44.8533 H         1 UNK         0.3000 
    185 H185       -3.2943  -14.6595  -43.8628 H         1 UNK         0.0600 
    186 H186       -4.6743  -11.9414  -44.1699 H         1 UNK         0.0600 
    187 H187       -5.4578  -13.5168  -44.2699 H         1 UNK         0.0600 
    188 H188       -4.7358  -12.9855  -42.7591 H         1 UNK         0.0600 
    189 H189       -3.0199  -14.7107  -46.0438 H         1 UNK         0.3000 
    190 H190       -1.7081  -20.8987  -46.9580 H         1 UNK         0.3000 
    191 H191       -4.0349  -21.3595  -48.7133 H         1 UNK         0.0600 
    192 H192       -3.3665  -19.0319  -47.9662 H         1 UNK         0.0600 
    193 H193       -3.8745  -19.4586  -46.3366 H         1 UNK         0.0600 
    194 H194       -5.0344  -19.4890  -47.6464 H         1 UNK         0.0600 
    195 H195       -3.2769  -21.4986  -45.1766 H         1 UNK         0.3000 
    196 H196       -5.8062  -22.7799  -44.6328 H         1 UNK         0.0600 
    197 H197       -4.8426  -21.1846  -43.0435 H         1 UNK         0.0600 
    198 H198       -3.4730  -22.2451  -42.7442 H         1 UNK         0.0600 
    199 H199       -5.0869  -22.7489  -42.2834 H         1 UNK         0.0600 
    200 H200       -2.4705  -24.0160  -43.8802 H         1 UNK         0.3000 
    201 H201       -3.4289  -26.5763  -43.2053 H         1 UNK         0.0600 
    202 H202       -1.3189  -25.6315  -42.3278 H         1 UNK         0.0600 
    203 H203       -0.5872  -25.7099  -43.9290 H         1 UNK         0.0600 
    204 H204       -1.0237  -27.1893  -43.0856 H         1 UNK         0.0600 
    205 H205       -1.8207  -25.5013  -46.2419 H         1 UNK         0.3000 
    206 H206       -2.0588  -28.1182  -47.4799 H         1 UNK         0.0600 
    207 H207       -1.2928  -25.4377  -48.7273 H         1 UNK         0.0600 
    208 H208       -0.1662  -26.5221  -47.9127 H         1 UNK         0.0600 
    209 H209       -0.9790  -27.0459  -49.3749 H         1 UNK         0.0600 
    210 H210       -4.3788  -25.7820  -46.9282 H         1 UNK         0.3000 
    211 H211       -6.4277  -25.3310  -47.6198 H         1 UNK         0.0600 
    212 H212       -6.3403  -28.1015  -48.9250 H         1 UNK         0.0600 
    213 H213       -7.7873  -27.1863  -48.5265 H         1 UNK         0.0600 
    214 H214       -6.7389  -27.7644  -47.2412 H         1 UNK         0.0600 
    215 H215       -5.0289  -23.7786  -48.8979 H         1 UNK         0.3000 
    216 H216       -4.6411  -22.4379  -50.6290 H         1 UNK         0.0600 
    217 H217       -7.1046  -22.2093  -50.5846 H         1 UNK         0.0600 
    218 H218       -7.2774  -23.5394  -51.7285 H         1 UNK         0.0600 
    219 H219       -6.4902  -22.0467  -52.2227 H         1 UNK         0.0600 
    220 H220       -2.7647  -23.8975  -50.9476 H         1 UNK         0.3000 
    221 H221       -2.6658  -25.7422  -53.1360 H         1 UNK         0.0600 
    222 H222       -0.4644  -24.2338  -51.6435 H         1 UNK         0.0600 
    223 H223       -1.0393  -25.8685  -51.3366 H         1 UNK         0.0600 
    224 H224       -0.1677  -25.5119  -52.8156 H         1 UNK         0.0600 
    225 H225       -2.5801  -22.2752  -53.0789 H         1 UNK         0.3000 
    226 H226       -2.8044  -22.1942  -55.9310 H         1 UNK         0.0600 
    227 H227       -0.3091  -21.8950  -55.7363 H         1 UNK         0.0600 
    228 H228       -1.0778  -20.4112  -56.2707 H         1 UNK         0.0600 
    229 H229       -0.5418  -20.5681  -54.6056 H         1 UNK         0.0600 
    230 H230       -3.5999  -19.9839  -56.5379 H         1 UNK         0.3000 
    231 H231       -5.5583  -19.0435  -54.6064 H         1 UNK         0.0600 
    232 H232       -6.3724  -17.7260  -56.5493 H         1 UNK         0.0600 
    233 H233       -6.1375  -19.4088  -56.9893 H         1 UNK         0.0600 
    234 H234       -4.9594  -18.1948  -57.4881 H         1 UNK         0.0600 
    235 H235       -3.4237  -18.5005  -53.2986 H         1 UNK         0.3000 
    236 H236       -2.1751  -17.0309  -52.1898 H         1 UNK         0.0600 
    237 H237       -4.1686  -14.9108  -53.1329 H         1 UNK         0.0600 
    238 H238       -4.4412  -16.0200  -51.7913 H         1 UNK         0.0600 
    239 H239       -3.1505  -14.8339  -51.7015 H         1 UNK         0.0600 
    240 H240       -1.5012  -17.4655  -55.0520 H         1 UNK         0.3000 
    241 H241       -0.2172  -16.8192  -56.7139 H         1 UNK         0.0600 
    242 H242       -2.6315  -13.9407  -57.3703 H         1 UNK         0.3800 
    243 H243       -2.8479  -15.3067  -56.3034 H         1 UNK         0.3800 
    244 H244        1.1778  -15.0725  -54.6328 H         1 UNK         0.0800 
    245 H245        1.7429  -15.1953  -56.2749 H         1 UNK         0.0800 
    246 H246        3.0473  -16.0121  -53.3400 H         1 UNK         0.0800 
    247 H247        3.4944  -17.6965  -53.2705 H         1 UNK         0.0800 
@<TRIPOS>BOND
     1    1    2 1    
     2    1  127 1    
     3    1  128 1    
     4    1  129 1    
     5    2    3 2    
     6    2    4 am   BACKBONE|DICT|INTERRES
     7    4    5 1    
     8    4  130 1    
     9    5    6 1    
    10    5   65 1    
    11    5  131 1    
    12    6    7 1    
    13    6  132 1    
    14    6  133 1    
    15    7    8 1    
    16    8    9 1    
    17    8  134 1    
    18    8  135 1    
    19    9   10 ar   
    20    9   14 ar   
    21   10   11 ar   
    22   10  136 1    
    23   11   12 ar   
    24   11  126 1    
    25   12   13 ar   
    26   12  137 1    
    27   13   14 ar   
    28   13   15 1    
    29   14  138 1    
    30   15   16 1    
    31   15  139 1    
    32   15  140 1    
    33   16   17 1    
    34   17   18 1    
    35   17  141 1    
    36   17  142 1    
    37   18   19 1    
    38   18   67 1    
    39   18  143 1    
    40   19   20 am   BACKBONE|DICT|INTERRES
    41   19  144 1    
    42   20   21 2    
    43   20   22 1    
    44   22   23 1    
    45   22   24 1    
    46   22  145 1    
    47   23  146 1    
    48   23  147 1    
    49   23  148 1    
    50   24   25 am   BACKBONE|DICT|INTERRES
    51   24  149 1    
    52   25   26 2    
    53   25   27 1    
    54   27   28 1    
    55   27   29 1    
    56   27  150 1    
    57   28  151 1    
    58   28  152 1    
    59   28  153 1    
    60   29   30 am   BACKBONE|DICT|INTERRES
    61   29  154 1    
    62   30   31 2    
    63   30   32 1    
    64   32   33 1    
    65   32   34 1    
    66   32  155 1    
    67   33  156 1    
    68   33  157 1    
    69   33  158 1    
    70   34   35 am   BACKBONE|DICT|INTERRES
    71   34  159 1    
    72   35   36 2    
    73   35   37 1    
    74   37   38 1    
    75   37   39 1    
    76   37  160 1    
    77   38  161 1    
    78   38  162 1    
    79   38  163 1    
    80   39   40 am   BACKBONE|DICT|INTERRES
    81   39  164 1    
    82   40   41 2    
    83   40   42 1    
    84   42   43 1    
    85   42   44 1    
    86   42  165 1    
    87   43  166 1    
    88   43  167 1    
    89   43  168 1    
    90   44   45 am   BACKBONE|DICT|INTERRES
    91   44  169 1    
    92   45   46 2    
    93   45   47 1    
    94   47   48 1    
    95   47   49 1    
    96   47  170 1    
    97   48  171 1    
    98   48  172 1    
    99   48  173 1    
   100   49   50 am   BACKBONE|DICT|INTERRES
   101   49  174 1    
   102   50   51 2    
   103   50   52 1    
   104   52   53 1    
   105   52   54 1    
   106   52  175 1    
   107   53  176 1    
   108   53  177 1    
   109   53  178 1    
   110   54   55 am   BACKBONE|DICT|INTERRES
   111   54  179 1    
   112   55   56 2    
   113   55   57 1    
   114   57   58 1    
   115   57   59 1    
   116   57  180 1    
   117   58  181 1    
   118   58  182 1    
   119   58  183 1    
   120   59   60 am   BACKBONE|DICT|INTERRES
   121   59  184 1    
   122   60   61 2    
   123   60   62 1    
   124   62   63 1    
   125   62   64 1    
   126   62  185 1    
   127   63  186 1    
   128   63  187 1    
   129   63  188 1    
   130   64   65 am   BACKBONE|DICT|INTERRES
   131   64  189 1    
   132   65   66 2    
   133   67   68 2    
   134   67   69 am   BACKBONE|DICT|INTERRES
   135   69   70 1    
   136   69  190 1    
   137   70   71 1    
   138   70   72 1    
   139   70  191 1    
   140   71  192 1    
   141   71  193 1    
   142   71  194 1    
   143   72   73 2    
   144   72   74 am   BACKBONE|DICT|INTERRES
   145   74   75 1    
   146   74  195 1    
   147   75   76 1    
   148   75   77 1    
   149   75  196 1    
   150   76  197 1    
   151   76  198 1    
   152   76  199 1    
   153   77   78 2    
   154   77   79 am   BACKBONE|DICT|INTERRES
   155   79   80 1    
   156   79  200 1    
   157   80   81 1    
   158   80   82 1    
   159   80  201 1    
   160   81  202 1    
   161   81  203 1    
   162   81  204 1    
   163   82   83 2    
   164   82   84 am   BACKBONE|DICT|INTERRES
   165   84   85 1    
   166   84  205 1    
   167   85   86 1    
   168   85   87 1    
   169   85  206 1    
   170   86  207 1    
   171   86  208 1    
   172   86  209 1    
   173   87   88 2    
   174   87   89 am   BACKBONE|DICT|INTERRES
   175   89   90 1    
   176   89  210 1    
   177   90   91 1    
   178   90   92 1    
   179   90  211 1    
   180   91  212 1    
   181   91  213 1    
   182   91  214 1    
   183   92   93 2    
   184   92   94 am   BACKBONE|DICT|INTERRES
   185   94   95 1    
   186   94  215 1    
   187   95   96 1    
   188   95   97 1    
   189   95  216 1    
   190   96  217 1    
   191   96  218 1    
   192   96  219 1    
   193   97   98 2    
   194   97   99 am   BACKBONE|DICT|INTERRES
   195   99  100 1    
   196   99  220 1    
   197  100  101 1    
   198  100  102 1    
   199  100  221 1    
   200  101  222 1    
   201  101  223 1    
   202  101  224 1    
   203  102  103 2    
   204  102  104 am   BACKBONE|DICT|INTERRES
   205  104  105 1    
   206  104  225 1    
   207  105  106 1    
   208  105  107 1    
   209  105  226 1    
   210  106  227 1    
   211  106  228 1    
   212  106  229 1    
   213  107  108 2    
   214  107  109 am   BACKBONE|DICT|INTERRES
   215  109  110 1    
   216  109  230 1    
   217  110  111 1    
   218  110  112 1    
   219  110  231 1    
   220  111  232 1    
   221  111  233 1    
   222  111  234 1    
   223  112  113 2    
   224  112  114 am   BACKBONE|DICT|INTERRES
   225  114  115 1    
   226  114  235 1    
   227  115  116 1    
   228  115  117 1    
   229  115  236 1    
   230  116  237 1    
   231  116  238 1    
   232  116  239 1    
   233  117  118 2    
   234  117  119 am   BACKBONE|DICT|INTERRES
   235  119  120 1    
   236  119  240 1    
   237  120  121 1    
   238  120  124 1    
   239  120  241 1    
   240  121  122 am   BACKBONE|DICT|INTERRES
   241  121  123 2    
   242  122  242 1    
   243  122  243 1    
   244  124  125 1    
   245  124  244 1    
   246  124  245 1    
   247  125  126 1    
   248  126  246 1    
   249  126  247 1    
@<TRIPOS>SUBSTRUCTURE
     1 UNK         1 GROUP             0       ****    0 ROOT    
