@<TRIPOS>MOLECULE
3R540
247   249    1
SMALL
USER_CHARGES


@<TRIPOS>ATOM
      1 CA          2.7208   -8.9688  -45.8989 C.3       0 UNK        -0.1800 
      2 C           2.4469   -9.7865  -47.1529 C.2       0 UNK         0.5000 
      3 O           3.1931   -9.6854  -48.1268 O.2       0 UNK        -0.5000 
      4 N           1.3815  -10.5973  -47.1326 N.am      1 UNK        -0.5000 
      5 CA          0.9805  -11.4918  -48.2276 C.3       1 UNK         0.1400 
      6 C6         -0.5171  -11.8786  -48.1222 C.3       23 UNK        -0.0398 
      7 S7         -0.9183  -12.8214  -46.6052 S.3       23 UNK        -0.2404 
      8 C8         -2.4415  -13.7291  -47.0442 C.3       23 UNK        -0.0205 
      9 C9         -2.3607  -14.4834  -48.3665 C.ar      23 UNK        -0.0193 
     10 C10        -3.3878  -14.3443  -49.3041 C.ar      23 UNK        -0.1150 
     11 C11        -3.3185  -14.9943  -50.5386 C.ar      23 UNK        -0.0193 
     12 C12        -2.2089  -15.7896  -50.8355 C.ar      23 UNK        -0.1150 
     13 C13        -1.1779  -15.9430  -49.9055 C.ar      23 UNK        -0.0193 
     14 C14        -1.2646  -15.2982  -48.6684 C.ar      23 UNK        -0.1150 
     15 C15         0.0459  -16.7732  -50.2589 C.3       23 UNK        -0.0205 
     16 S16        -0.2956  -18.5581  -50.1990 S.3       23 UNK        -0.2404 
     17 C17        -0.4310  -18.8321  -48.4028 C.3       23 UNK        -0.0398 
     18 CA         -1.5058  -19.8689  -48.0045 C.3       11 UNK         0.1400 
     19 N          -1.3268  -20.2875  -46.6127 N.am      11 UNK        -0.5000 
     20 C          -1.9502  -21.3141  -46.0215 C.2       10 UNK         0.5000 
     21 O          -2.7682  -22.0383  -46.5848 O.2       10 UNK        -0.5000 
     22 CA         -1.6271  -21.5573  -44.5376 C.3       10 UNK         0.1400 
     23 CB         -0.2595  -22.2392  -44.3828 C.3       10 UNK        -0.1800 
     24 N          -1.6640  -20.3303  -43.7416 N.am      10 UNK        -0.5000 
     25 C          -2.7612  -19.5799  -43.5633 C.2       9 UNK         0.5000 
     26 O          -3.8629  -19.8532  -44.0383 O.2       9 UNK        -0.5000 
     27 CA         -2.5930  -18.2810  -42.7571 C.3       9 UNK         0.1400 
     28 CB         -2.5030  -18.5759  -41.2524 C.3       9 UNK        -0.1800 
     29 N          -1.4283  -17.5042  -43.1768 N.am      9 UNK        -0.5000 
     30 C          -1.2482  -17.0059  -44.4084 C.2       8 UNK         0.5000 
     31 O          -2.0547  -17.1266  -45.3299 O.2       8 UNK        -0.5000 
     32 CA          0.0893  -16.2980  -44.6662 C.3       8 UNK         0.1400 
     33 CB          0.1194  -14.9247  -43.9785 C.3       8 UNK        -0.1800 
     34 N           1.2349  -17.0927  -44.2252 N.am      8 UNK        -0.5000 
     35 C           1.5426  -18.3209  -44.6648 C.2       7 UNK         0.5000 
     36 O           0.9124  -18.9185  -45.5341 O.2       7 UNK        -0.5000 
     37 CA          2.7221  -19.0241  -43.9753 C.3       7 UNK         0.1400 
     38 CB          4.0656  -18.5336  -44.5379 C.3       7 UNK        -0.1800 
     39 N           2.6892  -18.8393  -42.5251 N.am      7 UNK        -0.5000 
     40 C           1.7475  -19.3494  -41.7174 C.2       6 UNK         0.5000 
     41 O           0.8262  -20.0693  -42.1032 O.2       6 UNK        -0.5000 
     42 CA          1.8277  -18.9444  -40.2350 C.3       6 UNK         0.1400 
     43 CB          2.8505  -19.8129  -39.4875 C.3       6 UNK        -0.1800 
     44 N           2.1724  -17.5317  -40.0678 N.am      6 UNK        -0.5000 
     45 C           1.3710  -16.5152  -40.4164 C.2       5 UNK         0.5000 
     46 O           0.2370  -16.6651  -40.8711 O.2       5 UNK        -0.5000 
     47 CA          1.9538  -15.0965  -40.2728 C.3       5 UNK         0.1400 
     48 CB          1.7430  -14.5688  -38.8459 C.3       5 UNK        -0.1800 
     49 N           3.3775  -15.0179  -40.6159 N.am      5 UNK        -0.5000 
     50 C           3.8820  -15.2654  -41.8316 C.2       4 UNK         0.5000 
     51 O           3.2018  -15.6094  -42.8010 O.2       4 UNK        -0.5000 
     52 CA          5.4040  -15.1592  -41.9754 C.3       4 UNK         0.1400 
     53 CB          6.0898  -16.4340  -41.4519 C.3       4 UNK        -0.1800 
     54 N           5.7397  -14.9669  -43.3827 N.am      4 UNK        -0.5000 
     55 C           6.8276  -14.3357  -43.8374 C.2       3 UNK         0.5000 
     56 O           7.6841  -13.8467  -43.0988 O.2       3 UNK        -0.5000 
     57 CA          7.0178  -14.2389  -45.3661 C.3       3 UNK         0.1400 
     58 CB          8.1202  -15.2068  -45.8257 C.3       3 UNK        -0.1800 
     59 N           5.8130  -14.4977  -46.1609 N.am      3 UNK        -0.5000 
     60 C           4.7542  -13.6830  -46.2422 C.2       2 UNK         0.5000 
     61 O           4.6362  -12.6433  -45.5871 O.2       2 UNK        -0.5000 
     62 CA          3.6484  -14.1080  -47.2227 C.3       2 UNK         0.1400 
     63 CB          2.9669  -15.4105  -46.7720 C.3       2 UNK        -0.1800 
     64 N           2.6614  -13.0388  -47.3029 N.am      2 UNK        -0.5000 
     65 C           1.8975  -12.7342  -48.3588 C.2       1 UNK         0.5000 
     66 O           1.9001  -13.3787  -49.4085 O.2       1 UNK        -0.5000 
     67 C          -2.9431  -19.3846  -48.2907 C.2       11 UNK         0.5000 
     68 O          -3.5129  -19.7500  -49.3197 O.2       11 UNK        -0.5000 
     69 N          -3.5228  -18.6170  -47.3567 N.am      12 UNK        -0.5000 
     70 CA         -4.9159  -18.1780  -47.4084 C.3       12 UNK         0.1400 
     71 CB         -5.1644  -17.1273  -46.3163 C.3       12 UNK        -0.1800 
     72 C          -5.9138  -19.3458  -47.2857 C.2       12 UNK         0.5000 
     73 O          -6.9249  -19.3518  -47.9889 O.2       12 UNK        -0.5000 
     74 N          -5.6184  -20.3039  -46.3962 N.am      13 UNK        -0.5000 
     75 CA         -6.4620  -21.4652  -46.1245 C.3       13 UNK         0.1400 
     76 CB         -6.0747  -22.0791  -44.7697 C.3       13 UNK        -0.1800 
     77 C          -6.4139  -22.5325  -47.2315 C.2       13 UNK         0.5000 
     78 O          -7.4715  -22.9975  -47.6595 O.2       13 UNK        -0.5000 
     79 N          -5.2055  -22.9325  -47.6466 N.am      14 UNK        -0.5000 
     80 CA         -4.9764  -24.0681  -48.5335 C.3       14 UNK         0.1400 
     81 CB         -5.1883  -25.3900  -47.7597 C.3       14 UNK        -0.1800 
     82 C          -3.5911  -23.9629  -49.1926 C.2       14 UNK         0.5000 
     83 O          -3.4577  -23.2653  -50.1975 O.2       14 UNK        -0.5000 
     84 N          -2.6071  -24.6818  -48.6312 N.am      15 UNK        -0.5000 
     85 CA         -1.2247  -24.8335  -49.0928 C.3       15 UNK         0.1400 
     86 CB         -0.4511  -23.5024  -48.9652 C.3       15 UNK        -0.1800 
     87 C          -1.1364  -25.4948  -50.4869 C.2       15 UNK         0.5000 
     88 O          -1.6899  -26.5796  -50.6764 O.2       15 UNK        -0.5000 
     89 N          -0.4071  -24.8622  -51.4131 N.am      16 UNK        -0.5000 
     90 CA         -0.1697  -25.3028  -52.7877 C.3       16 UNK         0.1400 
     91 CB          1.0132  -24.4862  -53.3416 C.3       16 UNK        -0.1800 
     92 C          -1.4125  -25.1808  -53.6979 C.2       16 UNK         0.5000 
     93 O          -2.4997  -24.8281  -53.2364 O.2       16 UNK        -0.5000 
     94 N          -1.2183  -25.4801  -54.9917 N.am      17 UNK        -0.5000 
     95 CA         -2.1920  -25.3563  -56.0859 C.3       17 UNK         0.1400 
     96 CB         -2.4866  -23.8703  -56.3761 C.3       17 UNK        -0.1800 
     97 C          -3.4703  -26.1890  -55.8563 C.2       17 UNK         0.5000 
     98 O          -4.5776  -25.7086  -56.1019 O.2       17 UNK        -0.5000 
     99 N          -3.2750  -27.4236  -55.3678 N.am      18 UNK        -0.5000 
    100 CA        -4.3064  -28.3860  -54.9658 C.3       18 UNK         0.1400 
    101 CB        -5.1240  -28.8658  -56.1844 C.3       18 UNK        -0.1800 
    102 C         -5.1802  -27.8525  -53.8108 C.2       18 UNK         0.5000 
    103 O         -6.4082  -27.9371  -53.8717 O.2       18 UNK        -0.5000 
    104 N         -4.5095  -27.3148  -52.7798 N.am      19 UNK        -0.5000 
    105 CA        -5.0766  -26.7212  -51.5661 C.3       19 UNK         0.1400 
    106 CB        -5.8397  -27.7798  -50.7381 C.3       19 UNK        -0.1800 
    107 C         -5.9057  -25.4565  -51.8607 C.2       19 UNK         0.5000 
    108 O         -7.0336  -25.3340  -51.3794 O.2       19 UNK        -0.5000 
    109 N         -5.3291  -24.5327  -52.6392 N.am      20 UNK        -0.5000 
    110 CA        -5.9649  -23.2826  -53.0484 C.3       20 UNK         0.1400 
    111 CB        -7.0751  -23.5591  -54.0871 C.3       20 UNK        -0.1800 
    112 C         -4.9180  -22.2786  -53.5608 C.2       20 UNK         0.5000 
    113 O         -5.1077  -21.6921  -54.6280 O.2       20 UNK        -0.5000 
    114 N         -3.8278  -22.0776  -52.8063 N.am      21 UNK        -0.5000 
    115 CA        -2.7087  -21.2032  -53.1846 C.3       21 UNK         0.1400 
    116 CB        -1.5801  -21.3455  -52.1575 C.3       21 UNK        -0.1800 
    117 C         -3.0985  -19.7219  -53.3642 C.2       21 UNK         0.5000 
    118 O         -2.5251  -19.0399  -54.2145 O.2       21 UNK        -0.5000 
    119 N         -4.0929  -19.2709  -52.5920 N.am      22 UNK        -0.5000 
    120 CA        -4.7492  -17.9623  -52.7257 C.3       22 UNK         0.1400 
    121 C         -5.8008  -17.8925  -53.8804 C.2       22 UNK         0.5000 
    122 N         -6.1174  -18.9762  -54.5800 N.am      22 UNK        -0.7600 
    123 O         -6.3214  -16.8240  -54.1858 O.2       22 UNK        -0.5000 
    124 C124       -5.3007  -17.5208  -51.3425 C.3       23 UNK        -0.0398 
    125 S125       -5.9029  -15.8017  -51.1822 S.3       23 UNK        -0.2404 
    126 C126       -4.4270  -14.8044  -51.5617 C.3       23 UNK        -0.0205 
    127 H127        2.7357   -7.9056  -46.1388 H         1 UNK         0.0600 
    128 H128        3.6905   -9.2397  -45.4808 H         1 UNK         0.0600 
    129 H129        1.9624   -9.1341  -45.1333 H         1 UNK         0.0600 
    130 H130        0.8026  -10.6429  -46.3054 H         1 UNK         0.3000 
    131 H131        1.0954  -10.9341  -49.1596 H         1 UNK         0.0600 
    132 H132       -1.1330  -10.9787  -48.1356 H         1 UNK         0.0800 
    133 H133       -0.8078  -12.4436  -49.0081 H         1 UNK         0.0800 
    134 H134       -3.2682  -13.0175  -47.0591 H         1 UNK         0.0800 
    135 H135       -2.6640  -14.4429  -46.2501 H         1 UNK         0.0800 
    136 H136       -4.2414  -13.7197  -49.0809 H         1 UNK         0.1150 
    137 H137       -2.1385  -16.2860  -51.7930 H         1 UNK         0.1150 
    138 H138       -0.4638  -15.4029  -47.9510 H         1 UNK         0.1150 
    139 H139        0.3753  -16.5126  -51.2657 H         1 UNK         0.0800 
    140 H140        0.8810  -16.5370  -49.5972 H         1 UNK         0.0800 
    141 H141       -0.5992  -17.8925  -47.8761 H         1 UNK         0.0800 
    142 H142        0.5502  -19.1819  -48.0810 H         1 UNK         0.0800 
    143 H143       -1.3495  -20.7567  -48.6169 H         1 UNK         0.0600 
    144 H144       -0.6453  -19.7561  -46.0750 H         1 UNK         0.3000 
    145 H145       -2.3878  -22.2326  -44.1406 H         1 UNK         0.0600 
    146 H146       -0.0668  -22.5020  -43.3426 H         1 UNK         0.0600 
    147 H147       -0.2134  -23.1600  -44.9656 H         1 UNK         0.0600 
    148 H148        0.5532  -21.5950  -44.7198 H         1 UNK         0.0600 
    149 H149       -0.7956  -20.0497  -43.2963 H         1 UNK         0.3000 
    150 H150       -3.4789  -17.6669  -42.9309 H         1 UNK         0.0600 
    151 H151       -2.4775  -17.6535  -40.6720 H         1 UNK         0.0600 
    152 H152       -3.3663  -19.1502  -40.9139 H         1 UNK         0.0600 
    153 H153       -1.6084  -19.1489  -41.0062 H         1 UNK         0.0600 
    154 H154       -0.7196  -17.3311  -42.4701 H         1 UNK         0.3000 
    155 H155        0.1779  -16.1452  -45.7429 H         1 UNK         0.0600 
    156 H156        0.1864  -15.0155  -42.8968 H         1 UNK         0.0600 
    157 H157       -0.7871  -14.3588  -44.1908 H         1 UNK         0.0600 
    158 H158        0.9669  -14.3285  -44.3161 H         1 UNK         0.0600 
    159 H159        1.8487  -16.6555  -43.5427 H         1 UNK         0.3000 
    160 H160        2.6395  -20.0935  -44.1807 H         1 UNK         0.0600 
    161 H161        4.2137  -17.4670  -44.3737 H         1 UNK         0.0600 
    162 H162        4.1214  -18.7077  -45.6131 H         1 UNK         0.0600 
    163 H163        4.9017  -19.0622  -44.0800 H         1 UNK         0.0600 
    164 H164        3.3808  -18.2216  -42.1297 H         1 UNK         0.3000 
    165 H165        0.8450  -19.1125  -39.7890 H         1 UNK         0.0600 
    166 H166        2.8599  -19.5812  -38.4223 H         1 UNK         0.0600 
    167 H167        2.6083  -20.8719  -39.5865 H         1 UNK         0.0600 
    168 H168        3.8613  -19.6698  -39.8714 H         1 UNK         0.0600 
    169 H169        3.0863  -17.3214  -39.6952 H         1 UNK         0.3000 
    170 H170        1.4102  -14.4430  -40.9574 H         1 UNK         0.0600 
    171 H171        0.6875  -14.5976  -38.5715 H         1 UNK         0.0600 
    172 H172        2.2895  -15.1611  -38.1109 H         1 UNK         0.0600 
    173 H173        2.0722  -13.5335  -38.7555 H         1 UNK         0.0600 
    174 H174        4.0039  -14.7490  -39.8707 H         1 UNK         0.3000 
    175 H175        5.7391  -14.2960  -41.3965 H         1 UNK         0.0600 
    176 H176        5.7828  -17.3158  -42.0158 H         1 UNK         0.0600 
    177 H177        7.1747  -16.3553  -41.5232 H         1 UNK         0.0600 
    178 H178        5.8484  -16.6116  -40.4033 H         1 UNK         0.0600 
    179 H179        5.0348  -15.2845  -44.0342 H         1 UNK         0.3000 
    180 H180        7.3495  -13.2212  -45.5823 H         1 UNK         0.0600 
    181 H181        7.8396  -16.2464  -45.6519 H         1 UNK         0.0600 
    182 H182        9.0520  -15.0247  -45.2884 H         1 UNK         0.0600 
    183 H183        8.3333  -15.0880  -46.8883 H         1 UNK         0.0600 
    184 H184        5.8274  -15.3353  -46.7247 H         1 UNK         0.3000 
    185 H185        4.1042  -14.2525  -48.2044 H         1 UNK         0.0600 
    186 H186        3.6531  -16.2562  -46.8198 H         1 UNK         0.0600 
    187 H187        2.6204  -15.3282  -45.7434 H         1 UNK         0.0600 
    188 H188        2.1099  -15.6545  -47.3999 H         1 UNK         0.0600 
    189 H189        2.6599  -12.4172  -46.5043 H         1 UNK         0.3000 
    190 H190       -2.9807  -18.3125  -46.5524 H         1 UNK         0.3000 
    191 H191       -5.0834  -17.6966  -48.3723 H         1 UNK         0.0600 
    192 H192       -4.5257  -16.2556  -46.4598 H         1 UNK         0.0600 
    193 H193       -6.1980  -16.7798  -46.3351 H         1 UNK         0.0600 
    194 H194       -4.9673  -17.5268  -45.3208 H         1 UNK         0.0600 
    195 H195       -4.7882  -20.2026  -45.8215 H         1 UNK         0.3000 
    196 H196       -7.4953  -21.1206  -46.0446 H         1 UNK         0.0600 
    197 H197       -6.6883  -22.9524  -44.5450 H         1 UNK         0.0600 
    198 H198       -6.2182  -21.3646  -43.9590 H         1 UNK         0.0600 
    199 H199       -5.0315  -22.3969  -44.7543 H         1 UNK         0.0600 
    200 H200       -4.3663  -22.4885  -47.2723 H         1 UNK         0.3000 
    201 H201       -5.7046  -24.0237  -49.3443 H         1 UNK         0.0600 
    202 H202       -6.2442  -25.5506  -47.5415 H         1 UNK         0.0600 
    203 H203       -4.6528  -25.3937  -46.8096 H         1 UNK         0.0600 
    204 H204       -4.8473  -26.2512  -48.3339 H         1 UNK         0.0600 
    205 H205       -2.8451  -25.2315  -47.8185 H         1 UNK         0.3000 
    206 H206       -0.7580  -25.5402  -48.4053 H         1 UNK         0.0600 
    207 H207        0.6090  -23.6351  -49.1844 H         1 UNK         0.0600 
    208 H208       -0.8400  -22.7404  -49.6389 H         1 UNK         0.0600 
    209 H209       -0.5148  -23.1130  -47.9499 H         1 UNK         0.0600 
    210 H210       -0.0127  -23.9682  -51.1642 H         1 UNK         0.3000 
    211 H211        0.1156  -26.3562  -52.7610 H         1 UNK         0.0600 
    212 H212        0.7563  -23.4317  -53.4516 H         1 UNK         0.0600 
    213 H213        1.3337  -24.8499  -54.3182 H         1 UNK         0.0600 
    214 H214        1.8797  -24.5512  -52.6830 H         1 UNK         0.0600 
    215 H215       -0.2964  -25.7829  -55.2735 H         1 UNK         0.3000 
    216 H216       -1.7144  -25.7739  -56.9734 H         1 UNK         0.0600 
    217 H217       -1.5673  -23.3081  -56.5395 H         1 UNK         0.0600 
    218 H218       -3.0250  -23.4012  -55.5540 H         1 UNK         0.0600 
    219 H219       -3.0993  -23.7593  -57.2713 H         1 UNK         0.0600 
    220 H220       -2.3212  -27.7112  -55.2001 H         1 UNK         0.3000 
    221 H221       -3.7780  -29.2541  -54.5688 H         1 UNK         0.0600 
    222 H222       -5.7304  -28.0661  -56.6104 H         1 UNK         0.0600 
    223 H223       -4.4727  -29.2478  -56.9704 H         1 UNK         0.0600 
    224 H224       -5.8015  -29.6732  -55.9043 H         1 UNK         0.0600 
    225 H225       -3.5042  -27.2455  -52.8540 H         1 UNK         0.3000 
    226 H226       -4.2350  -26.3860  -50.9623 H         1 UNK         0.0600 
    227 H227       -5.1897  -28.6134  -50.4728 H         1 UNK         0.0600 
    228 H228       -6.2216  -27.3576  -49.8092 H         1 UNK         0.0600 
    229 H229       -6.6979  -28.1817  -51.2764 H         1 UNK         0.0600 
    230 H230       -4.3709  -24.6726  -52.9585 H         1 UNK         0.3000 
    231 H231       -6.4222  -22.8239  -52.1693 H         1 UNK         0.0600 
    232 H232       -6.6708  -24.0368  -54.9805 H         1 UNK         0.0600 
    233 H233       -7.5639  -22.6350  -54.3980 H         1 UNK         0.0600 
    234 H234       -7.8531  -24.2083  -53.6865 H         1 UNK         0.0600 
    235 H235       -3.7238  -22.5847  -51.9287 H         1 UNK         0.3000 
    236 H236       -2.3301  -21.5556  -54.1456 H         1 UNK         0.0600 
    237 H237       -1.2356  -22.3752  -52.1026 H         1 UNK         0.0600 
    238 H238       -0.7226  -20.7274  -52.4254 H         1 UNK         0.0600 
    239 H239       -1.9081  -21.0472  -51.1617 H         1 UNK         0.0600 
    240 H240       -4.4721  -19.8971  -51.8959 H         1 UNK         0.3000 
    241 H241       -3.9722  -17.2529  -53.0080 H         1 UNK         0.0600 
    242 H242       -5.6607  -19.8703  -54.4290 H         1 UNK         0.3800 
    243 H243       -6.7875  -18.8905  -55.3273 H         1 UNK         0.3800 
    244 H244       -4.5143  -17.6436  -50.5982 H         1 UNK         0.0800 
    245 H245       -6.1063  -18.1883  -51.0325 H         1 UNK         0.0800 
    246 H246       -4.0730  -15.0255  -52.5688 H         1 UNK         0.0800 
    247 H247       -4.7182  -13.7531  -51.5784 H         1 UNK         0.0800 
@<TRIPOS>BOND
     1    1    2 1    
     2    1  127 1    
     3    1  128 1    
     4    1  129 1    
     5    2    3 2    
     6    2    4 am   BACKBONE|DICT|INTERRES
     7    4    5 1    
     8    4  130 1    
     9    5    6 1    
    10    5   65 1    
    11    5  131 1    
    12    6    7 1    
    13    6  132 1    
    14    6  133 1    
    15    7    8 1    
    16    8    9 1    
    17    8  134 1    
    18    8  135 1    
    19    9   10 ar   
    20    9   14 ar   
    21   10   11 ar   
    22   10  136 1    
    23   11   12 ar   
    24   11  126 1    
    25   12   13 ar   
    26   12  137 1    
    27   13   14 ar   
    28   13   15 1    
    29   14  138 1    
    30   15   16 1    
    31   15  139 1    
    32   15  140 1    
    33   16   17 1    
    34   17   18 1    
    35   17  141 1    
    36   17  142 1    
    37   18   19 1    
    38   18   67 1    
    39   18  143 1    
    40   19   20 am   BACKBONE|DICT|INTERRES
    41   19  144 1    
    42   20   21 2    
    43   20   22 1    
    44   22   23 1    
    45   22   24 1    
    46   22  145 1    
    47   23  146 1    
    48   23  147 1    
    49   23  148 1    
    50   24   25 am   BACKBONE|DICT|INTERRES
    51   24  149 1    
    52   25   26 2    
    53   25   27 1    
    54   27   28 1    
    55   27   29 1    
    56   27  150 1    
    57   28  151 1    
    58   28  152 1    
    59   28  153 1    
    60   29   30 am   BACKBONE|DICT|INTERRES
    61   29  154 1    
    62   30   31 2    
    63   30   32 1    
    64   32   33 1    
    65   32   34 1    
    66   32  155 1    
    67   33  156 1    
    68   33  157 1    
    69   33  158 1    
    70   34   35 am   BACKBONE|DICT|INTERRES
    71   34  159 1    
    72   35   36 2    
    73   35   37 1    
    74   37   38 1    
    75   37   39 1    
    76   37  160 1    
    77   38  161 1    
    78   38  162 1    
    79   38  163 1    
    80   39   40 am   BACKBONE|DICT|INTERRES
    81   39  164 1    
    82   40   41 2    
    83   40   42 1    
    84   42   43 1    
    85   42   44 1    
    86   42  165 1    
    87   43  166 1    
    88   43  167 1    
    89   43  168 1    
    90   44   45 am   BACKBONE|DICT|INTERRES
    91   44  169 1    
    92   45   46 2    
    93   45   47 1    
    94   47   48 1    
    95   47   49 1    
    96   47  170 1    
    97   48  171 1    
    98   48  172 1    
    99   48  173 1    
   100   49   50 am   BACKBONE|DICT|INTERRES
   101   49  174 1    
   102   50   51 2    
   103   50   52 1    
   104   52   53 1    
   105   52   54 1    
   106   52  175 1    
   107   53  176 1    
   108   53  177 1    
   109   53  178 1    
   110   54   55 am   BACKBONE|DICT|INTERRES
   111   54  179 1    
   112   55   56 2    
   113   55   57 1    
   114   57   58 1    
   115   57   59 1    
   116   57  180 1    
   117   58  181 1    
   118   58  182 1    
   119   58  183 1    
   120   59   60 am   BACKBONE|DICT|INTERRES
   121   59  184 1    
   122   60   61 2    
   123   60   62 1    
   124   62   63 1    
   125   62   64 1    
   126   62  185 1    
   127   63  186 1    
   128   63  187 1    
   129   63  188 1    
   130   64   65 am   BACKBONE|DICT|INTERRES
   131   64  189 1    
   132   65   66 2    
   133   67   68 2    
   134   67   69 am   BACKBONE|DICT|INTERRES
   135   69   70 1    
   136   69  190 1    
   137   70   71 1    
   138   70   72 1    
   139   70  191 1    
   140   71  192 1    
   141   71  193 1    
   142   71  194 1    
   143   72   73 2    
   144   72   74 am   BACKBONE|DICT|INTERRES
   145   74   75 1    
   146   74  195 1    
   147   75   76 1    
   148   75   77 1    
   149   75  196 1    
   150   76  197 1    
   151   76  198 1    
   152   76  199 1    
   153   77   78 2    
   154   77   79 am   BACKBONE|DICT|INTERRES
   155   79   80 1    
   156   79  200 1    
   157   80   81 1    
   158   80   82 1    
   159   80  201 1    
   160   81  202 1    
   161   81  203 1    
   162   81  204 1    
   163   82   83 2    
   164   82   84 am   BACKBONE|DICT|INTERRES
   165   84   85 1    
   166   84  205 1    
   167   85   86 1    
   168   85   87 1    
   169   85  206 1    
   170   86  207 1    
   171   86  208 1    
   172   86  209 1    
   173   87   88 2    
   174   87   89 am   BACKBONE|DICT|INTERRES
   175   89   90 1    
   176   89  210 1    
   177   90   91 1    
   178   90   92 1    
   179   90  211 1    
   180   91  212 1    
   181   91  213 1    
   182   91  214 1    
   183   92   93 2    
   184   92   94 am   BACKBONE|DICT|INTERRES
   185   94   95 1    
   186   94  215 1    
   187   95   96 1    
   188   95   97 1    
   189   95  216 1    
   190   96  217 1    
   191   96  218 1    
   192   96  219 1    
   193   97   98 2    
   194   97   99 am   BACKBONE|DICT|INTERRES
   195   99  100 1    
   196   99  220 1    
   197  100  101 1    
   198  100  102 1    
   199  100  221 1    
   200  101  222 1    
   201  101  223 1    
   202  101  224 1    
   203  102  103 2    
   204  102  104 am   BACKBONE|DICT|INTERRES
   205  104  105 1    
   206  104  225 1    
   207  105  106 1    
   208  105  107 1    
   209  105  226 1    
   210  106  227 1    
   211  106  228 1    
   212  106  229 1    
   213  107  108 2    
   214  107  109 am   BACKBONE|DICT|INTERRES
   215  109  110 1    
   216  109  230 1    
   217  110  111 1    
   218  110  112 1    
   219  110  231 1    
   220  111  232 1    
   221  111  233 1    
   222  111  234 1    
   223  112  113 2    
   224  112  114 am   BACKBONE|DICT|INTERRES
   225  114  115 1    
   226  114  235 1    
   227  115  116 1    
   228  115  117 1    
   229  115  236 1    
   230  116  237 1    
   231  116  238 1    
   232  116  239 1    
   233  117  118 2    
   234  117  119 am   BACKBONE|DICT|INTERRES
   235  119  120 1    
   236  119  240 1    
   237  120  121 1    
   238  120  124 1    
   239  120  241 1    
   240  121  122 am   BACKBONE|DICT|INTERRES
   241  121  123 2    
   242  122  242 1    
   243  122  243 1    
   244  124  125 1    
   245  124  244 1    
   246  124  245 1    
   247  125  126 1    
   248  126  246 1    
   249  126  247 1    
@<TRIPOS>SUBSTRUCTURE
     1 UNK         1 GROUP             0       ****    0 ROOT    
