@<TRIPOS>MOLECULE
3R540
247   249    1
SMALL
USER_CHARGES


@<TRIPOS>ATOM
      1 CA          3.5255   -8.5515  -50.2095 C.3       0 UNK        -0.1800 
      2 C           2.7637   -9.5733  -49.3788 C.2       0 UNK         0.5000 
      3 O           3.0887   -9.7767  -48.2099 O.2       0 UNK        -0.5000 
      4 N           1.7364  -10.2027  -49.9665 N.am      1 UNK        -0.5000 
      5 CA          0.9009  -11.2411  -49.3445 C.3       1 UNK         0.1400 
      6 C6         -0.0457  -11.8856  -50.3889 C.3       23 UNK        -0.0398 
      7 S7         -0.7602  -13.4890  -49.8860 S.3       23 UNK        -0.2404 
      8 C8          0.7067  -14.5681  -49.8705 C.3       23 UNK        -0.0205 
      9 C9          0.4061  -15.9260  -50.4846 C.ar      23 UNK        -0.0193 
     10 C10         0.9206  -16.2585  -51.7411 C.ar      23 UNK        -0.1150 
     11 C11         0.6580  -17.5087  -52.3066 C.ar      23 UNK        -0.0193 
     12 C12        -0.1308  -18.4262  -51.6080 C.ar      23 UNK        -0.1150 
     13 C13        -0.6463  -18.1116  -50.3453 C.ar      23 UNK        -0.0193 
     14 C14        -0.3741  -16.8570  -49.7914 C.ar      23 UNK        -0.1150 
     15 C15        -1.5122  -19.1108  -49.5863 C.3       23 UNK        -0.0205 
     16 S16        -0.7393  -20.7561  -49.4767 S.3       23 UNK        -0.2404 
     17 C17        -2.0229  -21.6850  -48.5780 C.3       23 UNK        -0.0398 
     18 CA         -1.4140  -22.8906  -47.8259 C.3       11 UNK         0.1400 
     19 N          -0.5958  -22.4784  -46.6810 N.am      11 UNK        -0.5000 
     20 C           0.2359  -23.2879  -46.0116 C.2       10 UNK         0.5000 
     21 O           0.4289  -24.4637  -46.3154 O.2       10 UNK        -0.5000 
     22 CA          0.9201  -22.7103  -44.7585 C.3       10 UNK         0.1400 
     23 CB          2.1292  -21.8412  -45.1342 C.3       10 UNK        -0.1800 
     24 N          -0.0070  -21.9448  -43.9241 N.am      10 UNK        -0.5000 
     25 C          -1.0756  -22.4704  -43.3082 C.2       9 UNK         0.5000 
     26 O          -1.3495  -23.6700  -43.3246 O.2       9 UNK        -0.5000 
     27 CA         -2.0281  -21.4893  -42.6027 C.3       9 UNK         0.1400 
     28 CB         -1.5406  -21.1697  -41.1815 C.3       9 UNK        -0.1800 
     29 N          -2.2056  -20.2491  -43.3589 N.am      9 UNK        -0.5000 
     30 C          -2.8400  -20.1667  -44.5374 C.2       8 UNK         0.5000 
     31 O          -3.3676  -21.1261  -45.0983 O.2       8 UNK        -0.5000 
     32 CA         -2.8333  -18.7912  -45.2304 C.3       8 UNK         0.1400 
     33 CB         -3.9199  -17.8794  -44.6421 C.3       8 UNK        -0.1800 
     34 N          -1.5349  -18.1216  -45.1325 N.am      8 UNK        -0.5000 
     35 C          -0.3967  -18.5960  -45.6588 C.2       7 UNK         0.5000 
     36 O          -0.3366  -19.6245  -46.3285 O.2       7 UNK        -0.5000 
     37 CA          0.8971  -17.8336  -45.3207 C.3       7 UNK         0.1400 
     38 CB          1.1456  -16.7071  -46.3313 C.3       7 UNK        -0.1800 
     39 N           0.8994  -17.2981  -43.9544 N.am      7 UNK        -0.5000 
     40 C           0.8885  -18.0702  -42.8555 C.2       6 UNK         0.5000 
     41 O           0.8793  -19.3009  -42.9108 O.2       6 UNK        -0.5000 
     42 CA          0.8136  -17.3852  -41.4725 C.3       6 UNK         0.1400 
     43 CB          1.6916  -18.0958  -40.4209 C.3       6 UNK        -0.1800 
     44 N           1.0604  -15.9377  -41.4822 N.am      6 UNK        -0.5000 
     45 C           2.2070  -15.3056  -41.7669 C.2       5 UNK         0.5000 
     46 O           3.2612  -15.8705  -42.0674 O.2       5 UNK        -0.5000 
     47 CA          2.1541  -13.7660  -41.7148 C.3       5 UNK         0.1400 
     48 CB          2.8894  -13.2361  -40.4740 C.3       5 UNK        -0.1800 
     49 N           2.7296  -13.1539  -42.9113 N.am      5 UNK        -0.5000 
     50 C           2.3096  -13.3634  -44.1648 C.2       4 UNK         0.5000 
     51 O           1.3352  -14.0636  -44.4489 O.2       4 UNK        -0.5000 
     52 CA          3.0959  -12.6307  -45.2672 C.3       4 UNK         0.1400 
     53 CB          2.9360  -13.2874  -46.6492 C.3       4 UNK        -0.1800 
     54 N           2.6726  -11.2358  -45.3540 N.am      4 UNK        -0.5000 
     55 C           3.0790  -10.2497  -44.5427 C.2       3 UNK         0.5000 
     56 O           3.8639  -10.4262  -43.6092 O.2       3 UNK        -0.5000 
     57 CA          2.5398   -8.8307  -44.8125 C.3       3 UNK         0.1400 
     58 CB          3.6804   -7.8938  -45.2426 C.3       3 UNK        -0.1800 
     59 N           1.5100   -8.8135  -45.8532 N.am      3 UNK        -0.5000 
     60 C           0.1905   -8.7359  -45.6303 C.2       2 UNK         0.5000 
     61 O          -0.3071   -8.6421  -44.5077 O.2       2 UNK        -0.5000 
     62 CA         -0.7392   -8.7715  -46.8632 C.3       2 UNK         0.1400 
     63 CB         -1.1491   -7.3466  -47.2657 C.3       2 UNK        -0.1800 
     64 N          -0.1532   -9.4413  -48.0272 N.am      2 UNK        -0.5000 
     65 C           0.1469  -10.7467  -48.0865 C.2       1 UNK         0.5000 
     66 O          -0.0870  -11.5315  -47.1684 O.2       1 UNK        -0.5000 
     67 C          -2.4929  -23.9217  -47.4302 C.2       11 UNK         0.5000 
     68 O          -2.7442  -24.8535  -48.1948 O.2       11 UNK        -0.5000 
     69 N          -3.0908  -23.7806  -46.2382 N.am      12 UNK        -0.5000 
     70 CA         -4.0049  -24.7698  -45.6615 C.3       12 UNK         0.1400 
     71 CB         -4.6714  -24.2060  -44.3991 C.3       12 UNK        -0.1800 
     72 C          -3.3089  -26.1132  -45.3742 C.2       12 UNK         0.5000 
     73 O          -3.8376  -27.1574  -45.7556 O.2       12 UNK        -0.5000 
     74 N          -2.1132  -26.0623  -44.7691 N.am      13 UNK        -0.5000 
     75 CA         -1.2590  -27.2245  -44.5017 C.3       13 UNK         0.1400 
     76 CB         -0.0722  -26.7976  -43.6250 C.3       13 UNK        -0.1800 
     77 C          -0.7687  -27.9291  -45.7832 C.2       13 UNK         0.5000 
     78 O          -0.6519  -29.1546  -45.7966 O.2       13 UNK        -0.5000 
     79 N          -0.5400  -27.1497  -46.8488 N.am      14 UNK        -0.5000 
     80 CA         -0.2098  -27.6186  -48.1975 C.3       14 UNK         0.1400 
     81 CB          0.4348  -26.4633  -48.9805 C.3       14 UNK        -0.1800 
     82 C          -1.4158  -28.1954  -48.9731 C.2       14 UNK         0.5000 
     83 O          -1.2347  -28.6432  -50.1061 O.2       14 UNK        -0.5000 
     84 N          -2.6119  -28.1755  -48.3653 N.am      15 UNK        -0.5000 
     85 CA         -3.8898  -28.6743  -48.8804 C.3       15 UNK         0.1400 
     86 CB         -3.8260  -30.1846  -49.1935 C.3       15 UNK        -0.1800 
     87 C          -4.4640  -27.8350  -50.0403 C.2       15 UNK         0.5000 
     88 O          -5.2541  -28.3500  -50.8331 O.2       15 UNK        -0.5000 
     89 N          -4.1099  -26.5425  -50.0911 N.am      16 UNK        -0.5000 
     90 CA         -4.6987  -25.5533  -50.9993 C.3       16 UNK         0.1400 
     91 CB         -3.6237  -24.5312  -51.4075 C.3       16 UNK        -0.1800 
     92 C          -5.9263  -24.8545  -50.3761 C.2       16 UNK         0.5000 
     93 O          -6.4755  -23.9424  -50.9918 O.2       16 UNK        -0.5000 
     94 N          -6.3294  -25.2710  -49.1634 N.am      17 UNK        -0.5000 
     95 CA         -7.4903  -24.7935  -48.3980 C.3       17 UNK         0.1400 
     96 CB         -8.8032  -25.2058  -49.0959 C.3       17 UNK        -0.1800 
     97 C          -7.4285  -23.2843  -48.0784 C.2       17 UNK         0.5000 
     98 O          -8.4570  -22.6070  -48.0728 O.2       17 UNK        -0.5000 
     99 N          -6.2024  -22.7949  -47.8421 N.am      18 UNK        -0.5000 
    100 CA        -5.8161  -21.4056  -47.5696 C.3       18 UNK         0.1400 
    101 CB        -6.5454  -20.8444  -46.3312 C.3       18 UNK        -0.1800 
    102 C         -5.9258  -20.4543  -48.7806 C.2       18 UNK         0.5000 
    103 O         -5.6484  -19.2641  -48.6246 O.2       18 UNK        -0.5000 
    104 N         -6.2960  -20.9681  -49.9627 N.am      19 UNK        -0.5000 
    105 CA        -6.3514  -20.2016  -51.2060 C.3       19 UNK         0.1400 
    106 CB        -7.2178  -20.9497  -52.2304 C.3       19 UNK        -0.1800 
    107 C         -4.9406  -19.9621  -51.7678 C.2       19 UNK         0.5000 
    108 O         -4.0403  -20.7771  -51.5488 O.2       19 UNK        -0.5000 
    109 N         -4.7809  -18.8539  -52.4998 N.am      20 UNK        -0.5000 
    110 CA        -3.5388  -18.4688  -53.1623 C.3       20 UNK         0.1400 
    111 CB        -3.5943  -16.9740  -53.5191 C.3       20 UNK        -0.1800 
    112 C         -3.2763  -19.3522  -54.3946 C.2       20 UNK         0.5000 
    113 O         -3.7142  -19.0186  -55.4976 O.2       20 UNK        -0.5000 
    114 N         -2.5697  -20.4705  -54.1811 N.am      21 UNK        -0.5000 
    115 CA        -2.2058  -21.4684  -55.1957 C.3       21 UNK         0.1400 
    116 CB        -1.4658  -22.6236  -54.5038 C.3       21 UNK        -0.1800 
    117 C         -1.3665  -20.9122  -56.3668 C.2       21 UNK         0.5000 
    118 O         -1.3791  -21.4880  -57.4552 O.2       21 UNK        -0.5000 
    119 N         -0.6783  -19.7918  -56.1240 N.am      22 UNK        -0.5000 
    120 CA         0.0006  -18.9545  -57.1225 C.3       22 UNK         0.1400 
    121 C         -0.9473  -18.1711  -58.0821 C.2       22 UNK         0.5000 
    122 N         -2.2500  -18.0906  -57.8341 N.am      22 UNK        -0.7600 
    123 O         -0.4886  -17.6343  -59.0870 O.2       22 UNK        -0.5000 
    124 C124        1.0378  -18.0139  -56.4512 C.3       23 UNK        -0.0398 
    125 S125        0.3635  -17.0782  -55.0280 S.3       23 UNK        -0.2404 
    126 C126        1.2497  -17.8804  -53.6566 C.3       23 UNK        -0.0205 
    127 H127        3.4723   -7.5708  -49.7369 H         1 UNK         0.0600 
    128 H128        3.1220   -8.4664  -51.2188 H         1 UNK         0.0600 
    129 H129        4.5744   -8.8383  -50.2847 H         1 UNK         0.0600 
    130 H130        1.5145   -9.9782  -50.9264 H         1 UNK         0.3000 
    131 H131        1.5952  -12.0104  -49.0040 H         1 UNK         0.0600 
    132 H132       -0.8623  -11.2054  -50.6372 H         1 UNK         0.0800 
    133 H133        0.4897  -12.0546  -51.3246 H         1 UNK         0.0800 
    134 H134        1.0410  -14.7003  -48.8408 H         1 UNK         0.0800 
    135 H135        1.5326  -14.0924  -50.4014 H         1 UNK         0.0800 
    136 H136        1.5293  -15.5472  -52.2817 H         1 UNK         0.1150 
    137 H137       -0.3352  -19.3952  -52.0407 H         1 UNK         0.1150 
    138 H138       -0.7738  -16.5974  -48.8212 H         1 UNK         0.1150 
    139 H139       -1.7126  -18.7514  -48.5761 H         1 UNK         0.0800 
    140 H140       -2.4787  -19.1936  -50.0817 H         1 UNK         0.0800 
    141 H141       -2.7693  -22.0009  -49.3086 H         1 UNK         0.0800 
    142 H142       -2.5293  -21.0177  -47.8798 H         1 UNK         0.0800 
    143 H143       -0.7503  -23.4076  -48.5218 H         1 UNK         0.0600 
    144 H144       -0.6427  -21.4969  -46.4180 H         1 UNK         0.3000 
    145 H145        1.2834  -23.5498  -44.1621 H         1 UNK         0.0600 
    146 H146        2.6201  -21.4422  -44.2463 H         1 UNK         0.0600 
    147 H147        2.8696  -22.4247  -45.6828 H         1 UNK         0.0600 
    148 H148        1.8452  -21.0004  -45.7659 H         1 UNK         0.0600 
    149 H149        0.1803  -20.9533  -43.8159 H         1 UNK         0.3000 
    150 H150       -3.0031  -21.9743  -42.5214 H         1 UNK         0.0600 
    151 H151       -1.4538  -22.0808  -40.5881 H         1 UNK         0.0600 
    152 H152       -2.2378  -20.5107  -40.6637 H         1 UNK         0.0600 
    153 H153       -0.5626  -20.6891  -41.1838 H         1 UNK         0.0600 
    154 H154       -1.7547  -19.4254  -42.9921 H         1 UNK         0.3000 
    155 H155       -3.0551  -18.9510  -46.2878 H         1 UNK         0.0600 
    156 H156       -3.9891  -16.9429  -45.1959 H         1 UNK         0.0600 
    157 H157       -4.8998  -18.3550  -44.6878 H         1 UNK         0.0600 
    158 H158       -3.7231  -17.6379  -43.5969 H         1 UNK         0.0600 
    159 H159       -1.4969  -17.2695  -44.5931 H         1 UNK         0.3000 
    160 H160        1.7251  -18.5408  -45.4009 H         1 UNK         0.0600 
    161 H161        2.0936  -16.2104  -46.1308 H         1 UNK         0.0600 
    162 H162        0.3570  -15.9541  -46.3058 H         1 UNK         0.0600 
    163 H163        1.1977  -17.1010  -47.3467 H         1 UNK         0.0600 
    164 H164        0.9204  -16.2906  -43.8564 H         1 UNK         0.3000 
    165 H165       -0.2228  -17.5009  -41.1518 H         1 UNK         0.0600 
    166 H166        1.6112  -17.6123  -39.4474 H         1 UNK         0.0600 
    167 H167        1.3847  -19.1345  -40.2905 H         1 UNK         0.0600 
    168 H168        2.7437  -18.1035  -40.7071 H         1 UNK         0.0600 
    169 H169        0.2527  -15.3696  -41.2650 H         1 UNK         0.3000 
    170 H170        1.1109  -13.4478  -41.6559 H         1 UNK         0.0600 
    171 H171        2.4670  -13.6569  -39.5606 H         1 UNK         0.0600 
    172 H172        3.9496  -13.4932  -40.4947 H         1 UNK         0.0600 
    173 H173        2.8083  -12.1512  -40.3995 H         1 UNK         0.0600 
    174 H174        3.5046  -12.5188  -42.7697 H         1 UNK         0.3000 
    175 H175        4.1568  -12.6649  -45.0103 H         1 UNK         0.0600 
    176 H176        1.8896  -13.3632  -46.9446 H         1 UNK         0.0600 
    177 H177        3.4627  -12.7216  -47.4180 H         1 UNK         0.0600 
    178 H178        3.3524  -14.2944  -46.6488 H         1 UNK         0.0600 
    179 H179        1.9902  -11.0206  -46.0664 H         1 UNK         0.3000 
    180 H180        2.1340   -8.4558  -43.8710 H         1 UNK         0.0600 
    181 H181        4.1531   -8.2315  -46.1656 H         1 UNK         0.0600 
    182 H182        4.4555   -7.8416  -44.4770 H         1 UNK         0.0600 
    183 H183        3.3164   -6.8792  -45.4044 H         1 UNK         0.0600 
    184 H184        1.8469   -8.9308  -46.8028 H         1 UNK         0.3000 
    185 H185       -1.6400   -9.3189  -46.5778 H         1 UNK         0.0600 
    186 H186       -1.6183   -6.8242  -46.4309 H         1 UNK         0.0600 
    187 H187       -0.2889   -6.7548  -47.5815 H         1 UNK         0.0600 
    188 H188       -1.8686   -7.3588  -48.0847 H         1 UNK         0.0600 
    189 H189        0.0888   -8.8564  -48.8139 H         1 UNK         0.3000 
    190 H190       -2.8932  -22.9574  -45.6773 H         1 UNK         0.3000 
    191 H191       -4.7921  -24.9615  -46.3926 H         1 UNK         0.0600 
    192 H192       -3.9481  -24.0127  -43.6082 H         1 UNK         0.0600 
    193 H193       -5.4084  -24.9056  -44.0034 H         1 UNK         0.0600 
    194 H194       -5.1902  -23.2723  -44.6107 H         1 UNK         0.0600 
    195 H195       -1.7664  -25.1620  -44.4474 H         1 UNK         0.3000 
    196 H196       -1.8528  -27.9468  -43.9380 H         1 UNK         0.0600 
    197 H197        0.5603  -27.6518  -43.3803 H         1 UNK         0.0600 
    198 H198       -0.4129  -26.3645  -42.6844 H         1 UNK         0.0600 
    199 H199        0.5534  -26.0584  -44.1253 H         1 UNK         0.0600 
    200 H200       -0.5724  -26.1432  -46.7197 H         1 UNK         0.3000 
    201 H201        0.5276  -28.4189  -48.1092 H         1 UNK         0.0600 
    202 H202        1.2987  -26.0593  -48.4525 H         1 UNK         0.0600 
    203 H203       -0.2708  -25.6496  -49.1450 H         1 UNK         0.0600 
    204 H204        0.7818  -26.7969  -49.9592 H         1 UNK         0.0600 
    205 H205       -2.6615  -27.7639  -47.4409 H         1 UNK         0.3000 
    206 H206       -4.5975  -28.5528  -48.0594 H         1 UNK         0.0600 
    207 H207       -3.4136  -30.7443  -48.3540 H         1 UNK         0.0600 
    208 H208       -4.8212  -30.5849  -49.3899 H         1 UNK         0.0600 
    209 H209       -3.2142  -30.3941  -50.0712 H         1 UNK         0.0600 
    210 H210       -3.4675  -26.1737  -49.3938 H         1 UNK         0.3000 
    211 H211       -5.0418  -26.0496  -51.9091 H         1 UNK         0.0600 
    212 H212       -3.2897  -23.9321  -50.5627 H         1 UNK         0.0600 
    213 H213       -4.0071  -23.8396  -52.1590 H         1 UNK         0.0600 
    214 H214       -2.7509  -25.0244  -51.8354 H         1 UNK         0.0600 
    215 H215       -5.8000  -26.0177  -48.7387 H         1 UNK         0.3000 
    216 H216       -7.4554  -25.3060  -47.4356 H         1 UNK         0.0600 
    217 H217       -9.6677  -24.9787  -48.4710 H         1 UNK         0.0600 
    218 H218       -8.8229  -26.2769  -49.2970 H         1 UNK         0.0600 
    219 H219       -8.9391  -24.6842  -50.0438 H         1 UNK         0.0600 
    220 H220       -5.4342  -23.4454  -47.9148 H         1 UNK         0.3000 
    221 H221       -4.7565  -21.4464  -47.3240 H         1 UNK         0.0600 
    222 H222       -7.6061  -20.6796  -46.5199 H         1 UNK         0.0600 
    223 H223       -6.4548  -21.5137  -45.4771 H         1 UNK         0.0600 
    224 H224       -6.1201  -19.8863  -46.0338 H         1 UNK         0.0600 
    225 H225       -6.4571  -21.9646  -50.0456 H         1 UNK         0.3000 
    226 H226       -6.8202  -19.2374  -50.9976 H         1 UNK         0.0600 
    227 H227       -7.3869  -20.3378  -53.1170 H         1 UNK         0.0600 
    228 H228       -6.7438  -21.8740  -52.5617 H         1 UNK         0.0600 
    229 H229       -8.1946  -21.2016  -51.8169 H         1 UNK         0.0600 
    230 H230       -5.5765  -18.2539  -52.6625 H         1 UNK         0.3000 
    231 H231       -2.7159  -18.6062  -52.4619 H         1 UNK         0.0600 
    232 H232       -3.6921  -16.3601  -52.6235 H         1 UNK         0.0600 
    233 H233       -4.4315  -16.7431  -54.1787 H         1 UNK         0.0600 
    234 H234       -2.6799  -16.6619  -54.0257 H         1 UNK         0.0600 
    235 H235       -2.3392  -20.7049  -53.2244 H         1 UNK         0.3000 
    236 H236       -3.1336  -21.8584  -55.6189 H         1 UNK         0.0600 
    237 H237       -2.0841  -23.0829  -53.7324 H         1 UNK         0.0600 
    238 H238       -1.2051  -23.4059  -55.2178 H         1 UNK         0.0600 
    239 H239       -0.5410  -22.2844  -54.0351 H         1 UNK         0.0600 
    240 H240       -0.7468  -19.3867  -55.2028 H         1 UNK         0.3000 
    241 H241        0.5604  -19.6313  -57.7708 H         1 UNK         0.0600 
    242 H242       -2.8399  -17.5839  -58.4744 H         1 UNK         0.3800 
    243 H243       -2.6627  -18.5080  -57.0047 H         1 UNK         0.3800 
    244 H244        1.4512  -17.3050  -57.1709 H         1 UNK         0.0800 
    245 H245        1.8912  -18.6062  -56.1184 H         1 UNK         0.0800 
    246 H246        1.2266  -18.9634  -53.7890 H         1 UNK         0.0800 
    247 H247        2.3009  -17.5899  -53.6881 H         1 UNK         0.0800 
@<TRIPOS>BOND
     1    1    2 1    
     2    1  127 1    
     3    1  128 1    
     4    1  129 1    
     5    2    3 2    
     6    2    4 am   BACKBONE|DICT|INTERRES
     7    4    5 1    
     8    4  130 1    
     9    5    6 1    
    10    5   65 1    
    11    5  131 1    
    12    6    7 1    
    13    6  132 1    
    14    6  133 1    
    15    7    8 1    
    16    8    9 1    
    17    8  134 1    
    18    8  135 1    
    19    9   10 ar   
    20    9   14 ar   
    21   10   11 ar   
    22   10  136 1    
    23   11   12 ar   
    24   11  126 1    
    25   12   13 ar   
    26   12  137 1    
    27   13   14 ar   
    28   13   15 1    
    29   14  138 1    
    30   15   16 1    
    31   15  139 1    
    32   15  140 1    
    33   16   17 1    
    34   17   18 1    
    35   17  141 1    
    36   17  142 1    
    37   18   19 1    
    38   18   67 1    
    39   18  143 1    
    40   19   20 am   BACKBONE|DICT|INTERRES
    41   19  144 1    
    42   20   21 2    
    43   20   22 1    
    44   22   23 1    
    45   22   24 1    
    46   22  145 1    
    47   23  146 1    
    48   23  147 1    
    49   23  148 1    
    50   24   25 am   BACKBONE|DICT|INTERRES
    51   24  149 1    
    52   25   26 2    
    53   25   27 1    
    54   27   28 1    
    55   27   29 1    
    56   27  150 1    
    57   28  151 1    
    58   28  152 1    
    59   28  153 1    
    60   29   30 am   BACKBONE|DICT|INTERRES
    61   29  154 1    
    62   30   31 2    
    63   30   32 1    
    64   32   33 1    
    65   32   34 1    
    66   32  155 1    
    67   33  156 1    
    68   33  157 1    
    69   33  158 1    
    70   34   35 am   BACKBONE|DICT|INTERRES
    71   34  159 1    
    72   35   36 2    
    73   35   37 1    
    74   37   38 1    
    75   37   39 1    
    76   37  160 1    
    77   38  161 1    
    78   38  162 1    
    79   38  163 1    
    80   39   40 am   BACKBONE|DICT|INTERRES
    81   39  164 1    
    82   40   41 2    
    83   40   42 1    
    84   42   43 1    
    85   42   44 1    
    86   42  165 1    
    87   43  166 1    
    88   43  167 1    
    89   43  168 1    
    90   44   45 am   BACKBONE|DICT|INTERRES
    91   44  169 1    
    92   45   46 2    
    93   45   47 1    
    94   47   48 1    
    95   47   49 1    
    96   47  170 1    
    97   48  171 1    
    98   48  172 1    
    99   48  173 1    
   100   49   50 am   BACKBONE|DICT|INTERRES
   101   49  174 1    
   102   50   51 2    
   103   50   52 1    
   104   52   53 1    
   105   52   54 1    
   106   52  175 1    
   107   53  176 1    
   108   53  177 1    
   109   53  178 1    
   110   54   55 am   BACKBONE|DICT|INTERRES
   111   54  179 1    
   112   55   56 2    
   113   55   57 1    
   114   57   58 1    
   115   57   59 1    
   116   57  180 1    
   117   58  181 1    
   118   58  182 1    
   119   58  183 1    
   120   59   60 am   BACKBONE|DICT|INTERRES
   121   59  184 1    
   122   60   61 2    
   123   60   62 1    
   124   62   63 1    
   125   62   64 1    
   126   62  185 1    
   127   63  186 1    
   128   63  187 1    
   129   63  188 1    
   130   64   65 am   BACKBONE|DICT|INTERRES
   131   64  189 1    
   132   65   66 2    
   133   67   68 2    
   134   67   69 am   BACKBONE|DICT|INTERRES
   135   69   70 1    
   136   69  190 1    
   137   70   71 1    
   138   70   72 1    
   139   70  191 1    
   140   71  192 1    
   141   71  193 1    
   142   71  194 1    
   143   72   73 2    
   144   72   74 am   BACKBONE|DICT|INTERRES
   145   74   75 1    
   146   74  195 1    
   147   75   76 1    
   148   75   77 1    
   149   75  196 1    
   150   76  197 1    
   151   76  198 1    
   152   76  199 1    
   153   77   78 2    
   154   77   79 am   BACKBONE|DICT|INTERRES
   155   79   80 1    
   156   79  200 1    
   157   80   81 1    
   158   80   82 1    
   159   80  201 1    
   160   81  202 1    
   161   81  203 1    
   162   81  204 1    
   163   82   83 2    
   164   82   84 am   BACKBONE|DICT|INTERRES
   165   84   85 1    
   166   84  205 1    
   167   85   86 1    
   168   85   87 1    
   169   85  206 1    
   170   86  207 1    
   171   86  208 1    
   172   86  209 1    
   173   87   88 2    
   174   87   89 am   BACKBONE|DICT|INTERRES
   175   89   90 1    
   176   89  210 1    
   177   90   91 1    
   178   90   92 1    
   179   90  211 1    
   180   91  212 1    
   181   91  213 1    
   182   91  214 1    
   183   92   93 2    
   184   92   94 am   BACKBONE|DICT|INTERRES
   185   94   95 1    
   186   94  215 1    
   187   95   96 1    
   188   95   97 1    
   189   95  216 1    
   190   96  217 1    
   191   96  218 1    
   192   96  219 1    
   193   97   98 2    
   194   97   99 am   BACKBONE|DICT|INTERRES
   195   99  100 1    
   196   99  220 1    
   197  100  101 1    
   198  100  102 1    
   199  100  221 1    
   200  101  222 1    
   201  101  223 1    
   202  101  224 1    
   203  102  103 2    
   204  102  104 am   BACKBONE|DICT|INTERRES
   205  104  105 1    
   206  104  225 1    
   207  105  106 1    
   208  105  107 1    
   209  105  226 1    
   210  106  227 1    
   211  106  228 1    
   212  106  229 1    
   213  107  108 2    
   214  107  109 am   BACKBONE|DICT|INTERRES
   215  109  110 1    
   216  109  230 1    
   217  110  111 1    
   218  110  112 1    
   219  110  231 1    
   220  111  232 1    
   221  111  233 1    
   222  111  234 1    
   223  112  113 2    
   224  112  114 am   BACKBONE|DICT|INTERRES
   225  114  115 1    
   226  114  235 1    
   227  115  116 1    
   228  115  117 1    
   229  115  236 1    
   230  116  237 1    
   231  116  238 1    
   232  116  239 1    
   233  117  118 2    
   234  117  119 am   BACKBONE|DICT|INTERRES
   235  119  120 1    
   236  119  240 1    
   237  120  121 1    
   238  120  124 1    
   239  120  241 1    
   240  121  122 am   BACKBONE|DICT|INTERRES
   241  121  123 2    
   242  122  242 1    
   243  122  243 1    
   244  124  125 1    
   245  124  244 1    
   246  124  245 1    
   247  125  126 1    
   248  126  246 1    
   249  126  247 1    
@<TRIPOS>SUBSTRUCTURE
     1 UNK         1 GROUP             0       ****    0 ROOT    
