@<TRIPOS>MOLECULE
3R540
247   249    1
SMALL
USER_CHARGES


@<TRIPOS>ATOM
      1 CA          4.2135  -10.0814  -50.1365 C.3       0 UNK        -0.1800 
      2 C           3.3128  -11.1693  -49.5682 C.2       0 UNK         0.5000 
      3 O           3.1222  -11.2335  -48.3534 O.2       0 UNK        -0.5000 
      4 N           2.7670  -12.0271  -50.4393 N.am      1 UNK        -0.5000 
      5 CA          1.8201  -13.0883  -50.0848 C.3       1 UNK         0.1400 
      6 C6          1.7023  -14.1377  -51.2181 C.3       23 UNK        -0.0398 
      7 S7          1.1509  -15.7728  -50.6168 S.3       23 UNK        -0.2404 
      8 C8          2.3467  -16.8650  -51.4495 C.3       23 UNK        -0.0205 
      9 C9          1.9203  -18.3238  -51.3881 C.ar      23 UNK        -0.0193 
     10 C10         0.8471  -18.7630  -52.1672 C.ar      23 UNK        -0.1150 
     11 C11         0.4577  -20.1041  -52.1543 C.ar      23 UNK        -0.0193 
     12 C12         1.1526  -21.0119  -51.3500 C.ar      23 UNK        -0.1150 
     13 C13         2.2287  -20.5873  -50.5620 C.ar      23 UNK        -0.0193 
     14 C14         2.6074  -19.2404  -50.5854 C.ar      23 UNK        -0.1150 
     15 C15         2.9946  -21.5892  -49.7040 C.3       23 UNK        -0.0205 
     16 S16         2.7261  -21.3431  -47.9168 S.3       23 UNK        -0.2404 
     17 C17         0.9327  -21.6233  -47.7670 C.3       23 UNK        -0.0398 
     18 CA          0.5515  -22.8100  -46.8524 C.3       11 UNK         0.1400 
     19 N           1.0377  -22.6506  -45.4804 N.am      11 UNK        -0.5000 
     20 C           0.8896  -23.5378  -44.4881 C.2       10 UNK         0.5000 
     21 O           0.3771  -24.6467  -44.6527 O.2       10 UNK        -0.5000 
     22 CA          1.2914  -23.0824  -43.0686 C.3       10 UNK         0.1400 
     23 CB          1.9859  -24.1995  -42.2642 C.3       10 UNK        -0.1800 
     24 N           2.0546  -21.8275  -43.0368 N.am      10 UNK        -0.5000 
     25 C           3.3080  -21.6078  -43.4622 C.2       9 UNK         0.5000 
     26 O           4.0456  -22.4881  -43.9054 O.2       9 UNK        -0.5000 
     27 CA          3.8224  -20.1534  -43.4212 C.3       9 UNK         0.1400 
     28 CB          3.9828  -19.6066  -44.8485 C.3       9 UNK        -0.1800 
     29 N           2.9572  -19.2402  -42.6709 N.am      9 UNK        -0.5000 
     30 C           2.8908  -19.1613  -41.3356 C.2       8 UNK         0.5000 
     31 O           3.5806  -19.8413  -40.5753 O.2       8 UNK        -0.5000 
     32 CA          1.8562  -18.1777  -40.7535 C.3       8 UNK         0.1400 
     33 CB          2.4226  -16.7503  -40.7115 C.3       8 UNK        -0.1800 
     34 N           0.5861  -18.1770  -41.4849 N.am      8 UNK        -0.5000 
     35 C          -0.2475  -19.2244  -41.5619 C.2       7 UNK         0.5000 
     36 O          -0.0373  -20.3086  -41.0179 O.2       7 UNK        -0.5000 
     37 CA         -1.5045  -19.0516  -42.4311 C.3       7 UNK         0.1400 
     38 CB         -2.5893  -18.2528  -41.6942 C.3       7 UNK        -0.1800 
     39 N          -1.2042  -18.4212  -43.7161 N.am      7 UNK        -0.5000 
     40 C          -0.4836  -19.0005  -44.6852 C.2       6 UNK         0.5000 
     41 O          -0.0935  -20.1654  -44.6334 O.2       6 UNK        -0.5000 
     42 CA         -0.1152  -18.1436  -45.9083 C.3       6 UNK         0.1400 
     43 CB         -1.2256  -18.2046  -46.9659 C.3       6 UNK        -0.1800 
     44 N           0.1601  -16.7513  -45.5657 N.am      6 UNK        -0.5000 
     45 C           1.1646  -16.3379  -44.7816 C.2       5 UNK         0.5000 
     46 O           2.0026  -17.0907  -44.2890 O.2       5 UNK        -0.5000 
     47 CA          1.1975  -14.8394  -44.4399 C.3       5 UNK         0.1400 
     48 CB          1.8282  -14.0242  -45.5795 C.3       5 UNK        -0.1800 
     49 N          -0.1401  -14.3274  -44.1399 N.am      5 UNK        -0.5000 
     50 C          -0.8484  -14.6641  -43.0524 C.2       4 UNK         0.5000 
     51 O          -0.4265  -15.4080  -42.1664 O.2       4 UNK        -0.5000 
     52 CA         -2.2819  -14.1080  -42.9638 C.3       4 UNK         0.1400 
     53 CB         -2.2743  -12.6751  -42.4111 C.3       4 UNK        -0.1800 
     54 N          -2.9709  -14.1272  -44.2560 N.am      4 UNK        -0.5000 
     55 C          -3.3542  -15.2446  -44.8904 C.2       3 UNK         0.5000 
     56 O          -3.2044  -16.3750  -44.4293 O.2       3 UNK        -0.5000 
     57 CA         -3.9557  -15.0741  -46.2998 C.3       3 UNK         0.1400 
     58 CB         -5.4726  -14.8484  -46.2230 C.3       3 UNK        -0.1800 
     59 N          -3.3332  -13.9949  -47.0757 N.am      3 UNK        -0.5000 
     60 C          -2.0393  -13.9763  -47.4196 C.2       2 UNK         0.5000 
     61 O          -1.2381  -14.8545  -47.0902 O.2       2 UNK        -0.5000 
     62 CA         -1.5381  -12.7662  -48.2181 C.3       2 UNK         0.1400 
     63 CB         -1.4307  -11.5228  -47.3147 C.3       2 UNK        -0.1800 
     64 N          -0.2262  -13.1151  -48.7490 N.am      2 UNK        -0.5000 
     65 C           0.4436  -12.4898  -49.7179 C.2       1 UNK         0.5000 
     66 O           0.0161  -11.5025  -50.3225 O.2       1 UNK        -0.5000 
     67 C          -0.9774  -22.9870  -46.8845 C.2       11 UNK         0.5000 
     68 O          -1.4710  -23.7982  -47.6621 O.2       11 UNK        -0.5000 
     69 N          -1.6911  -22.2397  -46.0278 N.am      12 UNK        -0.5000 
     70 CA         -3.1512  -22.2806  -45.9026 C.3       12 UNK         0.1400 
     71 CB         -3.6341  -21.0114  -45.1852 C.3       12 UNK        -0.1800 
     72 C          -3.6794  -23.5488  -45.1988 C.2       12 UNK         0.5000 
     73 O          -4.8850  -23.7966  -45.2370 O.2       12 UNK        -0.5000 
     74 N          -2.7865  -24.3237  -44.5670 N.am      13 UNK        -0.5000 
     75 CA         -3.0843  -25.6553  -44.0424 C.3       13 UNK         0.1400 
     76 CB         -2.2726  -25.8986  -42.7599 C.3       13 UNK        -0.1800 
     77 C          -2.7818  -26.7322  -45.0995 C.2       13 UNK         0.5000 
     78 O          -3.5516  -27.6841  -45.2329 O.2       13 UNK        -0.5000 
     79 N          -1.6705  -26.5637  -45.8310 N.am      14 UNK        -0.5000 
     80 CA         -1.2090  -27.4794  -46.8749 C.3       14 UNK         0.1400 
     81 CB          0.2524  -27.1466  -47.2135 C.3       14 UNK        -0.1800 
     82 C          -2.0727  -27.4561  -48.1516 C.2       14 UNK         0.5000 
     83 O          -2.2515  -28.5013  -48.7789 O.2       14 UNK        -0.5000 
     84 N          -2.5762  -26.2749  -48.5214 N.am      15 UNK        -0.5000 
     85 CA         -3.3540  -26.0118  -49.7283 C.3       15 UNK         0.1400 
     86 CB         -2.3875  -25.6532  -50.8738 C.3       15 UNK        -0.1800 
     87 C          -4.3544  -24.8750  -49.4617 C.2       15 UNK         0.5000 
     88 O          -4.3828  -24.3140  -48.3667 O.2       15 UNK        -0.5000 
     89 N          -5.1455  -24.5124  -50.4781 N.am      16 UNK        -0.5000 
     90 CA         -6.1393  -23.4328  -50.4349 C.3       16 UNK         0.1400 
     91 CB         -7.2023  -23.7016  -51.5156 C.3       16 UNK        -0.1800 
     92 C          -5.5234  -22.0196  -50.5705 C.2       16 UNK         0.5000 
     93 O          -6.1469  -21.1360  -51.1591 O.2       16 UNK        -0.5000 
     94 N          -4.3158  -21.8104  -50.0291 N.am      17 UNK        -0.5000 
     95 CA         -3.4953  -20.5998  -50.1726 C.3       17 UNK         0.1400 
     96 CB         -2.1046  -20.8841  -49.5960 C.3       17 UNK        -0.1800 
     97 C          -4.0839  -19.3191  -49.5454 C.2       17 UNK         0.5000 
     98 O          -3.5689  -18.2305  -49.7957 O.2       17 UNK        -0.5000 
     99 N          -5.1563  -19.4556  -48.7551 N.am      18 UNK        -0.5000 
    100 CA        -5.9693  -18.3360  -48.2818 C.3       18 UNK         0.1400 
    101 CB        -6.8564  -18.8173  -47.1242 C.3       18 UNK        -0.1800 
    102 C         -6.8232  -17.7013  -49.4021 C.2       18 UNK         0.5000 
    103 O         -7.2204  -16.5440  -49.2641 O.2       18 UNK        -0.5000 
    104 N         -7.0904  -18.4579  -50.4771 N.am      19 UNK        -0.5000 
    105 CA        -7.8527  -18.0254  -51.6477 C.3       19 UNK         0.1400 
    106 CB        -9.0913  -18.9234  -51.7991 C.3       19 UNK        -0.1800 
    107 C         -6.9958  -18.0683  -52.9246 C.2       19 UNK         0.5000 
    108 O         -7.0517  -17.1292  -53.7198 O.2       19 UNK        -0.5000 
    109 N         -6.2267  -19.1500  -53.1098 N.am      20 UNK        -0.5000 
    110 CA        -5.3327  -19.3564  -54.2480 C.3       20 UNK         0.1400 
    111 CB        -4.9165  -20.8356  -54.2996 C.3       20 UNK        -0.1800 
    112 C         -4.0900  -18.4553  -54.1575 C.2       20 UNK         0.5000 
    113 O         -3.5105  -18.3251  -53.0790 O.2       20 UNK        -0.5000 
    114 N         -3.6890  -17.8744  -55.2940 N.am      21 UNK        -0.5000 
    115 CA        -2.5196  -16.9980  -55.3951 C.3       21 UNK         0.1400 
    116 CB        -2.7638  -15.9763  -56.5171 C.3       21 UNK        -0.1800 
    117 C         -1.2088  -17.7658  -55.6512 C.2       21 UNK         0.5000 
    118 O         -0.1400  -17.2359  -55.3482 O.2       21 UNK        -0.5000 
    119 N         -1.3084  -18.9768  -56.2221 N.am      22 UNK        -0.5000 
    120 CA        -0.1828  -19.8327  -56.6533 C.3       22 UNK         0.1400 
    121 C          0.6885  -19.2320  -57.8039 C.2       22 UNK         0.5000 
    122 N          0.2018  -18.2572  -58.5627 N.am      22 UNK        -0.7600 
    123 O          1.8085  -19.6753  -58.0442 O.2       22 UNK        -0.5000 
    124 C124        0.6705  -20.3663  -55.4657 C.3       23 UNK        -0.0398 
    125 S125       -0.2398  -21.5622  -54.4295 S.3       23 UNK        -0.2404 
    126 C126       -0.7278  -20.5611  -52.9926 C.3       23 UNK        -0.0205 
    127 H127        3.8136   -9.0976  -49.8908 H         1 UNK         0.0600 
    128 H128        4.3004  -10.1517  -51.2211 H         1 UNK         0.0600 
    129 H129        5.2132  -10.1607  -49.7095 H         1 UNK         0.0600 
    130 H130        2.9337  -11.8978  -51.4269 H         1 UNK         0.3000 
    131 H131        2.2242  -13.5862  -49.1998 H         1 UNK         0.0600 
    132 H132        2.6759  -14.2663  -51.6933 H         1 UNK         0.0800 
    133 H133        1.0315  -13.8006  -52.0109 H         1 UNK         0.0800 
    134 H134        3.3320  -16.7294  -51.0009 H         1 UNK         0.0800 
    135 H135        2.4383  -16.5729  -52.4970 H         1 UNK         0.0800 
    136 H136        0.3145  -18.0539  -52.7856 H         1 UNK         0.1150 
    137 H137        0.8530  -22.0506  -51.3417 H         1 UNK         0.1150 
    138 H138        3.4410  -18.9104  -49.9814 H         1 UNK         0.1150 
    139 H139        2.7229  -22.6126  -49.9672 H         1 UNK         0.0800 
    140 H140        4.0607  -21.4947  -49.9144 H         1 UNK         0.0800 
    141 H141        0.5181  -21.7853  -48.7614 H         1 UNK         0.0800 
    142 H142        0.4861  -20.6977  -47.4057 H         1 UNK         0.0800 
    143 H143        1.0005  -23.7186  -47.2584 H         1 UNK         0.0600 
    144 H144        1.3851  -21.7333  -45.2364 H         1 UNK         0.3000 
    145 H145        0.3523  -22.8579  -42.5607 H         1 UNK         0.0600 
    146 H146        2.2568  -23.8564  -41.2657 H         1 UNK         0.0600 
    147 H147        1.3260  -25.0593  -42.1429 H         1 UNK         0.0600 
    148 H148        2.8910  -24.5549  -42.7566 H         1 UNK         0.0600 
    149 H149        1.5361  -21.0253  -42.7028 H         1 UNK         0.3000 
    150 H150        4.8067  -20.1687  -42.9489 H         1 UNK         0.0600 
    151 H151        4.6399  -20.2412  -45.4445 H         1 UNK         0.0600 
    152 H152        4.4169  -18.6067  -44.8413 H         1 UNK         0.0600 
    153 H153        3.0236  -19.5497  -45.3644 H         1 UNK         0.0600 
    154 H154        2.4104  -18.5829  -43.2228 H         1 UNK         0.3000 
    155 H155        1.6473  -18.4882  -39.7277 H         1 UNK         0.0600 
    156 H156        3.3522  -16.7154  -40.1422 H         1 UNK         0.0600 
    157 H157        1.7230  -16.0628  -40.2356 H         1 UNK         0.0600 
    158 H158        2.6350  -16.3708  -41.7111 H         1 UNK         0.0600 
    159 H159        0.3231  -17.3084  -41.9389 H         1 UNK         0.3000 
    160 H160       -1.8995  -20.0496  -42.6239 H         1 UNK         0.0600 
    161 H161       -2.2718  -17.2311  -41.4871 H         1 UNK         0.0600 
    162 H162       -2.8374  -18.7195  -40.7402 H         1 UNK         0.0600 
    163 H163       -3.5067  -18.2045  -42.2810 H         1 UNK         0.0600 
    164 H164       -1.5751  -17.4899  -43.8685 H         1 UNK         0.3000 
    165 H165        0.7953  -18.5611  -46.3421 H         1 UNK         0.0600 
    166 H166       -0.9343  -17.6835  -47.8784 H         1 UNK         0.0600 
    167 H167       -1.4503  -19.2346  -47.2363 H         1 UNK         0.0600 
    168 H168       -2.1507  -17.7563  -46.6053 H         1 UNK         0.0600 
    169 H169       -0.4558  -16.0536  -45.9780 H         1 UNK         0.3000 
    170 H170        1.8177  -14.7121  -43.5501 H         1 UNK         0.0600 
    171 H171        2.8491  -14.3554  -45.7736 H         1 UNK         0.0600 
    172 H172        1.2720  -14.1265  -46.5100 H         1 UNK         0.0600 
    173 H173        1.8729  -12.9638  -45.3309 H         1 UNK         0.0600 
    174 H174       -0.5770  -13.7547  -44.8454 H         1 UNK         0.3000 
    175 H175       -2.8408  -14.7384  -42.2688 H         1 UNK         0.0600 
    176 H176       -1.7788  -12.6345  -41.4401 H         1 UNK         0.0600 
    177 H177       -1.7506  -11.9873  -43.0762 H         1 UNK         0.0600 
    178 H178       -3.2889  -12.3011  -42.2726 H         1 UNK         0.0600 
    179 H179       -3.1337  -13.2376  -44.7037 H         1 UNK         0.3000 
    180 H180       -3.7818  -16.0060  -46.8407 H         1 UNK         0.0600 
    181 H181       -5.7166  -13.9115  -45.7208 H         1 UNK         0.0600 
    182 H182       -5.9593  -15.6543  -45.6718 H         1 UNK         0.0600 
    183 H183       -5.9186  -14.8240  -47.2176 H         1 UNK         0.0600 
    184 H184       -3.9360  -13.2395  -47.3690 H         1 UNK         0.3000 
    185 H185       -2.2269  -12.5780  -49.0439 H         1 UNK         0.0600 
    186 H186       -2.3986  -11.2590  -46.8873 H         1 UNK         0.0600 
    187 H187       -0.7379  -11.6863  -46.4881 H         1 UNK         0.0600 
    188 H188       -1.0812  -10.6546  -47.8733 H         1 UNK         0.0600 
    189 H189        0.1441  -13.9687  -48.3474 H         1 UNK         0.3000 
    190 H190       -1.1934  -21.5965  -45.4189 H         1 UNK         0.3000 
    191 H191       -3.5767  -22.2712  -46.9073 H         1 UNK         0.0600 
    192 H192       -3.2741  -20.9735  -44.1587 H         1 UNK         0.0600 
    193 H193       -4.7235  -20.9755  -45.1488 H         1 UNK         0.0600 
    194 H194       -3.3002  -20.1096  -45.6982 H         1 UNK         0.0600 
    195 H195       -1.8132  -24.0543  -44.5880 H         1 UNK         0.3000 
    196 H196       -4.1425  -25.7265  -43.7821 H         1 UNK         0.0600 
    197 H197       -2.5174  -26.8686  -42.3256 H         1 UNK         0.0600 
    198 H198       -2.4904  -25.1412  -42.0067 H         1 UNK         0.0600 
    199 H199       -1.1987  -25.8873  -42.9449 H         1 UNK         0.0600 
    200 H200       -1.0612  -25.7820  -45.6204 H         1 UNK         0.3000 
    201 H201       -1.2406  -28.4940  -46.4722 H         1 UNK         0.0600 
    202 H202        0.8891  -27.2197  -46.3315 H         1 UNK         0.0600 
    203 H203        0.3507  -26.1370  -47.6142 H         1 UNK         0.0600 
    204 H204        0.6480  -27.8365  -47.9599 H         1 UNK         0.0600 
    205 H205       -2.3843  -25.4480  -47.9591 H         1 UNK         0.3000 
    206 H206       -3.9297  -26.8995  -49.9973 H         1 UNK         0.0600 
    207 H207       -1.6682  -26.4538  -51.0477 H         1 UNK         0.0600 
    208 H208       -2.9179  -25.4918  -51.8125 H         1 UNK         0.0600 
    209 H209       -1.8258  -24.7447  -50.6508 H         1 UNK         0.0600 
    210 H210       -5.0516  -24.9913  -51.3621 H         1 UNK         0.3000 
    211 H211       -6.6413  -23.4622  -49.4656 H         1 UNK         0.0600 
    212 H212       -8.0142  -22.9750  -51.4608 H         1 UNK         0.0600 
    213 H213       -7.6484  -24.6889  -51.3942 H         1 UNK         0.0600 
    214 H214       -6.7778  -23.6448  -52.5187 H         1 UNK         0.0600 
    215 H215       -3.9093  -22.5743  -49.5027 H         1 UNK         0.3000 
    216 H216       -3.3896  -20.4036  -51.2405 H         1 UNK         0.0600 
    217 H217       -1.4212  -20.0557  -49.7885 H         1 UNK         0.0600 
    218 H218       -1.6653  -21.7823  -50.0300 H         1 UNK         0.0600 
    219 H219       -2.1575  -21.0211  -48.5193 H         1 UNK         0.0600 
    220 H220       -5.5123  -20.3845  -48.5873 H         1 UNK         0.3000 
    221 H221       -5.3029  -17.5616  -47.8980 H         1 UNK         0.0600 
    222 H222       -7.5392  -19.6067  -47.4409 H         1 UNK         0.0600 
    223 H223       -6.2547  -19.2014  -46.3004 H         1 UNK         0.0600 
    224 H224       -7.4600  -17.9989  -46.7294 H         1 UNK         0.0600 
    225 H225       -6.7031  -19.3947  -50.5232 H         1 UNK         0.3000 
    226 H226       -8.1966  -16.9965  -51.5231 H         1 UNK         0.0600 
    227 H227       -9.7425  -18.8427  -50.9287 H         1 UNK         0.0600 
    228 H228       -9.6782  -18.6367  -52.6726 H         1 UNK         0.0600 
    229 H229       -8.8177  -19.9731  -51.9152 H         1 UNK         0.0600 
    230 H230       -6.2230  -19.8827  -52.4038 H         1 UNK         0.3000 
    231 H231       -5.8823  -19.1207  -55.1617 H         1 UNK         0.0600 
    232 H232       -5.7866  -21.4892  -54.3638 H         1 UNK         0.0600 
    233 H233       -4.3458  -21.1255  -53.4168 H         1 UNK         0.0600 
    234 H234       -4.2923  -21.0362  -55.1712 H         1 UNK         0.0600 
    235 H235       -4.2235  -18.0171  -56.1390 H         1 UNK         0.3000 
    236 H236       -2.3982  -16.4452  -54.4606 H         1 UNK         0.0600 
    237 H237       -1.9204  -15.2909  -56.6127 H         1 UNK         0.0600 
    238 H238       -2.9039  -16.4618  -57.4836 H         1 UNK         0.0600 
    239 H239       -3.6485  -15.3727  -56.3135 H         1 UNK         0.0600 
    240 H240       -2.2298  -19.3292  -56.4332 H         1 UNK         0.3000 
    241 H241       -0.6494  -20.7005  -57.1207 H         1 UNK         0.0600 
    242 H242        0.7656  -17.8841  -59.3106 H         1 UNK         0.3800 
    243 H243       -0.7208  -17.8888  -58.3994 H         1 UNK         0.3800 
    244 H244        1.5472  -20.9035  -55.8299 H         1 UNK         0.0800 
    245 H245        1.0618  -19.5477  -54.8631 H         1 UNK         0.0800 
    246 H246       -1.3101  -19.7061  -53.3331 H         1 UNK         0.0800 
    247 H247       -1.3968  -21.1590  -52.3754 H         1 UNK         0.0800 
@<TRIPOS>BOND
     1    1    2 1    
     2    1  127 1    
     3    1  128 1    
     4    1  129 1    
     5    2    3 2    
     6    2    4 am   BACKBONE|DICT|INTERRES
     7    4    5 1    
     8    4  130 1    
     9    5    6 1    
    10    5   65 1    
    11    5  131 1    
    12    6    7 1    
    13    6  132 1    
    14    6  133 1    
    15    7    8 1    
    16    8    9 1    
    17    8  134 1    
    18    8  135 1    
    19    9   10 ar   
    20    9   14 ar   
    21   10   11 ar   
    22   10  136 1    
    23   11   12 ar   
    24   11  126 1    
    25   12   13 ar   
    26   12  137 1    
    27   13   14 ar   
    28   13   15 1    
    29   14  138 1    
    30   15   16 1    
    31   15  139 1    
    32   15  140 1    
    33   16   17 1    
    34   17   18 1    
    35   17  141 1    
    36   17  142 1    
    37   18   19 1    
    38   18   67 1    
    39   18  143 1    
    40   19   20 am   BACKBONE|DICT|INTERRES
    41   19  144 1    
    42   20   21 2    
    43   20   22 1    
    44   22   23 1    
    45   22   24 1    
    46   22  145 1    
    47   23  146 1    
    48   23  147 1    
    49   23  148 1    
    50   24   25 am   BACKBONE|DICT|INTERRES
    51   24  149 1    
    52   25   26 2    
    53   25   27 1    
    54   27   28 1    
    55   27   29 1    
    56   27  150 1    
    57   28  151 1    
    58   28  152 1    
    59   28  153 1    
    60   29   30 am   BACKBONE|DICT|INTERRES
    61   29  154 1    
    62   30   31 2    
    63   30   32 1    
    64   32   33 1    
    65   32   34 1    
    66   32  155 1    
    67   33  156 1    
    68   33  157 1    
    69   33  158 1    
    70   34   35 am   BACKBONE|DICT|INTERRES
    71   34  159 1    
    72   35   36 2    
    73   35   37 1    
    74   37   38 1    
    75   37   39 1    
    76   37  160 1    
    77   38  161 1    
    78   38  162 1    
    79   38  163 1    
    80   39   40 am   BACKBONE|DICT|INTERRES
    81   39  164 1    
    82   40   41 2    
    83   40   42 1    
    84   42   43 1    
    85   42   44 1    
    86   42  165 1    
    87   43  166 1    
    88   43  167 1    
    89   43  168 1    
    90   44   45 am   BACKBONE|DICT|INTERRES
    91   44  169 1    
    92   45   46 2    
    93   45   47 1    
    94   47   48 1    
    95   47   49 1    
    96   47  170 1    
    97   48  171 1    
    98   48  172 1    
    99   48  173 1    
   100   49   50 am   BACKBONE|DICT|INTERRES
   101   49  174 1    
   102   50   51 2    
   103   50   52 1    
   104   52   53 1    
   105   52   54 1    
   106   52  175 1    
   107   53  176 1    
   108   53  177 1    
   109   53  178 1    
   110   54   55 am   BACKBONE|DICT|INTERRES
   111   54  179 1    
   112   55   56 2    
   113   55   57 1    
   114   57   58 1    
   115   57   59 1    
   116   57  180 1    
   117   58  181 1    
   118   58  182 1    
   119   58  183 1    
   120   59   60 am   BACKBONE|DICT|INTERRES
   121   59  184 1    
   122   60   61 2    
   123   60   62 1    
   124   62   63 1    
   125   62   64 1    
   126   62  185 1    
   127   63  186 1    
   128   63  187 1    
   129   63  188 1    
   130   64   65 am   BACKBONE|DICT|INTERRES
   131   64  189 1    
   132   65   66 2    
   133   67   68 2    
   134   67   69 am   BACKBONE|DICT|INTERRES
   135   69   70 1    
   136   69  190 1    
   137   70   71 1    
   138   70   72 1    
   139   70  191 1    
   140   71  192 1    
   141   71  193 1    
   142   71  194 1    
   143   72   73 2    
   144   72   74 am   BACKBONE|DICT|INTERRES
   145   74   75 1    
   146   74  195 1    
   147   75   76 1    
   148   75   77 1    
   149   75  196 1    
   150   76  197 1    
   151   76  198 1    
   152   76  199 1    
   153   77   78 2    
   154   77   79 am   BACKBONE|DICT|INTERRES
   155   79   80 1    
   156   79  200 1    
   157   80   81 1    
   158   80   82 1    
   159   80  201 1    
   160   81  202 1    
   161   81  203 1    
   162   81  204 1    
   163   82   83 2    
   164   82   84 am   BACKBONE|DICT|INTERRES
   165   84   85 1    
   166   84  205 1    
   167   85   86 1    
   168   85   87 1    
   169   85  206 1    
   170   86  207 1    
   171   86  208 1    
   172   86  209 1    
   173   87   88 2    
   174   87   89 am   BACKBONE|DICT|INTERRES
   175   89   90 1    
   176   89  210 1    
   177   90   91 1    
   178   90   92 1    
   179   90  211 1    
   180   91  212 1    
   181   91  213 1    
   182   91  214 1    
   183   92   93 2    
   184   92   94 am   BACKBONE|DICT|INTERRES
   185   94   95 1    
   186   94  215 1    
   187   95   96 1    
   188   95   97 1    
   189   95  216 1    
   190   96  217 1    
   191   96  218 1    
   192   96  219 1    
   193   97   98 2    
   194   97   99 am   BACKBONE|DICT|INTERRES
   195   99  100 1    
   196   99  220 1    
   197  100  101 1    
   198  100  102 1    
   199  100  221 1    
   200  101  222 1    
   201  101  223 1    
   202  101  224 1    
   203  102  103 2    
   204  102  104 am   BACKBONE|DICT|INTERRES
   205  104  105 1    
   206  104  225 1    
   207  105  106 1    
   208  105  107 1    
   209  105  226 1    
   210  106  227 1    
   211  106  228 1    
   212  106  229 1    
   213  107  108 2    
   214  107  109 am   BACKBONE|DICT|INTERRES
   215  109  110 1    
   216  109  230 1    
   217  110  111 1    
   218  110  112 1    
   219  110  231 1    
   220  111  232 1    
   221  111  233 1    
   222  111  234 1    
   223  112  113 2    
   224  112  114 am   BACKBONE|DICT|INTERRES
   225  114  115 1    
   226  114  235 1    
   227  115  116 1    
   228  115  117 1    
   229  115  236 1    
   230  116  237 1    
   231  116  238 1    
   232  116  239 1    
   233  117  118 2    
   234  117  119 am   BACKBONE|DICT|INTERRES
   235  119  120 1    
   236  119  240 1    
   237  120  121 1    
   238  120  124 1    
   239  120  241 1    
   240  121  122 am   BACKBONE|DICT|INTERRES
   241  121  123 2    
   242  122  242 1    
   243  122  243 1    
   244  124  125 1    
   245  124  244 1    
   246  124  245 1    
   247  125  126 1    
   248  126  246 1    
   249  126  247 1    
@<TRIPOS>SUBSTRUCTURE
     1 UNK         1 GROUP             0       ****    0 ROOT    
