@<TRIPOS>MOLECULE
3R540
247   249    1
SMALL
USER_CHARGES


@<TRIPOS>ATOM
      1 CA          4.4548  -10.2922  -51.2488 C.3       0 UNK        -0.1800 
      2 C           3.6649  -11.3869  -50.5458 C.2       0 UNK         0.5000 
      3 O           4.0973  -11.8826  -49.5056 O.2       0 UNK        -0.5000 
      4 N           2.5061  -11.7609  -51.1053 N.am      1 UNK        -0.5000 
      5 CA          1.6080  -12.7921  -50.5660 C.3       1 UNK         0.1400 
      6 C6          0.6772  -13.3595  -51.6694 C.3       23 UNK        -0.0398 
      7 S7          0.1967  -15.0895  -51.3494 S.3       23 UNK        -0.2404 
      8 C8          1.4514  -15.9803  -52.3162 C.3       23 UNK        -0.0205 
      9 C9          1.3752  -17.4722  -52.0432 C.ar      23 UNK        -0.0193 
     10 C10         0.5511  -18.2907  -52.8186 C.ar      23 UNK        -0.1150 
     11 C11         0.4503  -19.6644  -52.5579 C.ar      23 UNK        -0.0193 
     12 C12         1.1922  -20.2054  -51.5018 C.ar      23 UNK        -0.1150 
     13 C13         2.0306  -19.3976  -50.7252 C.ar      23 UNK        -0.0193 
     14 C14         2.1200  -18.0325  -51.0045 C.ar      23 UNK        -0.1150 
     15 C15         2.8367  -19.9944  -49.5790 C.3       23 UNK        -0.0205 
     16 S16         2.3164  -19.3616  -47.9485 S.3       23 UNK        -0.2404 
     17 C17         0.5859  -19.9253  -47.8818 C.3       23 UNK        -0.0398 
     18 CA          0.4654  -21.3615  -47.3252 C.3       11 UNK         0.1400 
     19 N           0.6103  -21.4162  -45.8686 N.am      11 UNK        -0.5000 
     20 C           0.6906  -22.5449  -45.1510 C.2       10 UNK         0.5000 
     21 O           0.7150  -23.6699  -45.6492 O.2       10 UNK        -0.5000 
     22 CA          0.6787  -22.3981  -43.6185 C.3       10 UNK         0.1400 
     23 CB          2.0669  -22.0120  -43.0871 C.3       10 UNK        -0.1800 
     24 N          -0.3221  -21.4332  -43.1581 N.am      10 UNK        -0.5000 
     25 C          -1.6443  -21.5840  -43.3258 C.2       9 UNK         0.5000 
     26 O          -2.1568  -22.5795  -43.8369 O.2       9 UNK        -0.5000 
     27 CA         -2.5457  -20.4137  -42.8938 C.3       9 UNK         0.1400 
     28 CB         -2.7984  -20.4508  -41.3796 C.3       9 UNK        -0.1800 
     29 N          -2.0042  -19.1092  -43.2773 N.am      9 UNK        -0.5000 
     30 C          -1.8160  -18.7067  -44.5429 C.2       8 UNK         0.5000 
     31 O          -2.1275  -19.3777  -45.5259 O.2       8 UNK        -0.5000 
     32 CA         -1.1047  -17.3567  -44.7486 C.3       8 UNK         0.1400 
     33 CB         -2.0774  -16.1833  -44.5642 C.3       8 UNK        -0.1800 
     34 N           0.0425  -17.1900  -43.8574 N.am      8 UNK        -0.5000 
     35 C           1.1231  -17.9823  -43.8500 C.2       7 UNK         0.5000 
     36 O           1.2913  -18.9157  -44.6326 O.2       7 UNK        -0.5000 
     37 CA          2.1584  -17.7282  -42.7427 C.3       7 UNK         0.1400 
     38 CB          3.0887  -16.5621  -43.1066 C.3       7 UNK        -0.1800 
     39 N           1.5172  -17.4647  -41.4553 N.am      7 UNK        -0.5000 
     40 C           0.8745  -18.3893  -40.7289 C.2       6 UNK         0.5000 
     41 O           0.7882  -19.5739  -41.0525 O.2       6 UNK        -0.5000 
     42 CA          0.1840  -17.8978  -39.4430 C.3       6 UNK         0.1400 
     43 CB          1.1889  -17.8197  -38.2841 C.3       6 UNK        -0.1800 
     44 N          -0.4644  -16.5956  -39.6119 N.am      6 UNK        -0.5000 
     45 C          -1.5363  -16.3838  -40.3882 C.2       5 UNK         0.5000 
     46 O          -2.1034  -17.2706  -41.0247 O.2       5 UNK        -0.5000 
     47 CA         -2.0317  -14.9302  -40.5124 C.3       5 UNK         0.1400 
     48 CB         -2.9841  -14.5859  -39.3576 C.3       5 UNK        -0.1800 
     49 N          -0.9609  -13.9290  -40.5747 N.am      5 UNK        -0.5000 
     50 C           0.0225  -13.9119  -41.4842 C.2       4 UNK         0.5000 
     51 O           0.1942  -14.8030  -42.3185 O.2       4 UNK        -0.5000 
     52 CA          1.0007  -12.7223  -41.4195 C.3       4 UNK         0.1400 
     53 CB          2.0570  -12.9671  -40.3304 C.3       4 UNK        -0.1800 
     54 N           1.6891  -12.4969  -42.6929 N.am      4 UNK        -0.5000 
     55 C           1.0919  -12.1591  -43.8436 C.2       3 UNK         0.5000 
     56 O          -0.1086  -11.8849  -43.9351 O.2       3 UNK        -0.5000 
     57 CA          1.9986  -12.1470  -45.0915 C.3       3 UNK         0.1400 
     58 CB          2.5985  -13.5391  -45.3588 C.3       3 UNK        -0.1800 
     59 N           1.2683  -11.7381  -46.2871 N.am      3 UNK        -0.5000 
     60 C           0.9898  -10.4841  -46.6537 C.2       2 UNK         0.5000 
     61 O           1.3860   -9.4914  -46.0391 O.2       2 UNK        -0.5000 
     62 CA          0.1489  -10.3295  -47.9427 C.3       2 UNK         0.1400 
     63 CB         -0.1188   -8.8574  -48.3049 C.3       2 UNK        -0.1800 
     64 N           0.7708  -10.9881  -49.0956 N.am      2 UNK        -0.5000 
     65 C           0.8145  -12.3091  -49.3271 C.2       1 UNK         0.5000 
     66 O           0.2793  -13.1350  -48.5858 O.2       1 UNK        -0.5000 
     67 C          -0.8426  -22.0181  -47.8027 C.2       11 UNK         0.5000 
     68 O          -0.8054  -22.7896  -48.7594 O.2       11 UNK        -0.5000 
     69 N          -1.9623  -21.7365  -47.1225 N.am      12 UNK        -0.5000 
     70 CA         -3.2654  -22.3385  -47.4041 C.3       12 UNK         0.1400 
     71 CB         -4.3528  -21.6423  -46.5733 C.3       12 UNK        -0.1800 
     72 C          -3.2856  -23.8600  -47.1809 C.2       12 UNK         0.5000 
     73 O          -3.8720  -24.5771  -47.9898 O.2       12 UNK        -0.5000 
     74 N          -2.6138  -24.3280  -46.1203 N.am      13 UNK        -0.5000 
     75 CA         -2.4170  -25.7473  -45.8291 C.3       13 UNK         0.1400 
     76 CB         -1.8345  -25.9111  -44.4171 C.3       13 UNK        -0.1800 
     77 C          -1.5310  -26.4450  -46.8779 C.2       13 UNK         0.5000 
     78 O          -1.8747  -27.5399  -47.3233 O.2       13 UNK        -0.5000 
     79 N          -0.4301  -25.7905  -47.2757 N.am      14 UNK        -0.5000 
     80 CA          0.5038  -26.2691  -48.2979 C.3       14 UNK         0.1400 
     81 CB          1.7580  -25.3816  -48.3056 C.3       14 UNK        -0.1800 
     82 C          -0.1245  -26.3350  -49.7023 C.2       14 UNK         0.5000 
     83 O           0.0829  -27.3166  -50.4166 O.2       14 UNK        -0.5000 
     84 N          -0.8983  -25.3025  -50.0623 N.am      15 UNK        -0.5000 
     85 CA         -1.6467  -25.2151  -51.3174 C.3       15 UNK         0.1400 
     86 CB         -2.0635  -23.7541  -51.5460 C.3       15 UNK        -0.1800 
     87 C          -2.8913  -26.1219  -51.3532 C.2       15 UNK         0.5000 
     88 O          -3.4301  -26.3588  -52.4344 O.2       15 UNK        -0.5000 
     89 N          -3.3575  -26.5619  -50.1764 N.am      16 UNK        -0.5000 
     90 CA         -4.5629  -27.3441  -49.8739 C.3       16 UNK         0.1400 
     91 CB         -4.5592  -28.7009  -50.6028 C.3       16 UNK        -0.1800 
     92 C          -5.8854  -26.5831  -50.1019 C.2       16 UNK         0.5000 
     93 O          -6.8144  -26.7449  -49.3099 O.2       16 UNK        -0.5000 
     94 N          -5.9493  -25.7716  -51.1638 N.am      17 UNK        -0.5000 
     95 CA         -7.0442  -24.8635  -51.4844 C.3       17 UNK         0.1400 
     96 CB         -6.9759  -24.5075  -52.9808 C.3       17 UNK        -0.1800 
     97 C          -7.0009  -23.6213  -50.5748 C.2       17 UNK         0.5000 
     98 O          -7.7165  -23.5749  -49.5734 O.2       17 UNK        -0.5000 
     99 N          -6.1655  -22.6405  -50.9361 N.am      18 UNK        -0.5000 
    100 CA        -5.9800  -21.3776  -50.2312 C.3       18 UNK         0.1400 
    101 CB        -7.1975  -20.4578  -50.4463 C.3       18 UNK        -0.1800 
    102 C         -4.7048  -20.7007  -50.7479 C.2       18 UNK         0.5000 
    103 O         -4.2848  -20.9638  -51.8786 O.2       18 UNK        -0.5000 
    104 N         -4.1358  -19.8121  -49.9245 N.am      19 UNK        -0.5000 
    105 CA        -3.0362  -18.9226  -50.2991 C.3       19 UNK         0.1400 
    106 CB        -2.4988  -18.2381  -49.0334 C.3       19 UNK        -0.1800 
    107 C         -3.5024  -17.8750  -51.3287 C.2       19 UNK         0.5000 
    108 O         -4.6930  -17.5546  -51.3802 O.2       19 UNK        -0.5000 
    109 N         -2.5622  -17.3783  -52.1414 N.am      20 UNK        -0.5000 
    110 CA        -2.7254  -16.4370  -53.2615 C.3       20 UNK         0.1400 
    111 CB        -3.3419  -15.0999  -52.8057 C.3       20 UNK        -0.1800 
    112 C         -3.4844  -17.0197  -54.4717 C.2       20 UNK         0.5000 
    113 O         -3.0535  -16.8127  -55.6064 O.2       20 UNK        -0.5000 
    114 N         -4.5829  -17.7417  -54.2181 N.am      21 UNK        -0.5000 
    115 CA        -5.3587  -18.4797  -55.2130 C.3       21 UNK         0.1400 
    116 CB        -6.7098  -18.8847  -54.6025 C.3       21 UNK        -0.1800 
    117 C         -4.5976  -19.7153  -55.7245 C.2       21 UNK         0.5000 
    118 O         -4.5196  -19.9259  -56.9352 O.2       21 UNK        -0.5000 
    119 N         -4.0431  -20.4928  -54.7846 N.am      22 UNK        -0.5000 
    120 CA        -3.2043  -21.6832  -55.0055 C.3       22 UNK         0.1400 
    121 C         -3.9336  -22.9114  -55.6314 C.2       22 UNK         0.5000 
    122 N         -5.2582  -22.9282  -55.7131 N.am      22 UNK        -0.7600 
    123 O         -3.2918  -23.8815  -56.0247 O.2       22 UNK        -0.5000 
    124 C124       -1.8551  -21.3740  -55.7160 C.3       23 UNK        -0.0398 
    125 S125       -0.9307  -19.9625  -55.0163 S.3       23 UNK        -0.2404 
    126 C126       -0.4617  -20.5909  -53.3663 C.3       23 UNK        -0.0205 
    127 H127        4.5843   -9.4376  -50.5847 H         1 UNK         0.0600 
    128 H128        3.9538   -9.9470  -52.1536 H         1 UNK         0.0600 
    129 H129        5.4418  -10.6617  -51.5269 H         1 UNK         0.0600 
    130 H130        2.2040  -11.3139  -51.9599 H         1 UNK         0.3000 
    131 H131        2.2474  -13.6072  -50.2191 H         1 UNK         0.0600 
    132 H132       -0.2240  -12.7538  -51.7815 H         1 UNK         0.0800 
    133 H133        1.1723  -13.3266  -52.6411 H         1 UNK         0.0800 
    134 H134        2.4445  -15.6056  -52.0627 H         1 UNK         0.0800 
    135 H135        1.3048  -15.7814  -53.3790 H         1 UNK         0.0800 
    136 H136       -0.0110  -17.8427  -53.6237 H         1 UNK         0.1150 
    137 H137        1.1143  -21.2613  -51.2818 H         1 UNK         0.1150 
    138 H138        2.7570  -17.4030  -50.3988 H         1 UNK         0.1150 
    139 H139        2.7665  -21.0831  -49.5804 H         1 UNK         0.0800 
    140 H140        3.8911  -19.7574  -49.7272 H         1 UNK         0.0800 
    141 H141        0.1524  -19.8416  -48.8788 H         1 UNK         0.0800 
    142 H142        0.0236  -19.2274  -47.2609 H         1 UNK         0.0800 
    143 H143        1.2745  -21.9605  -47.7480 H         1 UNK         0.0600 
    144 H144        0.6631  -20.5227  -45.3846 H         1 UNK         0.3000 
    145 H145        0.4176  -23.3709  -43.1966 H         1 UNK         0.0600 
    146 H146        2.0739  -21.9701  -41.9979 H         1 UNK         0.0600 
    147 H147        2.8165  -22.7442  -43.3898 H         1 UNK         0.0600 
    148 H148        2.3893  -21.0405  -43.4606 H         1 UNK         0.0600 
    149 H149        0.0240  -20.6038  -42.6883 H         1 UNK         0.3000 
    150 H150       -3.5065  -20.5337  -43.3980 H         1 UNK         0.0600 
    151 H151       -3.2064  -21.4153  -41.0747 H         1 UNK         0.0600 
    152 H152       -3.5160  -19.6862  -41.0819 H         1 UNK         0.0600 
    153 H153       -1.8814  -20.2874  -40.8131 H         1 UNK         0.0600 
    154 H154       -1.7743  -18.4735  -42.5191 H         1 UNK         0.3000 
    155 H155       -0.7323  -17.3291  -45.7746 H         1 UNK         0.0600 
    156 H156       -2.4878  -16.1553  -43.5551 H         1 UNK         0.0600 
    157 H157       -1.5837  -15.2290  -44.7505 H         1 UNK         0.0600 
    158 H158       -2.9151  -16.2595  -45.2585 H         1 UNK         0.0600 
    159 H159        0.0073  -16.4114  -43.2027 H         1 UNK         0.3000 
    160 H160        2.7691  -18.6283  -42.6448 H         1 UNK         0.0600 
    161 H161        2.5462  -15.6199  -43.1705 H         1 UNK         0.0600 
    162 H162        3.5688  -16.7314  -44.0713 H         1 UNK         0.0600 
    163 H163        3.8789  -16.4429  -42.3653 H         1 UNK         0.0600 
    164 H164        1.4752  -16.5005  -41.1597 H         1 UNK         0.3000 
    165 H165       -0.5838  -18.6282  -39.1790 H         1 UNK         0.0600 
    166 H166        0.6941  -17.5499  -37.3510 H         1 UNK         0.0600 
    167 H167        1.6765  -18.7826  -38.1255 H         1 UNK         0.0600 
    168 H168        1.9705  -17.0833  -38.4754 H         1 UNK         0.0600 
    169 H169       -0.0559  -15.8104  -39.1271 H         1 UNK         0.3000 
    170 H170       -2.5941  -14.8591  -41.4453 H         1 UNK         0.0600 
    171 H171       -3.8028  -15.3045  -39.2990 H         1 UNK         0.0600 
    172 H172       -2.4705  -14.5940  -38.3954 H         1 UNK         0.0600 
    173 H173       -3.4291  -13.6001  -39.4932 H         1 UNK         0.0600 
    174 H174       -1.0208  -13.1716  -39.9094 H         1 UNK         0.3000 
    175 H175        0.4359  -11.8208  -41.1736 H         1 UNK         0.0600 
    176 H176        2.6513  -13.8580  -40.5392 H         1 UNK         0.0600 
    177 H177        2.7395  -12.1212  -40.2453 H         1 UNK         0.0600 
    178 H178        1.5924  -13.1045  -39.3531 H         1 UNK         0.0600 
    179 H179        2.6726  -12.7212  -42.7079 H         1 UNK         0.3000 
    180 H180        2.8134  -11.4415  -44.9162 H         1 UNK         0.0600 
    181 H181        3.2925  -13.8281  -44.5698 H         1 UNK         0.0600 
    182 H182        3.1588  -13.5552  -46.2942 H         1 UNK         0.0600 
    183 H183        1.8251  -14.3067  -45.4194 H         1 UNK         0.0600 
    184 H184        0.8878  -12.4827  -46.8630 H         1 UNK         0.3000 
    185 H185       -0.8163  -10.8033  -47.7521 H         1 UNK         0.0600 
    186 H186       -0.6225   -8.3384  -47.4883 H         1 UNK         0.0600 
    187 H187        0.8063   -8.3197  -48.5166 H         1 UNK         0.0600 
    188 H188       -0.7615   -8.7778  -49.1819 H         1 UNK         0.0600 
    189 H189        1.2704  -10.3862  -49.7334 H         1 UNK         0.3000 
    190 H190       -1.9303  -21.0458  -46.3764 H         1 UNK         0.3000 
    191 H191       -3.4805  -22.1694  -48.4596 H         1 UNK         0.0600 
    192 H192       -4.1712  -21.7505  -45.5041 H         1 UNK         0.0600 
    193 H193       -5.3363  -22.0651  -46.7815 H         1 UNK         0.0600 
    194 H194       -4.3992  -20.5766  -46.7967 H         1 UNK         0.0600 
    195 H195       -2.2119  -23.6653  -45.4634 H         1 UNK         0.3000 
    196 H196       -3.3960  -26.2308  -45.8471 H         1 UNK         0.0600 
    197 H197       -1.7028  -26.9649  -44.1690 H         1 UNK         0.0600 
    198 H198       -2.4968  -25.4797  -43.6663 H         1 UNK         0.0600 
    199 H199       -0.8627  -25.4269  -44.3210 H         1 UNK         0.0600 
    200 H200       -0.1910  -24.9143  -46.8191 H         1 UNK         0.3000 
    201 H201        0.8078  -27.2812  -48.0231 H         1 UNK         0.0600 
    202 H202        2.2543  -25.3929  -47.3350 H         1 UNK         0.0600 
    203 H203        1.5172  -24.3457  -48.5453 H         1 UNK         0.0600 
    204 H204        2.4800  -25.7310  -49.0445 H         1 UNK         0.0600 
    205 H205       -0.9612  -24.4962  -49.4434 H         1 UNK         0.3000 
    206 H206       -0.9919  -25.5191  -52.1365 H         1 UNK         0.0600 
    207 H207       -1.1949  -23.0983  -51.6044 H         1 UNK         0.0600 
    208 H208       -2.6166  -23.6522  -52.4787 H         1 UNK         0.0600 
    209 H209       -2.7064  -23.3885  -50.7440 H         1 UNK         0.0600 
    210 H210       -2.8699  -26.2318  -49.3538 H         1 UNK         0.3000 
    211 H211       -4.5065  -27.5492  -48.8036 H         1 UNK         0.0600 
    212 H212       -4.6517  -28.5865  -51.6830 H         1 UNK         0.0600 
    213 H213       -5.3931  -29.3203  -50.2706 H         1 UNK         0.0600 
    214 H214       -3.6419  -29.2538  -50.3999 H         1 UNK         0.0600 
    215 H215       -5.1388  -25.7513  -51.7744 H         1 UNK         0.3000 
    216 H216       -7.9929  -25.3734  -51.3041 H         1 UNK         0.0600 
    217 H217       -7.7267  -23.7610  -53.2434 H         1 UNK         0.0600 
    218 H218       -7.1636  -25.3861  -53.5982 H         1 UNK         0.0600 
    219 H219       -5.9994  -24.1127  -53.2623 H         1 UNK         0.0600 
    220 H220       -5.5830  -22.7431  -51.7571 H         1 UNK         0.3000 
    221 H221       -5.8596  -21.5829  -49.1664 H         1 UNK         0.0600 
    222 H222       -7.3827  -20.2816  -51.5063 H         1 UNK         0.0600 
    223 H223       -8.1034  -20.8843  -50.0159 H         1 UNK         0.0600 
    224 H224       -7.0461  -19.4859  -49.9749 H         1 UNK         0.0600 
    225 H225       -4.5806  -19.6111  -49.0418 H         1 UNK         0.3000 
    226 H226       -2.2399  -19.5269  -50.7391 H         1 UNK         0.0600 
    227 H227       -1.6105  -17.6449  -49.2556 H         1 UNK         0.0600 
    228 H228       -3.2387  -17.5699  -48.5910 H         1 UNK         0.0600 
    229 H229       -2.2219  -18.9712  -48.2767 H         1 UNK         0.0600 
    230 H230       -1.6146  -17.7058  -52.0128 H         1 UNK         0.3000 
    231 H231       -1.7147  -16.2174  -53.6075 H         1 UNK         0.0600 
    232 H232       -3.3105  -14.3666  -53.6122 H         1 UNK         0.0600 
    233 H233       -2.7952  -14.6786  -51.9624 H         1 UNK         0.0600 
    234 H234       -4.3851  -15.2074  -52.5083 H         1 UNK         0.0600 
    235 H235       -4.8673  -17.8257  -53.2462 H         1 UNK         0.3000 
    236 H236       -5.5488  -17.8206  -56.0627 H         1 UNK         0.0600 
    237 H237       -7.2804  -18.0084  -54.2944 H         1 UNK         0.0600 
    238 H238       -7.3174  -19.4305  -55.3253 H         1 UNK         0.0600 
    239 H239       -6.5828  -19.5242  -53.7282 H         1 UNK         0.0600 
    240 H240       -4.1936  -20.2675  -53.8078 H         1 UNK         0.3000 
    241 H241       -2.9547  -22.0198  -54.0022 H         1 UNK         0.0600 
    242 H242       -5.7184  -23.7285  -56.1166 H         1 UNK         0.3800 
    243 H243       -5.7994  -22.1372  -55.4062 H         1 UNK         0.3800 
    244 H244       -1.2015  -22.2476  -55.6904 H         1 UNK         0.0800 
    245 H245       -2.0309  -21.1622  -56.7716 H         1 UNK         0.0800 
    246 H246       -1.3668  -20.7681  -52.7846 H         1 UNK         0.0800 
    247 H247        0.0271  -21.5582  -53.4934 H         1 UNK         0.0800 
@<TRIPOS>BOND
     1    1    2 1    
     2    1  127 1    
     3    1  128 1    
     4    1  129 1    
     5    2    3 2    
     6    2    4 am   BACKBONE|DICT|INTERRES
     7    4    5 1    
     8    4  130 1    
     9    5    6 1    
    10    5   65 1    
    11    5  131 1    
    12    6    7 1    
    13    6  132 1    
    14    6  133 1    
    15    7    8 1    
    16    8    9 1    
    17    8  134 1    
    18    8  135 1    
    19    9   10 ar   
    20    9   14 ar   
    21   10   11 ar   
    22   10  136 1    
    23   11   12 ar   
    24   11  126 1    
    25   12   13 ar   
    26   12  137 1    
    27   13   14 ar   
    28   13   15 1    
    29   14  138 1    
    30   15   16 1    
    31   15  139 1    
    32   15  140 1    
    33   16   17 1    
    34   17   18 1    
    35   17  141 1    
    36   17  142 1    
    37   18   19 1    
    38   18   67 1    
    39   18  143 1    
    40   19   20 am   BACKBONE|DICT|INTERRES
    41   19  144 1    
    42   20   21 2    
    43   20   22 1    
    44   22   23 1    
    45   22   24 1    
    46   22  145 1    
    47   23  146 1    
    48   23  147 1    
    49   23  148 1    
    50   24   25 am   BACKBONE|DICT|INTERRES
    51   24  149 1    
    52   25   26 2    
    53   25   27 1    
    54   27   28 1    
    55   27   29 1    
    56   27  150 1    
    57   28  151 1    
    58   28  152 1    
    59   28  153 1    
    60   29   30 am   BACKBONE|DICT|INTERRES
    61   29  154 1    
    62   30   31 2    
    63   30   32 1    
    64   32   33 1    
    65   32   34 1    
    66   32  155 1    
    67   33  156 1    
    68   33  157 1    
    69   33  158 1    
    70   34   35 am   BACKBONE|DICT|INTERRES
    71   34  159 1    
    72   35   36 2    
    73   35   37 1    
    74   37   38 1    
    75   37   39 1    
    76   37  160 1    
    77   38  161 1    
    78   38  162 1    
    79   38  163 1    
    80   39   40 am   BACKBONE|DICT|INTERRES
    81   39  164 1    
    82   40   41 2    
    83   40   42 1    
    84   42   43 1    
    85   42   44 1    
    86   42  165 1    
    87   43  166 1    
    88   43  167 1    
    89   43  168 1    
    90   44   45 am   BACKBONE|DICT|INTERRES
    91   44  169 1    
    92   45   46 2    
    93   45   47 1    
    94   47   48 1    
    95   47   49 1    
    96   47  170 1    
    97   48  171 1    
    98   48  172 1    
    99   48  173 1    
   100   49   50 am   BACKBONE|DICT|INTERRES
   101   49  174 1    
   102   50   51 2    
   103   50   52 1    
   104   52   53 1    
   105   52   54 1    
   106   52  175 1    
   107   53  176 1    
   108   53  177 1    
   109   53  178 1    
   110   54   55 am   BACKBONE|DICT|INTERRES
   111   54  179 1    
   112   55   56 2    
   113   55   57 1    
   114   57   58 1    
   115   57   59 1    
   116   57  180 1    
   117   58  181 1    
   118   58  182 1    
   119   58  183 1    
   120   59   60 am   BACKBONE|DICT|INTERRES
   121   59  184 1    
   122   60   61 2    
   123   60   62 1    
   124   62   63 1    
   125   62   64 1    
   126   62  185 1    
   127   63  186 1    
   128   63  187 1    
   129   63  188 1    
   130   64   65 am   BACKBONE|DICT|INTERRES
   131   64  189 1    
   132   65   66 2    
   133   67   68 2    
   134   67   69 am   BACKBONE|DICT|INTERRES
   135   69   70 1    
   136   69  190 1    
   137   70   71 1    
   138   70   72 1    
   139   70  191 1    
   140   71  192 1    
   141   71  193 1    
   142   71  194 1    
   143   72   73 2    
   144   72   74 am   BACKBONE|DICT|INTERRES
   145   74   75 1    
   146   74  195 1    
   147   75   76 1    
   148   75   77 1    
   149   75  196 1    
   150   76  197 1    
   151   76  198 1    
   152   76  199 1    
   153   77   78 2    
   154   77   79 am   BACKBONE|DICT|INTERRES
   155   79   80 1    
   156   79  200 1    
   157   80   81 1    
   158   80   82 1    
   159   80  201 1    
   160   81  202 1    
   161   81  203 1    
   162   81  204 1    
   163   82   83 2    
   164   82   84 am   BACKBONE|DICT|INTERRES
   165   84   85 1    
   166   84  205 1    
   167   85   86 1    
   168   85   87 1    
   169   85  206 1    
   170   86  207 1    
   171   86  208 1    
   172   86  209 1    
   173   87   88 2    
   174   87   89 am   BACKBONE|DICT|INTERRES
   175   89   90 1    
   176   89  210 1    
   177   90   91 1    
   178   90   92 1    
   179   90  211 1    
   180   91  212 1    
   181   91  213 1    
   182   91  214 1    
   183   92   93 2    
   184   92   94 am   BACKBONE|DICT|INTERRES
   185   94   95 1    
   186   94  215 1    
   187   95   96 1    
   188   95   97 1    
   189   95  216 1    
   190   96  217 1    
   191   96  218 1    
   192   96  219 1    
   193   97   98 2    
   194   97   99 am   BACKBONE|DICT|INTERRES
   195   99  100 1    
   196   99  220 1    
   197  100  101 1    
   198  100  102 1    
   199  100  221 1    
   200  101  222 1    
   201  101  223 1    
   202  101  224 1    
   203  102  103 2    
   204  102  104 am   BACKBONE|DICT|INTERRES
   205  104  105 1    
   206  104  225 1    
   207  105  106 1    
   208  105  107 1    
   209  105  226 1    
   210  106  227 1    
   211  106  228 1    
   212  106  229 1    
   213  107  108 2    
   214  107  109 am   BACKBONE|DICT|INTERRES
   215  109  110 1    
   216  109  230 1    
   217  110  111 1    
   218  110  112 1    
   219  110  231 1    
   220  111  232 1    
   221  111  233 1    
   222  111  234 1    
   223  112  113 2    
   224  112  114 am   BACKBONE|DICT|INTERRES
   225  114  115 1    
   226  114  235 1    
   227  115  116 1    
   228  115  117 1    
   229  115  236 1    
   230  116  237 1    
   231  116  238 1    
   232  116  239 1    
   233  117  118 2    
   234  117  119 am   BACKBONE|DICT|INTERRES
   235  119  120 1    
   236  119  240 1    
   237  120  121 1    
   238  120  124 1    
   239  120  241 1    
   240  121  122 am   BACKBONE|DICT|INTERRES
   241  121  123 2    
   242  122  242 1    
   243  122  243 1    
   244  124  125 1    
   245  124  244 1    
   246  124  245 1    
   247  125  126 1    
   248  126  246 1    
   249  126  247 1    
@<TRIPOS>SUBSTRUCTURE
     1 UNK         1 GROUP             0       ****    0 ROOT    
