@<TRIPOS>MOLECULE
3R540
247   249    1
SMALL
USER_CHARGES


@<TRIPOS>ATOM
      1 CA         -3.6047   -8.0048  -48.9688 C.3       0 UNK        -0.1800 
      2 C          -2.4988   -8.9090  -49.4948 C.2       0 UNK         0.5000 
      3 O          -1.7544   -8.5095  -50.3903 O.2       0 UNK        -0.5000 
      4 N          -2.3883  -10.1238  -48.9414 N.am      1 UNK        -0.5000 
      5 CA         -1.3974  -11.1396  -49.3303 C.3       1 UNK         0.1400 
      6 C6         -1.7839  -12.5573  -48.8342 C.3       23 UNK        -0.0398 
      7 S7         -3.4688  -13.0481  -49.3342 S.3       23 UNK        -0.2404 
      8 C8         -3.7360  -14.5178  -48.2952 C.3       23 UNK        -0.0205 
      9 C9         -3.3888  -15.7996  -49.0359 C.ar      23 UNK        -0.0193 
     10 C10        -4.3586  -16.4268  -49.8237 C.ar      23 UNK        -0.1150 
     11 C11        -4.0713  -17.6219  -50.4869 C.ar      23 UNK        -0.0193 
     12 C12        -2.7993  -18.1839  -50.3666 C.ar      23 UNK        -0.1150 
     13 C13        -1.8251  -17.5804  -49.5659 C.ar      23 UNK        -0.0193 
     14 C14        -2.1214  -16.3787  -48.9121 C.ar      23 UNK        -0.1150 
     15 C15        -0.4639  -18.2466  -49.4024 C.3       23 UNK        -0.0205 
     16 S16        -0.0548  -18.6504  -47.6690 S.3       23 UNK        -0.2404 
     17 C17        -1.4902  -19.6195  -47.0848 C.3       23 UNK        -0.0398 
     18 CA         -1.1786  -21.1065  -46.7763 C.3       11 UNK         0.1400 
     19 N          -0.1387  -21.2999  -45.7565 N.am      11 UNK        -0.5000 
     20 C           0.3660  -22.4926  -45.4017 C.2       10 UNK         0.5000 
     21 O           0.0631  -23.5494  -45.9540 O.2       10 UNK        -0.5000 
     22 CA          1.3120  -22.5348  -44.1867 C.3       10 UNK         0.1400 
     23 CB          2.7566  -22.1945  -44.5826 C.3       10 UNK        -0.1800 
     24 N           0.8608  -21.6655  -43.0989 N.am      10 UNK        -0.5000 
     25 C          -0.2589  -21.8741  -42.3905 C.2       9 UNK         0.5000 
     26 O          -0.9842  -22.8571  -42.5419 O.2       9 UNK        -0.5000 
     27 CA         -0.6667  -20.7857  -41.3790 C.3       9 UNK         0.1400 
     28 CB          0.0612  -20.9799  -40.0410 C.3       9 UNK        -0.1800 
     29 N          -0.4308  -19.4313  -41.8808 N.am      9 UNK        -0.5000 
     30 C          -1.0544  -18.9006  -42.9431 C.2       8 UNK         0.5000 
     31 O          -1.9542  -19.4711  -43.5599 O.2       8 UNK        -0.5000 
     32 CA         -0.5467  -17.5340  -43.4401 C.3       8 UNK         0.1400 
     33 CB         -1.1878  -16.3858  -42.6479 C.3       8 UNK        -0.1800 
     34 N           0.9100  -17.4163  -43.3762 N.am      8 UNK        -0.5000 
     35 C           1.7705  -18.1945  -44.0454 C.2       7 UNK         0.5000 
     36 O           1.4225  -19.0852  -44.8147 O.2       7 UNK        -0.5000 
     37 CA          3.2659  -17.9959  -43.7529 C.3       7 UNK         0.1400 
     38 CB          3.8315  -16.7846  -44.5087 C.3       7 UNK        -0.1800 
     39 N           3.5168  -17.8541  -42.3198 N.am      7 UNK        -0.5000 
     40 C           3.4142  -18.8568  -41.4367 C.2       6 UNK         0.5000 
     41 O           3.1430  -20.0162  -41.7498 O.2       6 UNK        -0.5000 
     42 CA          3.6213  -18.4967  -39.9536 C.3       6 UNK         0.1400 
     43 CB          5.1128  -18.5432  -39.5901 C.3       6 UNK        -0.1800 
     44 N           3.0806  -17.1798  -39.6096 N.am      6 UNK        -0.5000 
     45 C           1.7730  -16.8871  -39.5728 C.2       5 UNK         0.5000 
     46 O           0.8830  -17.7059  -39.8033 O.2       5 UNK        -0.5000 
     47 CA          1.4027  -15.4179  -39.2833 C.3       5 UNK         0.1400 
     48 CB          1.4112  -15.1451  -37.7718 C.3       5 UNK        -0.1800 
     49 N           2.2664  -14.4422  -39.9618 N.am      5 UNK        -0.5000 
     50 C           2.4336  -14.3801  -41.2891 C.2       4 UNK         0.5000 
     51 O           1.9126  -15.1788  -42.0691 O.2       4 UNK        -0.5000 
     52 CA          3.3714  -13.2864  -41.8368 C.3       4 UNK         0.1400 
     53 CB          4.8380  -13.6501  -41.5542 C.3       4 UNK        -0.1800 
     54 N           3.2000  -13.1432  -43.2840 N.am      4 UNK        -0.5000 
     55 C           2.1428  -12.5680  -43.8683 C.2       3 UNK         0.5000 
     56 O           1.3022  -11.8951  -43.2652 O.2       3 UNK        -0.5000 
     57 CA          1.9671  -12.8486  -45.3705 C.3       3 UNK         0.1400 
     58 CB          1.0118  -14.0360  -45.5861 C.3       3 UNK        -0.1800 
     59 N           1.4257  -11.6855  -46.0648 N.am      3 UNK        -0.5000 
     60 C           2.1364  -10.6166  -46.4448 C.2       2 UNK         0.5000 
     61 O           3.3510  -10.5107  -46.2642 O.2       2 UNK        -0.5000 
     62 CA          1.3515   -9.4803  -47.1392 C.3       2 UNK         0.1400 
     63 CB          2.2276   -8.6433  -48.0950 C.3       2 UNK        -0.1800 
     64 N           0.1280   -9.9379  -47.8142 N.am      2 UNK        -0.5000 
     65 C           0.0294  -10.7868  -48.8521 C.2       1 UNK         0.5000 
     66 O           0.9959  -11.3028  -49.4142 O.2       1 UNK        -0.5000 
     67 C          -2.4800  -21.8450  -46.3953 C.2       11 UNK         0.5000 
     68 O          -3.0414  -22.5533  -47.2288 O.2       11 UNK        -0.5000 
     69 N          -2.9174  -21.7059  -45.1354 N.am      12 UNK        -0.5000 
     70 CA         -4.0986  -22.3821  -44.5937 C.3       12 UNK         0.1400 
     71 CB         -4.3883  -21.8607  -43.1783 C.3       12 UNK        -0.1800 
     72 C          -3.9774  -23.9187  -44.6014 C.2       12 UNK         0.5000 
     73 O          -4.9585  -24.5996  -44.9015 O.2       12 UNK        -0.5000 
     74 N          -2.7770  -24.4328  -44.2999 N.am      13 UNK        -0.5000 
     75 CA         -2.4474  -25.8566  -44.3569 C.3       13 UNK         0.1400 
     76 CB         -1.1152  -26.1031  -43.6322 C.3       13 UNK        -0.1800 
     77 C          -2.3965  -26.4003  -45.7978 C.2       13 UNK         0.5000 
     78 O          -2.8991  -27.4968  -46.0475 O.2       13 UNK        -0.5000 
     79 N          -1.7945  -25.6310  -46.7160 N.am      14 UNK        -0.5000 
     80 CA         -1.6689  -25.9698  -48.1355 C.3       14 UNK         0.1400 
     81 CB         -0.6314  -25.0456  -48.7849 C.3       14 UNK        -0.1800 
     82 C          -3.0058  -25.9129  -48.8985 C.2       14 UNK         0.5000 
     83 O          -3.2009  -26.6986  -49.8275 O.2       14 UNK        -0.5000 
     84 N          -3.8998  -25.0028  -48.4847 N.am      15 UNK        -0.5000 
     85 CA         -5.2737  -24.8197  -48.9566 C.3       15 UNK         0.1400 
     86 CB         -6.1646  -25.9748  -48.4499 C.3       15 UNK        -0.1800 
     87 C          -5.3406  -24.6003  -50.4812 C.2       15 UNK         0.5000 
     88 O          -4.9394  -23.5388  -50.9556 O.2       15 UNK        -0.5000 
     89 N          -5.8123  -25.6015  -51.2345 N.am      16 UNK        -0.5000 
     90 CA         -5.9124  -25.5821  -52.6969 C.3       16 UNK         0.1400 
     91 CB         -6.7006  -26.8206  -53.1508 C.3       16 UNK        -0.1800 
     92 C          -4.5550  -25.5073  -53.4301 C.2       16 UNK         0.5000 
     93 O          -4.5327  -25.1549  -54.6092 O.2       16 UNK        -0.5000 
     94 N          -3.4599  -25.8441  -52.7356 N.am      17 UNK        -0.5000 
     95 CA         -2.0904  -25.7993  -53.2489 C.3       17 UNK         0.1400 
     96 CB         -1.3904  -27.1143  -52.8628 C.3       17 UNK        -0.1800 
     97 C          -1.3016  -24.5813  -52.7246 C.2       17 UNK         0.5000 
     98 O          -0.0915  -24.5166  -52.9466 O.2       17 UNK        -0.5000 
     99 N          -1.9639  -23.6588  -52.0100 N.am      18 UNK        -0.5000 
    100 CA        -1.3346  -22.5094  -51.3543 C.3       18 UNK         0.1400 
    101 CB        -2.3540  -21.8502  -50.4210 C.3       18 UNK        -0.1800 
    102 C         -0.7463  -21.4708  -52.3240 C.2       18 UNK         0.5000 
    103 O          0.2850  -20.8723  -52.0158 O.2       18 UNK        -0.5000 
    104 N         -1.4016  -21.2814  -53.4704 N.am      19 UNK        -0.5000 
    105 CA        -0.9838  -20.3990  -54.5506 C.3       19 UNK         0.1400 
    106 CB        -1.7283  -19.0577  -54.4118 C.3       19 UNK        -0.1800 
    107 C         -1.2723  -21.0809  -55.8977 C.2       19 UNK         0.5000 
    108 O         -1.7797  -22.2050  -55.9353 O.2       19 UNK        -0.5000 
    109 N         -0.9458  -20.3841  -56.9938 N.am      20 UNK        -0.5000 
    110 CA        -1.2432  -20.8189  -58.3618 C.3       20 UNK         0.1400 
    111 CB        -0.4394  -19.9560  -59.3470 C.3       20 UNK        -0.1800 
    112 C         -2.7480  -20.7627  -58.6980 C.2       20 UNK         0.5000 
    113 O         -3.1992  -21.5038  -59.5724 O.2       20 UNK        -0.5000 
    114 N         -3.4853  -19.8864  -58.0030 N.am      21 UNK        -0.5000 
    115 CA        -4.9291  -19.7170  -58.1220 C.3       21 UNK         0.1400 
    116 CB        -5.2535  -18.2194  -58.2818 C.3       21 UNK        -0.1800 
    117 C         -5.6275  -20.3415  -56.9030 C.2       21 UNK         0.5000 
    118 O         -6.2194  -21.4145  -57.0279 O.2       21 UNK        -0.5000 
    119 N         -5.5684  -19.6487  -55.7590 N.am      22 UNK        -0.5000 
    120 CA        -6.2293  -20.0383  -54.5054 C.3       22 UNK         0.1400 
    121 C         -5.4861  -21.1418  -53.6961 C.2       22 UNK         0.5000 
    122 N         -6.1312  -21.6947  -52.6779 N.am      22 UNK        -0.7600 
    123 O         -4.3336  -21.4801  -53.9506 O.2       22 UNK        -0.5000 
    124 C124       -6.5746  -18.7906  -53.6484 C.3       23 UNK        -0.0398 
    125 S125       -5.1314  -17.8436  -53.0422 S.3       23 UNK        -0.2404 
    126 C126       -5.1477  -18.3322  -51.2905 C.3       23 UNK        -0.0205 
    127 H127       -4.2851   -7.7358  -49.7767 H         1 UNK         0.0600 
    128 H128       -3.1781   -7.0882  -48.5614 H         1 UNK         0.0600 
    129 H129       -4.1850   -8.4888  -48.1829 H         1 UNK         0.0600 
    130 H130       -3.0496  -10.4075  -48.2321 H         1 UNK         0.3000 
    131 H131       -1.3662  -11.1697  -50.4217 H         1 UNK         0.0600 
    132 H132       -1.0860  -13.3020  -49.2221 H         1 UNK         0.0800 
    133 H133       -1.7167  -12.6076  -47.7459 H         1 UNK         0.0800 
    134 H134       -3.1658  -14.4446  -47.3681 H         1 UNK         0.0800 
    135 H135       -4.7852  -14.5442  -47.9970 H         1 UNK         0.0800 
    136 H136       -5.3430  -15.9886  -49.9124 H         1 UNK         0.1150 
    137 H137       -2.5768  -19.1013  -50.8900 H         1 UNK         0.1150 
    138 H138       -1.3714  -15.9075  -48.2923 H         1 UNK         0.1150 
    139 H139       -0.4032  -19.1597  -49.9948 H         1 UNK         0.0800 
    140 H140        0.3031  -17.5790  -49.7966 H         1 UNK         0.0800 
    141 H141       -1.8766  -19.1199  -46.1960 H         1 UNK         0.0800 
    142 H142       -2.2888  -19.5570  -47.8245 H         1 UNK         0.0800 
    143 H143       -0.8061  -21.5645  -47.6946 H         1 UNK         0.0600 
    144 H144        0.2245  -20.4630  -45.3062 H         1 UNK         0.3000 
    145 H145        1.3108  -23.5588  -43.8074 H         1 UNK         0.0600 
    146 H146        3.4229  -22.2404  -43.7210 H         1 UNK         0.0600 
    147 H147        3.1305  -22.9037  -45.3220 H         1 UNK         0.0600 
    148 H148        2.8411  -21.2000  -45.0178 H         1 UNK         0.0600 
    149 H149        1.4202  -20.8437  -42.9069 H         1 UNK         0.3000 
    150 H150       -1.7382  -20.8895  -41.1967 H         1 UNK         0.0600 
    151 H151       -0.1236  -21.9762  -39.6377 H         1 UNK         0.0600 
    152 H152       -0.2816  -20.2595  -39.2981 H         1 UNK         0.0600 
    153 H153        1.1396  -20.8634  -40.1466 H         1 UNK         0.0600 
    154 H154        0.2574  -18.8731  -41.3870 H         1 UNK         0.3000 
    155 H155       -0.8397  -17.4317  -44.4870 H         1 UNK         0.0600 
    156 H156       -0.8792  -15.4167  -43.0409 H         1 UNK         0.0600 
    157 H157       -0.9111  -16.4215  -41.5939 H         1 UNK         0.0600 
    158 H158       -2.2760  -16.4309  -42.7057 H         1 UNK         0.0600 
    159 H159        1.2814  -16.6744  -42.7846 H         1 UNK         0.3000 
    160 H160        3.7931  -18.8847  -44.1065 H         1 UNK         0.0600 
    161 H161        3.3798  -15.8528  -44.1750 H         1 UNK         0.0600 
    162 H162        3.6471  -16.8735  -45.5801 H         1 UNK         0.0600 
    163 H163        4.9095  -16.7027  -44.3691 H         1 UNK         0.0600 
    164 H164        3.6770  -16.9198  -41.9751 H         1 UNK         0.3000 
    165 H165        3.1008  -19.2469  -39.3542 H         1 UNK         0.0600 
    166 H166        5.6866  -17.7973  -40.1416 H         1 UNK         0.0600 
    167 H167        5.2648  -18.3647  -38.5255 H         1 UNK         0.0600 
    168 H168        5.5394  -19.5208  -39.8187 H         1 UNK         0.0600 
    169 H169        3.7457  -16.4471  -39.4111 H         1 UNK         0.3000 
    170 H170        0.3855  -15.2627  -39.6489 H         1 UNK         0.0600 
    171 H171        0.7635  -15.8470  -37.2447 H         1 UNK         0.0600 
    172 H172        2.4123  -15.2414  -37.3498 H         1 UNK         0.0600 
    173 H173        1.0479  -14.1414  -37.5501 H         1 UNK         0.0600 
    174 H174        2.7330  -13.7664  -39.3741 H         1 UNK         0.3000 
    175 H175        3.1331  -12.3395  -41.3481 H         1 UNK         0.0600 
    176 H176        5.5137  -12.8883  -41.9437 H         1 UNK         0.0600 
    177 H177        5.0268  -13.7289  -40.4829 H         1 UNK         0.0600 
    178 H178        5.1129  -14.6038  -42.0072 H         1 UNK         0.0600 
    179 H179        3.8303  -13.6847  -43.8557 H         1 UNK         0.3000 
    180 H180        2.9371  -13.1015  -45.8045 H         1 UNK         0.0600 
    181 H181        0.9127  -14.2771  -46.6448 H         1 UNK         0.0600 
    182 H182        1.3748  -14.9321  -45.0825 H         1 UNK         0.0600 
    183 H183        0.0153  -13.8281  -45.1943 H         1 UNK         0.0600 
    184 H184        0.4269  -11.6668  -46.2005 H         1 UNK         0.3000 
    185 H185        1.0218   -8.8175  -46.3379 H         1 UNK         0.0600 
    186 H186        1.6483   -7.8499  -48.5673 H         1 UNK         0.0600 
    187 H187        3.0489   -8.1675  -47.5580 H         1 UNK         0.0600 
    188 H188        2.6656   -9.2546  -48.8844 H         1 UNK         0.0600 
    189 H189       -0.7360   -9.5728  -47.4381 H         1 UNK         0.3000 
    190 H190       -2.4284  -21.0697  -44.5109 H         1 UNK         0.3000 
    191 H191       -4.9461  -22.1177  -45.2295 H         1 UNK         0.0600 
    192 H192       -5.2927  -22.3159  -42.7728 H         1 UNK         0.0600 
    193 H193       -4.5389  -20.7810  -43.1786 H         1 UNK         0.0600 
    194 H194       -3.5727  -22.0842  -42.4910 H         1 UNK         0.0600 
    195 H195       -2.0402  -23.8039  -43.9972 H         1 UNK         0.3000 
    196 H196       -3.2264  -26.4044  -43.8225 H         1 UNK         0.0600 
    197 H197       -0.8601  -27.1635  -43.6340 H         1 UNK         0.0600 
    198 H198       -1.1678  -25.7822  -42.5917 H         1 UNK         0.0600 
    199 H199       -0.2927  -25.5664  -44.1054 H         1 UNK         0.0600 
    200 H200       -1.3507  -24.7669  -46.4162 H         1 UNK         0.3000 
    201 H201       -1.2972  -26.9941  -48.2065 H         1 UNK         0.0600 
    202 H202        0.3472  -25.1650  -48.3199 H         1 UNK         0.0600 
    203 H203       -0.9189  -23.9987  -48.6888 H         1 UNK         0.0600 
    204 H204       -0.5158  -25.2684  -49.8459 H         1 UNK         0.0600 
    205 H205       -3.5915  -24.3235  -47.7943 H         1 UNK         0.3000 
    206 H206       -5.6345  -23.8973  -48.4993 H         1 UNK         0.0600 
    207 H207       -6.1642  -26.0098  -47.3601 H         1 UNK         0.0600 
    208 H208       -7.2002  -25.8426  -48.7658 H         1 UNK         0.0600 
    209 H209       -5.8257  -26.9480  -48.8068 H         1 UNK         0.0600 
    210 H210       -6.0869  -26.4573  -50.7746 H         1 UNK         0.3000 
    211 H211       -6.4800  -24.6935  -52.9809 H         1 UNK         0.0600 
    212 H212       -6.1897  -27.7442  -52.8754 H         1 UNK         0.0600 
    213 H213       -6.8301  -26.8275  -54.2339 H         1 UNK         0.0600 
    214 H214       -7.6960  -26.8404  -52.7066 H         1 UNK         0.0600 
    215 H215       -3.5626  -26.1311  -51.7667 H         1 UNK         0.3000 
    216 H216       -2.0945  -25.7287  -54.3383 H         1 UNK         0.0600 
    217 H217       -0.3871  -27.1670  -53.2871 H         1 UNK         0.0600 
    218 H218       -1.9423  -27.9781  -53.2339 H         1 UNK         0.0600 
    219 H219       -1.2955  -27.2169  -51.7812 H         1 UNK         0.0600 
    220 H220       -2.9642  -23.7576  -51.8837 H         1 UNK         0.3000 
    221 H221       -0.5089  -22.8836  -50.7472 H         1 UNK         0.0600 
    222 H222       -3.1816  -21.4076  -50.9769 H         1 UNK         0.0600 
    223 H223       -2.7732  -22.5798  -49.7323 H         1 UNK         0.0600 
    224 H224       -1.8910  -21.0670  -49.8235 H         1 UNK         0.0600 
    225 H225       -2.2501  -21.8074  -53.6600 H         1 UNK         0.3000 
    226 H226        0.0926  -20.2240  -54.4978 H         1 UNK         0.0600 
    227 H227       -1.5613  -18.6135  -53.4301 H         1 UNK         0.0600 
    228 H228       -1.3920  -18.3324  -55.1528 H         1 UNK         0.0600 
    229 H229       -2.8036  -19.1858  -54.5369 H         1 UNK         0.0600 
    230 H230       -0.5057  -19.4807  -56.8932 H         1 UNK         0.3000 
    231 H231       -0.9181  -21.8557  -58.4728 H         1 UNK         0.0600 
    232 H232       -0.6165  -20.2712  -60.3762 H         1 UNK         0.0600 
    233 H233        0.6318  -20.0403  -59.1629 H         1 UNK         0.0600 
    234 H234       -0.7119  -18.9022  -59.2753 H         1 UNK         0.0600 
    235 H235       -3.0243  -19.3487  -57.2850 H         1 UNK         0.3000 
    236 H236       -5.3044  -20.2293  -59.0105 H         1 UNK         0.0600 
    237 H237       -4.8338  -17.6146  -57.4774 H         1 UNK         0.0600 
    238 H238       -4.8562  -17.8359  -59.2217 H         1 UNK         0.0600 
    239 H239       -6.3314  -18.0520  -58.2949 H         1 UNK         0.0600 
    240 H240       -5.0415  -18.7897  -55.7240 H         1 UNK         0.3000 
    241 H241       -7.1841  -20.4874  -54.7869 H         1 UNK         0.0600 
    242 H242       -5.6421  -22.3774  -52.1016 H         1 UNK         0.3800 
    243 H243       -7.0784  -21.4447  -52.4460 H         1 UNK         0.3800 
    244 H244       -7.2093  -19.0729  -52.8074 H         1 UNK         0.0800 
    245 H245       -7.1853  -18.1085  -54.2414 H         1 UNK         0.0800 
    246 H246       -6.1276  -18.1161  -50.8620 H         1 UNK         0.0800 
    247 H247       -5.0110  -19.4120  -51.2138 H         1 UNK         0.0800 
@<TRIPOS>BOND
     1    1    2 1    
     2    1  127 1    
     3    1  128 1    
     4    1  129 1    
     5    2    3 2    
     6    2    4 am   BACKBONE|DICT|INTERRES
     7    4    5 1    
     8    4  130 1    
     9    5    6 1    
    10    5   65 1    
    11    5  131 1    
    12    6    7 1    
    13    6  132 1    
    14    6  133 1    
    15    7    8 1    
    16    8    9 1    
    17    8  134 1    
    18    8  135 1    
    19    9   10 ar   
    20    9   14 ar   
    21   10   11 ar   
    22   10  136 1    
    23   11   12 ar   
    24   11  126 1    
    25   12   13 ar   
    26   12  137 1    
    27   13   14 ar   
    28   13   15 1    
    29   14  138 1    
    30   15   16 1    
    31   15  139 1    
    32   15  140 1    
    33   16   17 1    
    34   17   18 1    
    35   17  141 1    
    36   17  142 1    
    37   18   19 1    
    38   18   67 1    
    39   18  143 1    
    40   19   20 am   BACKBONE|DICT|INTERRES
    41   19  144 1    
    42   20   21 2    
    43   20   22 1    
    44   22   23 1    
    45   22   24 1    
    46   22  145 1    
    47   23  146 1    
    48   23  147 1    
    49   23  148 1    
    50   24   25 am   BACKBONE|DICT|INTERRES
    51   24  149 1    
    52   25   26 2    
    53   25   27 1    
    54   27   28 1    
    55   27   29 1    
    56   27  150 1    
    57   28  151 1    
    58   28  152 1    
    59   28  153 1    
    60   29   30 am   BACKBONE|DICT|INTERRES
    61   29  154 1    
    62   30   31 2    
    63   30   32 1    
    64   32   33 1    
    65   32   34 1    
    66   32  155 1    
    67   33  156 1    
    68   33  157 1    
    69   33  158 1    
    70   34   35 am   BACKBONE|DICT|INTERRES
    71   34  159 1    
    72   35   36 2    
    73   35   37 1    
    74   37   38 1    
    75   37   39 1    
    76   37  160 1    
    77   38  161 1    
    78   38  162 1    
    79   38  163 1    
    80   39   40 am   BACKBONE|DICT|INTERRES
    81   39  164 1    
    82   40   41 2    
    83   40   42 1    
    84   42   43 1    
    85   42   44 1    
    86   42  165 1    
    87   43  166 1    
    88   43  167 1    
    89   43  168 1    
    90   44   45 am   BACKBONE|DICT|INTERRES
    91   44  169 1    
    92   45   46 2    
    93   45   47 1    
    94   47   48 1    
    95   47   49 1    
    96   47  170 1    
    97   48  171 1    
    98   48  172 1    
    99   48  173 1    
   100   49   50 am   BACKBONE|DICT|INTERRES
   101   49  174 1    
   102   50   51 2    
   103   50   52 1    
   104   52   53 1    
   105   52   54 1    
   106   52  175 1    
   107   53  176 1    
   108   53  177 1    
   109   53  178 1    
   110   54   55 am   BACKBONE|DICT|INTERRES
   111   54  179 1    
   112   55   56 2    
   113   55   57 1    
   114   57   58 1    
   115   57   59 1    
   116   57  180 1    
   117   58  181 1    
   118   58  182 1    
   119   58  183 1    
   120   59   60 am   BACKBONE|DICT|INTERRES
   121   59  184 1    
   122   60   61 2    
   123   60   62 1    
   124   62   63 1    
   125   62   64 1    
   126   62  185 1    
   127   63  186 1    
   128   63  187 1    
   129   63  188 1    
   130   64   65 am   BACKBONE|DICT|INTERRES
   131   64  189 1    
   132   65   66 2    
   133   67   68 2    
   134   67   69 am   BACKBONE|DICT|INTERRES
   135   69   70 1    
   136   69  190 1    
   137   70   71 1    
   138   70   72 1    
   139   70  191 1    
   140   71  192 1    
   141   71  193 1    
   142   71  194 1    
   143   72   73 2    
   144   72   74 am   BACKBONE|DICT|INTERRES
   145   74   75 1    
   146   74  195 1    
   147   75   76 1    
   148   75   77 1    
   149   75  196 1    
   150   76  197 1    
   151   76  198 1    
   152   76  199 1    
   153   77   78 2    
   154   77   79 am   BACKBONE|DICT|INTERRES
   155   79   80 1    
   156   79  200 1    
   157   80   81 1    
   158   80   82 1    
   159   80  201 1    
   160   81  202 1    
   161   81  203 1    
   162   81  204 1    
   163   82   83 2    
   164   82   84 am   BACKBONE|DICT|INTERRES
   165   84   85 1    
   166   84  205 1    
   167   85   86 1    
   168   85   87 1    
   169   85  206 1    
   170   86  207 1    
   171   86  208 1    
   172   86  209 1    
   173   87   88 2    
   174   87   89 am   BACKBONE|DICT|INTERRES
   175   89   90 1    
   176   89  210 1    
   177   90   91 1    
   178   90   92 1    
   179   90  211 1    
   180   91  212 1    
   181   91  213 1    
   182   91  214 1    
   183   92   93 2    
   184   92   94 am   BACKBONE|DICT|INTERRES
   185   94   95 1    
   186   94  215 1    
   187   95   96 1    
   188   95   97 1    
   189   95  216 1    
   190   96  217 1    
   191   96  218 1    
   192   96  219 1    
   193   97   98 2    
   194   97   99 am   BACKBONE|DICT|INTERRES
   195   99  100 1    
   196   99  220 1    
   197  100  101 1    
   198  100  102 1    
   199  100  221 1    
   200  101  222 1    
   201  101  223 1    
   202  101  224 1    
   203  102  103 2    
   204  102  104 am   BACKBONE|DICT|INTERRES
   205  104  105 1    
   206  104  225 1    
   207  105  106 1    
   208  105  107 1    
   209  105  226 1    
   210  106  227 1    
   211  106  228 1    
   212  106  229 1    
   213  107  108 2    
   214  107  109 am   BACKBONE|DICT|INTERRES
   215  109  110 1    
   216  109  230 1    
   217  110  111 1    
   218  110  112 1    
   219  110  231 1    
   220  111  232 1    
   221  111  233 1    
   222  111  234 1    
   223  112  113 2    
   224  112  114 am   BACKBONE|DICT|INTERRES
   225  114  115 1    
   226  114  235 1    
   227  115  116 1    
   228  115  117 1    
   229  115  236 1    
   230  116  237 1    
   231  116  238 1    
   232  116  239 1    
   233  117  118 2    
   234  117  119 am   BACKBONE|DICT|INTERRES
   235  119  120 1    
   236  119  240 1    
   237  120  121 1    
   238  120  124 1    
   239  120  241 1    
   240  121  122 am   BACKBONE|DICT|INTERRES
   241  121  123 2    
   242  122  242 1    
   243  122  243 1    
   244  124  125 1    
   245  124  244 1    
   246  124  245 1    
   247  125  126 1    
   248  126  246 1    
   249  126  247 1    
@<TRIPOS>SUBSTRUCTURE
     1 UNK         1 GROUP             0       ****    0 ROOT    
