@<TRIPOS>MOLECULE
3R540
247   249    1
SMALL
USER_CHARGES


@<TRIPOS>ATOM
      1 CA         -0.4712  -12.2223  -46.7924 C.3       0 UNK        -0.1800 
      2 C           0.7701  -11.5943  -47.4083 C.2       0 UNK         0.5000 
      3 O           0.7773  -10.3922  -47.6746 O.2       0 UNK        -0.5000 
      4 N           1.8204  -12.3973  -47.6203 N.am      1 UNK        -0.5000 
      5 CA          3.1137  -11.9995  -48.1915 C.3       1 UNK         0.1400 
      6 C6          4.0147  -13.2247  -48.4850 C.3       23 UNK        -0.0398 
      7 S7          3.2836  -14.3592  -49.7110 S.3       23 UNK        -0.2404 
      8 C8          2.6627  -15.6819  -48.6282 C.3       23 UNK        -0.0205 
      9 C9          2.0229  -16.7962  -49.4380 C.ar      23 UNK        -0.0193 
     10 C10         0.7321  -16.6423  -49.9520 C.ar      23 UNK        -0.1150 
     11 C11         0.1285  -17.6737  -50.6774 C.ar      23 UNK        -0.0193 
     12 C12         0.8331  -18.8609  -50.8937 C.ar      23 UNK        -0.1150 
     13 C13         2.1221  -19.0309  -50.3789 C.ar      23 UNK        -0.0193 
     14 C14         2.7123  -17.9916  -49.6550 C.ar      23 UNK        -0.1150 
     15 C15         2.8770  -20.3397  -50.5830 C.3       23 UNK        -0.0205 
     16 S16         1.9082  -21.8126  -50.1137 S.3       23 UNK        -0.2404 
     17 C17         1.3250  -21.3485  -48.4467 C.3       23 UNK        -0.0398 
     18 CA          0.6798  -22.5172  -47.6693 C.3       11 UNK         0.1400 
     19 N           0.4641  -22.1618  -46.2659 N.am      11 UNK        -0.5000 
     20 C           0.0901  -23.0187  -45.3066 C.2       10 UNK         0.5000 
     21 O          -0.0716  -24.2249  -45.4898 O.2       10 UNK        -0.5000 
     22 CA         -0.1985  -22.4180  -43.9199 C.3       10 UNK         0.1400 
     23 CB          1.1077  -22.1563  -43.1557 C.3       10 UNK        -0.1800 
     24 N          -0.9862  -21.1860  -43.9945 N.am      10 UNK        -0.5000 
     25 C          -2.2351  -21.1166  -44.4784 C.2       9 UNK         0.5000 
     26 O          -2.8676  -22.0936  -44.8775 O.2       9 UNK        -0.5000 
     27 CA         -2.8732  -19.7202  -44.5743 C.3       9 UNK         0.1400 
     28 CB         -3.3961  -19.2642  -43.2042 C.3       9 UNK        -0.1800 
     29 N          -1.9600  -18.7143  -45.1162 N.am      9 UNK        -0.5000 
     30 C          -1.4315  -18.7460  -46.3479 C.2       8 UNK         0.5000 
     31 O          -1.6780  -19.6195  -47.1782 O.2       8 UNK        -0.5000 
     32 CA         -0.4120  -17.6476  -46.6930 C.3       8 UNK         0.1400 
     33 CB         -1.1154  -16.3231  -47.0247 C.3       8 UNK        -0.1800 
     34 N           0.5663  -17.4391  -45.6263 N.am      8 UNK        -0.5000 
     35 C           1.4326  -18.3735  -45.2076 C.2       7 UNK         0.5000 
     36 O           1.5383  -19.4913  -45.7127 O.2       7 UNK        -0.5000 
     37 CA          2.2813  -18.0164  -43.9777 C.3       7 UNK         0.1400 
     38 CB          3.4960  -17.1649  -44.3783 C.3       7 UNK        -0.1800 
     39 N           1.4907  -17.3195  -42.9616 N.am      7 UNK        -0.5000 
     40 C           0.5227  -17.8996  -42.2357 C.2       6 UNK         0.5000 
     41 O           0.2232  -19.0897  -42.3245 O.2       6 UNK        -0.5000 
     42 CA         -0.2731  -16.9907  -41.2808 C.3       6 UNK         0.1400 
     43 CB          0.4663  -16.8308  -39.9443 C.3       6 UNK        -0.1800 
     44 N          -0.5394  -15.6690  -41.8490 N.am      6 UNK        -0.5000 
     45 C          -1.3090  -15.4435  -42.9235 C.2       5 UNK         0.5000 
     46 O          -1.9183  -16.3271  -43.5235 O.2       5 UNK        -0.5000 
     47 CA         -1.3638  -13.9969  -43.4475 C.3       5 UNK         0.1400 
     48 CB         -2.5223  -13.2262  -42.7995 C.3       5 UNK        -0.1800 
     49 N          -0.1155  -13.2610  -43.2355 N.am      5 UNK        -0.5000 
     50 C           1.0695  -13.5836  -43.7673 C.2       4 UNK         0.5000 
     51 O           1.2285  -14.5367  -44.5342 O.2       4 UNK        -0.5000 
     52 CA          2.2543  -12.6758  -43.3785 C.3       4 UNK         0.1400 
     53 CB          3.6080  -13.2915  -43.7707 C.3       4 UNK        -0.1800 
     54 N           2.1180  -11.3414  -43.9724 N.am      4 UNK        -0.5000 
     55 C           1.2856  -10.3885  -43.5209 C.2       3 UNK         0.5000 
     56 O           0.6046  -10.5315  -42.5033 O.2       3 UNK        -0.5000 
     57 CA          1.1220   -9.0956  -44.3494 C.3       3 UNK         0.1400 
     58 CB          1.0154   -7.8326  -43.4689 C.3       3 UNK        -0.1800 
     59 N           2.1012   -8.9326  -45.4282 N.am      3 UNK        -0.5000 
     60 C           3.4000   -8.6077  -45.3361 C.2       2 UNK         0.5000 
     61 O           3.9767   -8.3529  -44.2780 O.2       2 UNK        -0.5000 
     62 CA          4.1781   -8.6074  -46.6738 C.3       2 UNK         0.1400 
     63 CB          5.7100   -8.5820  -46.4872 C.3       2 UNK        -0.1800 
     64 N           3.7726   -9.7172  -47.5494 N.am      2 UNK        -0.5000 
     65 C           3.8235  -11.0204  -47.2380 C.2       1 UNK         0.5000 
     66 O           4.3282  -11.4534  -46.2032 O.2       1 UNK        -0.5000 
     67 C          -0.6201  -23.0217  -48.3345 C.2       11 UNK         0.5000 
     68 O          -0.5986  -24.0654  -48.9865 O.2       11 UNK        -0.5000 
     69 N          -1.7363  -22.3099  -48.1186 N.am      12 UNK        -0.5000 
     70 CA         -3.0650  -22.6887  -48.6003 C.3       12 UNK         0.1400 
     71 CB         -4.0705  -21.5716  -48.2892 C.3       12 UNK        -0.1800 
     72 C          -3.5469  -24.0339  -48.0303 C.2       12 UNK         0.5000 
     73 O          -4.0757  -24.8505  -48.7846 O.2       12 UNK        -0.5000 
     74 N          -3.3224  -24.2583  -46.7277 N.am      13 UNK        -0.5000 
     75 CA         -3.6069  -25.5151  -46.0350 C.3       13 UNK         0.1400 
     76 CB         -3.4098  -25.3351  -44.5227 C.3       13 UNK        -0.1800 
     77 C          -2.7614  -26.6862  -46.5656 C.2       13 UNK         0.5000 
     78 O          -3.3141  -27.7542  -46.8312 O.2       13 UNK        -0.5000 
     79 N          -1.4551  -26.4536  -46.7655 N.am      14 UNK        -0.5000 
     80 CA         -0.5140  -27.4099  -47.3596 C.3       14 UNK         0.1400 
     81 CB          0.9143  -26.8531  -47.2658 C.3       14 UNK        -0.1800 
     82 C          -0.8611  -27.7801  -48.8157 C.2       14 UNK         0.5000 
     83 O          -0.6276  -28.9163  -49.2276 O.2       14 UNK        -0.5000 
     84 N          -1.4688  -26.8360  -49.5451 N.am      15 UNK        -0.5000 
     85 CA         -2.0334  -27.0066  -50.8847 C.3       15 UNK         0.1400 
     86 CB         -2.0173  -25.6442  -51.5986 C.3       15 UNK        -0.1800 
     87 C          -3.4433  -27.6470  -50.8849 C.2       15 UNK         0.5000 
     88 O          -4.1386  -27.5664  -51.8981 O.2       15 UNK        -0.5000 
     89 N          -3.8350  -28.2812  -49.7687 N.am      16 UNK        -0.5000 
     90 CA         -5.0883  -29.0033  -49.5304 C.3       16 UNK         0.1400 
     91 CB         -5.2530  -30.1876  -50.5071 C.3       16 UNK        -0.1800 
     92 C          -6.3118  -28.0686  -49.4792 C.2       16 UNK         0.5000 
     93 O          -7.3451  -28.3631  -50.0829 O.2       16 UNK        -0.5000 
     94 N          -6.1608  -26.9632  -48.7354 N.am      17 UNK        -0.5000 
     95 CA         -7.1418  -25.8965  -48.5087 C.3       17 UNK         0.1400 
     96 CB         -8.3736  -26.4239  -47.7430 C.3       17 UNK        -0.1800 
     97 C          -7.4958  -25.1569  -49.8133 C.2       17 UNK         0.5000 
     98 O          -8.6712  -25.0205  -50.1602 O.2       17 UNK        -0.5000 
     99 N          -6.4519  -24.7110  -50.5231 N.am      18 UNK        -0.5000 
    100 CA        -6.5511  -23.9494  -51.7667 C.3       18 UNK         0.1400 
    101 CB        -5.1559  -23.8356  -52.3962 C.3       18 UNK        -0.1800 
    102 C         -7.1504  -22.5494  -51.5413 C.2       18 UNK         0.5000 
    103 O         -6.9026  -21.9306  -50.5035 O.2       18 UNK        -0.5000 
    104 N         -7.8920  -22.0514  -52.5371 N.am      19 UNK        -0.5000 
    105 CA        -8.5635  -20.7494  -52.5259 C.3       19 UNK         0.1400 
    106 CB        -9.7445  -20.7995  -53.5127 C.3       19 UNK        -0.1800 
    107 C         -7.5897  -19.5870  -52.8190 C.2       19 UNK         0.5000 
    108 O         -7.7725  -18.8606  -53.7976 O.2       19 UNK        -0.5000 
    109 N         -6.5625  -19.4505  -51.9671 N.am      20 UNK        -0.5000 
    110 CA        -5.4887  -18.4498  -52.0125 C.3       20 UNK         0.1400 
    111 CB        -6.0375  -17.0456  -51.6868 C.3       20 UNK        -0.1800 
    112 C         -4.6876  -18.4948  -53.3311 C.2       20 UNK         0.5000 
    113 O         -4.4372  -17.4596  -53.9520 O.2       20 UNK        -0.5000 
    114 N         -4.3016  -19.7106  -53.7400 N.am      21 UNK        -0.5000 
    115 CA        -3.5258  -19.9967  -54.9484 C.3       21 UNK         0.1400 
    116 CB        -3.7749  -21.4604  -55.3553 C.3       21 UNK        -0.1800 
    117 C         -2.0281  -19.6803  -54.7484 C.2       21 UNK         0.5000 
    118 O         -1.1910  -20.5844  -54.7782 O.2       21 UNK        -0.5000 
    119 N         -1.7270  -18.4022  -54.4977 N.am      22 UNK        -0.5000 
    120 CA        -0.3774  -17.8772  -54.2527 C.3       22 UNK         0.1400 
    121 C          0.5497  -17.9648  -55.4977 C.2       22 UNK         0.5000 
    122 N          1.8472  -18.1556  -55.2994 N.am      22 UNK        -0.7600 
    123 O          0.1131  -17.8169  -56.6374 O.2       22 UNK        -0.5000 
    124 C124       -0.4128  -16.4237  -53.7095 C.3       23 UNK        -0.0398 
    125 S125       -1.5292  -16.1007  -52.2936 S.3       23 UNK        -0.2404 
    126 C126       -1.2995  -17.5313  -51.1863 C.3       23 UNK        -0.0205 
    127 H127       -1.3176  -12.1256  -47.4720 H         1 UNK         0.0600 
    128 H128       -0.7228  -11.7205  -45.8582 H         1 UNK         0.0600 
    129 H129       -0.3245  -13.2806  -46.5805 H         1 UNK         0.0600 
    130 H130        1.7557  -13.3645  -47.3424 H         1 UNK         0.3000 
    131 H131        2.9215  -11.4861  -49.1361 H         1 UNK         0.0600 
    132 H132        4.9766  -12.8961  -48.8828 H         1 UNK         0.0800 
    133 H133        4.2415  -13.7731  -47.5686 H         1 UNK         0.0800 
    134 H134        1.9337  -15.2783  -47.9258 H         1 UNK         0.0800 
    135 H135        3.4837  -16.0749  -48.0261 H         1 UNK         0.0800 
    136 H136        0.1925  -15.7217  -49.7798 H         1 UNK         0.1150 
    137 H137        0.3698  -19.6702  -51.4406 H         1 UNK         0.1150 
    138 H138        3.7076  -18.1150  -49.2517 H         1 UNK         0.1150 
    139 H139        3.1620  -20.4234  -51.6324 H         1 UNK         0.0800 
    140 H140        3.8054  -20.3420  -50.0098 H         1 UNK         0.0800 
    141 H141        0.6270  -20.5134  -48.5246 H         1 UNK         0.0800 
    142 H142        2.1860  -20.9719  -47.8926 H         1 UNK         0.0800 
    143 H143        1.3882  -23.3483  -47.6751 H         1 UNK         0.0600 
    144 H144        0.6101  -21.1866  -46.0207 H         1 UNK         0.3000 
    145 H145       -0.7796  -23.1508  -43.3562 H         1 UNK         0.0600 
    146 H146        0.9073  -21.8203  -42.1383 H         1 UNK         0.0600 
    147 H147        1.7086  -23.0638  -43.0859 H         1 UNK         0.0600 
    148 H148        1.7159  -21.3950  -43.6450 H         1 UNK         0.0600 
    149 H149       -0.5466  -20.3428  -43.6378 H         1 UNK         0.3000 
    150 H150       -3.7249  -19.7917  -45.2536 H         1 UNK         0.0600 
    151 H151       -4.0919  -19.9941  -42.7887 H         1 UNK         0.0600 
    152 H152       -3.9278  -18.3157  -43.2816 H         1 UNK         0.0600 
    153 H153       -2.5861  -19.1355  -42.4860 H         1 UNK         0.0600 
    154 H154       -1.7446  -17.9265  -44.5104 H         1 UNK         0.3000 
    155 H155        0.1332  -17.9802  -47.5773 H         1 UNK         0.0600 
    156 H156       -1.8075  -16.4496  -47.8579 H         1 UNK         0.0600 
    157 H157       -0.3971  -15.5576  -47.3133 H         1 UNK         0.0600 
    158 H158       -1.6875  -15.9429  -46.1790 H         1 UNK         0.0600 
    159 H159        0.5619  -16.5394  -45.1609 H         1 UNK         0.3000 
    160 H160        2.6502  -18.9474  -43.5421 H         1 UNK         0.0600 
    161 H161        3.2013  -16.2336  -44.8616 H         1 UNK         0.0600 
    162 H162        4.1319  -17.7060  -45.0800 H         1 UNK         0.0600 
    163 H163        4.1078  -16.9156  -43.5113 H         1 UNK         0.0600 
    164 H164        1.6369  -16.3246  -42.8761 H         1 UNK         0.3000 
    165 H165       -1.2327  -17.4733  -41.0846 H         1 UNK         0.0600 
    166 H166       -0.1251  -16.2536  -39.2332 H         1 UNK         0.0600 
    167 H167        0.6622  -17.8025  -39.4888 H         1 UNK         0.0600 
    168 H168        1.4258  -16.3278  -40.0704 H         1 UNK         0.0600 
    169 H169       -0.0805  -14.8824  -41.4143 H         1 UNK         0.3000 
    170 H170       -1.5458  -14.0451  -44.5225 H         1 UNK         0.0600 
    171 H171       -3.4713  -13.7398  -42.9601 H         1 UNK         0.0600 
    172 H172       -2.3833  -13.1201  -41.7229 H         1 UNK         0.0600 
    173 H173       -2.6177  -12.2274  -43.2259 H         1 UNK         0.0600 
    174 H174       -0.1633  -12.4235  -42.6645 H         1 UNK         0.3000 
    175 H175        2.2503  -12.5753  -42.2911 H         1 UNK         0.0600 
    176 H176        3.6558  -13.5283  -44.8338 H         1 UNK         0.0600 
    177 H177        4.4330  -12.6179  -43.5384 H         1 UNK         0.0600 
    178 H178        3.7827  -14.2195  -43.2256 H         1 UNK         0.0600 
    179 H179        2.6745  -11.1630  -44.7992 H         1 UNK         0.3000 
    180 H180        0.1630   -9.2058  -44.8576 H         1 UNK         0.0600 
    181 H181        1.8920   -7.7020  -42.8342 H         1 UNK         0.0600 
    182 H182        0.1477   -7.8887  -42.8107 H         1 UNK         0.0600 
    183 H183        0.9011   -6.9349  -44.0764 H         1 UNK         0.0600 
    184 H184        1.7467   -9.1708  -46.3499 H         1 UNK         0.3000 
    185 H185        3.8948   -7.6883  -47.1888 H         1 UNK         0.0600 
    186 H186        6.0221   -7.6857  -45.9500 H         1 UNK         0.0600 
    187 H187        6.0663   -9.4420  -45.9197 H         1 UNK         0.0600 
    188 H188        6.2238   -8.5783  -47.4484 H         1 UNK         0.0600 
    189 H189        3.2947   -9.4478  -48.3989 H         1 UNK         0.3000 
    190 H190       -1.6755  -21.4346  -47.6031 H         1 UNK         0.3000 
    191 H191       -3.0044  -22.7952  -49.6849 H         1 UNK         0.0600 
    192 H192       -4.1180  -21.3578  -47.2216 H         1 UNK         0.0600 
    193 H193       -5.0743  -21.8483  -48.6109 H         1 UNK         0.0600 
    194 H194       -3.8053  -20.6481  -48.8041 H         1 UNK         0.0600 
    195 H195       -2.9335  -23.5078  -46.1623 H         1 UNK         0.3000 
    196 H196       -4.6568  -25.7590  -46.2086 H         1 UNK         0.0600 
    197 H197       -3.6296  -26.2592  -43.9868 H         1 UNK         0.0600 
    198 H198       -4.0736  -24.5651  -44.1291 H         1 UNK         0.0600 
    199 H199       -2.3866  -25.0488  -44.2793 H         1 UNK         0.0600 
    200 H200       -1.0685  -25.5561  -46.4846 H         1 UNK         0.3000 
    201 H201       -0.5598  -28.3272  -46.7692 H         1 UNK         0.0600 
    202 H202        1.1964  -26.6644  -46.2299 H         1 UNK         0.0600 
    203 H203        1.0189  -25.9181  -47.8163 H         1 UNK         0.0600 
    204 H204        1.6372  -27.5590  -47.6764 H         1 UNK         0.0600 
    205 H205       -1.5594  -25.9098  -49.1411 H         1 UNK         0.3000 
    206 H206       -1.3863  -27.6810  -51.4487 H         1 UNK         0.0600 
    207 H207       -1.0096  -25.2296  -51.6312 H         1 UNK         0.0600 
    208 H208       -2.3631  -25.7300  -52.6292 H         1 UNK         0.0600 
    209 H209       -2.6559  -24.9213  -51.0925 H         1 UNK         0.0600 
    210 H210       -3.2140  -28.2422  -48.9702 H         1 UNK         0.3000 
    211 H211       -4.9984  -29.4272  -48.5292 H         1 UNK         0.0600 
    212 H212       -5.4186  -29.8537  -51.5315 H         1 UNK         0.0600 
    213 H213       -6.1061  -30.8062  -50.2263 H         1 UNK         0.0600 
    214 H214       -4.3720  -30.8294  -50.5007 H         1 UNK         0.0600 
    215 H215       -5.2375  -26.7804  -48.3640 H         1 UNK         0.3000 
    216 H216       -6.6552  -25.1619  -47.8656 H         1 UNK         0.0600 
    217 H217       -9.0430  -25.6057  -47.4753 H         1 UNK         0.0600 
    218 H218       -8.0794  -26.9183  -46.8172 H         1 UNK         0.0600 
    219 H219       -8.9506  -27.1350  -48.3346 H         1 UNK         0.0600 
    220 H220       -5.5240  -24.8387  -50.1318 H         1 UNK         0.3000 
    221 H221       -7.1978  -24.5037  -52.4501 H         1 UNK         0.0600 
    222 H222       -4.4620  -23.3009  -51.7466 H         1 UNK         0.0600 
    223 H223       -4.7383  -24.8213  -52.6004 H         1 UNK         0.0600 
    224 H224       -5.1998  -23.3017  -53.3456 H         1 UNK         0.0600 
    225 H225       -8.0147  -22.6021  -53.3747 H         1 UNK         0.3000 
    226 H226       -8.9770  -20.5762  -51.5299 H         1 UNK         0.0600 
    227 H227      -10.4474  -21.5891  -53.2460 H         1 UNK         0.0600 
    228 H228      -10.2990  -19.8602  -53.5083 H         1 UNK         0.0600 
    229 H229       -9.4094  -20.9798  -54.5349 H         1 UNK         0.0600 
    230 H230       -6.5048  -20.1341  -51.2172 H         1 UNK         0.3000 
    231 H231       -4.7856  -18.7163  -51.2219 H         1 UNK         0.0600 
    232 H232       -6.5662  -17.0405  -50.7337 H         1 UNK         0.0600 
    233 H233       -6.7257  -16.6905  -52.4544 H         1 UNK         0.0600 
    234 H234       -5.2276  -16.3186  -51.6119 H         1 UNK         0.0600 
    235 H235       -4.5387  -20.5046  -53.1650 H         1 UNK         0.3000 
    236 H236       -3.8885  -19.3617  -55.7596 H         1 UNK         0.0600 
    237 H237       -3.2555  -21.7000  -56.2839 H         1 UNK         0.0600 
    238 H238       -3.4221  -22.1568  -54.5937 H         1 UNK         0.0600 
    239 H239       -4.8359  -21.6499  -55.5198 H         1 UNK         0.0600 
    240 H240       -2.4884  -17.7336  -54.4492 H         1 UNK         0.3000 
    241 H241        0.0683  -18.5151  -53.4915 H         1 UNK         0.0600 
    242 H242        2.4619  -18.1987  -56.0976 H         1 UNK         0.3800 
    243 H243        2.2324  -18.2678  -54.3745 H         1 UNK         0.3800 
    244 H244        0.5905  -16.1192  -53.4061 H         1 UNK         0.0800 
    245 H245       -0.7046  -15.7363  -54.5055 H         1 UNK         0.0800 
    246 H246       -1.6317  -18.4401  -51.6891 H         1 UNK         0.0800 
    247 H247       -1.9596  -17.4102  -50.3266 H         1 UNK         0.0800 
@<TRIPOS>BOND
     1    1    2 1    
     2    1  127 1    
     3    1  128 1    
     4    1  129 1    
     5    2    3 2    
     6    2    4 am   BACKBONE|DICT|INTERRES
     7    4    5 1    
     8    4  130 1    
     9    5    6 1    
    10    5   65 1    
    11    5  131 1    
    12    6    7 1    
    13    6  132 1    
    14    6  133 1    
    15    7    8 1    
    16    8    9 1    
    17    8  134 1    
    18    8  135 1    
    19    9   10 ar   
    20    9   14 ar   
    21   10   11 ar   
    22   10  136 1    
    23   11   12 ar   
    24   11  126 1    
    25   12   13 ar   
    26   12  137 1    
    27   13   14 ar   
    28   13   15 1    
    29   14  138 1    
    30   15   16 1    
    31   15  139 1    
    32   15  140 1    
    33   16   17 1    
    34   17   18 1    
    35   17  141 1    
    36   17  142 1    
    37   18   19 1    
    38   18   67 1    
    39   18  143 1    
    40   19   20 am   BACKBONE|DICT|INTERRES
    41   19  144 1    
    42   20   21 2    
    43   20   22 1    
    44   22   23 1    
    45   22   24 1    
    46   22  145 1    
    47   23  146 1    
    48   23  147 1    
    49   23  148 1    
    50   24   25 am   BACKBONE|DICT|INTERRES
    51   24  149 1    
    52   25   26 2    
    53   25   27 1    
    54   27   28 1    
    55   27   29 1    
    56   27  150 1    
    57   28  151 1    
    58   28  152 1    
    59   28  153 1    
    60   29   30 am   BACKBONE|DICT|INTERRES
    61   29  154 1    
    62   30   31 2    
    63   30   32 1    
    64   32   33 1    
    65   32   34 1    
    66   32  155 1    
    67   33  156 1    
    68   33  157 1    
    69   33  158 1    
    70   34   35 am   BACKBONE|DICT|INTERRES
    71   34  159 1    
    72   35   36 2    
    73   35   37 1    
    74   37   38 1    
    75   37   39 1    
    76   37  160 1    
    77   38  161 1    
    78   38  162 1    
    79   38  163 1    
    80   39   40 am   BACKBONE|DICT|INTERRES
    81   39  164 1    
    82   40   41 2    
    83   40   42 1    
    84   42   43 1    
    85   42   44 1    
    86   42  165 1    
    87   43  166 1    
    88   43  167 1    
    89   43  168 1    
    90   44   45 am   BACKBONE|DICT|INTERRES
    91   44  169 1    
    92   45   46 2    
    93   45   47 1    
    94   47   48 1    
    95   47   49 1    
    96   47  170 1    
    97   48  171 1    
    98   48  172 1    
    99   48  173 1    
   100   49   50 am   BACKBONE|DICT|INTERRES
   101   49  174 1    
   102   50   51 2    
   103   50   52 1    
   104   52   53 1    
   105   52   54 1    
   106   52  175 1    
   107   53  176 1    
   108   53  177 1    
   109   53  178 1    
   110   54   55 am   BACKBONE|DICT|INTERRES
   111   54  179 1    
   112   55   56 2    
   113   55   57 1    
   114   57   58 1    
   115   57   59 1    
   116   57  180 1    
   117   58  181 1    
   118   58  182 1    
   119   58  183 1    
   120   59   60 am   BACKBONE|DICT|INTERRES
   121   59  184 1    
   122   60   61 2    
   123   60   62 1    
   124   62   63 1    
   125   62   64 1    
   126   62  185 1    
   127   63  186 1    
   128   63  187 1    
   129   63  188 1    
   130   64   65 am   BACKBONE|DICT|INTERRES
   131   64  189 1    
   132   65   66 2    
   133   67   68 2    
   134   67   69 am   BACKBONE|DICT|INTERRES
   135   69   70 1    
   136   69  190 1    
   137   70   71 1    
   138   70   72 1    
   139   70  191 1    
   140   71  192 1    
   141   71  193 1    
   142   71  194 1    
   143   72   73 2    
   144   72   74 am   BACKBONE|DICT|INTERRES
   145   74   75 1    
   146   74  195 1    
   147   75   76 1    
   148   75   77 1    
   149   75  196 1    
   150   76  197 1    
   151   76  198 1    
   152   76  199 1    
   153   77   78 2    
   154   77   79 am   BACKBONE|DICT|INTERRES
   155   79   80 1    
   156   79  200 1    
   157   80   81 1    
   158   80   82 1    
   159   80  201 1    
   160   81  202 1    
   161   81  203 1    
   162   81  204 1    
   163   82   83 2    
   164   82   84 am   BACKBONE|DICT|INTERRES
   165   84   85 1    
   166   84  205 1    
   167   85   86 1    
   168   85   87 1    
   169   85  206 1    
   170   86  207 1    
   171   86  208 1    
   172   86  209 1    
   173   87   88 2    
   174   87   89 am   BACKBONE|DICT|INTERRES
   175   89   90 1    
   176   89  210 1    
   177   90   91 1    
   178   90   92 1    
   179   90  211 1    
   180   91  212 1    
   181   91  213 1    
   182   91  214 1    
   183   92   93 2    
   184   92   94 am   BACKBONE|DICT|INTERRES
   185   94   95 1    
   186   94  215 1    
   187   95   96 1    
   188   95   97 1    
   189   95  216 1    
   190   96  217 1    
   191   96  218 1    
   192   96  219 1    
   193   97   98 2    
   194   97   99 am   BACKBONE|DICT|INTERRES
   195   99  100 1    
   196   99  220 1    
   197  100  101 1    
   198  100  102 1    
   199  100  221 1    
   200  101  222 1    
   201  101  223 1    
   202  101  224 1    
   203  102  103 2    
   204  102  104 am   BACKBONE|DICT|INTERRES
   205  104  105 1    
   206  104  225 1    
   207  105  106 1    
   208  105  107 1    
   209  105  226 1    
   210  106  227 1    
   211  106  228 1    
   212  106  229 1    
   213  107  108 2    
   214  107  109 am   BACKBONE|DICT|INTERRES
   215  109  110 1    
   216  109  230 1    
   217  110  111 1    
   218  110  112 1    
   219  110  231 1    
   220  111  232 1    
   221  111  233 1    
   222  111  234 1    
   223  112  113 2    
   224  112  114 am   BACKBONE|DICT|INTERRES
   225  114  115 1    
   226  114  235 1    
   227  115  116 1    
   228  115  117 1    
   229  115  236 1    
   230  116  237 1    
   231  116  238 1    
   232  116  239 1    
   233  117  118 2    
   234  117  119 am   BACKBONE|DICT|INTERRES
   235  119  120 1    
   236  119  240 1    
   237  120  121 1    
   238  120  124 1    
   239  120  241 1    
   240  121  122 am   BACKBONE|DICT|INTERRES
   241  121  123 2    
   242  122  242 1    
   243  122  243 1    
   244  124  125 1    
   245  124  244 1    
   246  124  245 1    
   247  125  126 1    
   248  126  246 1    
   249  126  247 1    
@<TRIPOS>SUBSTRUCTURE
     1 UNK         1 GROUP             0       ****    0 ROOT    
