@<TRIPOS>MOLECULE
3R540
247   249    1
SMALL
USER_CHARGES


@<TRIPOS>ATOM
      1 CA          4.6040  -17.4798  -46.8095 C.3       0 UNK        -0.1800 
      2 C           3.7553  -16.2851  -47.2190 C.2       0 UNK         0.5000 
      3 O           3.2301  -15.5840  -46.3537 O.2       0 UNK        -0.5000 
      4 N           3.6268  -16.0536  -48.5333 N.am      1 UNK        -0.5000 
      5 CA          2.8492  -14.9725  -49.1484 C.3       1 UNK         0.1400 
      6 C6          2.9235  -15.0246  -50.6941 C.3       23 UNK        -0.0398 
      7 S7          1.5932  -14.0428  -51.4714 S.3       23 UNK        -0.2404 
      8 C8          0.7345  -15.2853  -52.4832 C.3       23 UNK        -0.0205 
      9 C9          0.0811  -16.3750  -51.6454 C.ar      23 UNK        -0.0193 
     10 C10        -1.0836  -16.1037  -50.9223 C.ar      23 UNK        -0.1150 
     11 C11        -1.7214  -17.1117  -50.1872 C.ar      23 UNK        -0.0193 
     12 C12        -1.1734  -18.3980  -50.1910 C.ar      23 UNK        -0.1150 
     13 C13        -0.0002  -18.6791  -50.8957 C.ar      23 UNK        -0.0193 
     14 C14         0.6186  -17.6643  -51.6270 C.ar      23 UNK        -0.1150 
     15 C15         0.5859  -20.0828  -50.8925 C.3       23 UNK        -0.0205 
     16 S16         1.9722  -20.2707  -49.7181 S.3       23 UNK        -0.2404 
     17 C17         1.1807  -20.0668  -48.0838 C.3       23 UNK        -0.0398 
     18 CA          0.6881  -21.3978  -47.4589 C.3       11 UNK         0.1400 
     19 N           0.5335  -21.3036  -46.0046 N.am      11 UNK        -0.5000 
     20 C           0.2088  -22.3230  -45.1951 C.2       10 UNK         0.5000 
     21 O           0.0894  -23.4882  -45.5733 O.2       10 UNK        -0.5000 
     22 CA         -0.0945  -21.9748  -43.7268 C.3       10 UNK         0.1400 
     23 CB          1.2010  -21.8586  -42.9106 C.3       10 UNK        -0.1800 
     24 N          -0.8851  -20.7491  -43.5934 N.am      10 UNK        -0.5000 
     25 C          -2.1352  -20.6016  -44.0566 C.2       9 UNK         0.5000 
     26 O          -2.7722  -21.5073  -44.5920 O.2       9 UNK        -0.5000 
     27 CA         -2.7673  -19.2017  -43.9512 C.3       9 UNK         0.1400 
     28 CB         -3.3271  -18.9582  -42.5424 C.3       9 UNK        -0.1800 
     29 N          -1.8364  -18.1316  -44.3124 N.am      9 UNK        -0.5000 
     30 C          -1.2955  -17.9781  -45.5305 C.2       8 UNK         0.5000 
     31 O          -1.5702  -18.6945  -46.4928 O.2       8 UNK        -0.5000 
     32 CA         -0.2194  -16.8872  -45.6836 C.3       8 UNK         0.1400 
     33 CB         -0.8520  -15.5005  -45.8641 C.3       8 UNK        -0.1800 
     34 N           0.7021  -16.8620  -44.5489 N.am      8 UNK        -0.5000 
     35 C           1.5308  -17.8649  -44.2278 C.2       7 UNK         0.5000 
     36 O           1.6418  -18.8969  -44.8886 O.2       7 UNK        -0.5000 
     37 CA          2.3203  -17.7203  -42.9164 C.3       7 UNK         0.1400 
     38 CB          3.5620  -16.8394  -43.1085 C.3       7 UNK        -0.1800 
     39 N           1.4898  -17.1835  -41.8379 N.am      7 UNK        -0.5000 
     40 C           0.4949  -17.8606  -41.2472 C.2       6 UNK         0.5000 
     41 O           0.1942  -19.0177  -41.5347 O.2       6 UNK        -0.5000 
     42 CA         -0.3208  -17.1124  -40.1773 C.3       6 UNK         0.1400 
     43 CB          0.3581  -17.2267  -38.8045 C.3       6 UNK        -0.1800 
     44 N          -0.5177  -15.7002  -40.5027 N.am      6 UNK        -0.5000 
     45 C          -1.2585  -15.2501  -41.5256 C.2       5 UNK         0.5000 
     46 O          -1.8881  -15.9798  -42.2907 O.2       5 UNK        -0.5000 
     47 CA         -1.2292  -13.7289  -41.7675 C.3       5 UNK         0.1400 
     48 CB         -2.2268  -13.0102  -40.8471 C.3       5 UNK        -0.1800 
     49 N           0.1110  -13.1613  -41.5811 N.am      5 UNK        -0.5000 
     50 C           1.1662  -13.4933  -42.3345 C.2       4 UNK         0.5000 
     51 O           1.1011  -14.2777  -43.2861 O.2       4 UNK        -0.5000 
     52 CA          2.5249  -12.9037  -41.9346 C.3       4 UNK         0.1400 
     53 CB          3.1063  -13.6635  -40.7256 C.3       4 UNK        -0.1800 
     54 N           3.3930  -13.0303  -43.0967 N.am      4 UNK        -0.5000 
     55 C           4.6226  -12.5381  -43.2719 C.2       3 UNK         0.5000 
     56 O           5.2487  -11.9104  -42.4173 O.2       3 UNK        -0.5000 
     57 CA          5.2350  -12.7608  -44.6670 C.3       3 UNK         0.1400 
     58 CB          5.9592  -14.1136  -44.7412 C.3       3 UNK        -0.1800 
     59 N           4.2164  -12.6945  -45.7188 N.am      3 UNK        -0.5000 
     60 C           3.6651  -11.5514  -46.1549 C.2       2 UNK         0.5000 
     61 O           4.0066  -10.4422  -45.7404 O.2       2 UNK        -0.5000 
     62 CA          2.5287  -11.6452  -47.1988 C.3       2 UNK         0.1400 
     63 CB          2.6163  -10.5292  -48.2611 C.3       2 UNK        -0.1800 
     64 N           2.3862  -12.9571  -47.8395 N.am      2 UNK        -0.5000 
     65 C           3.2777  -13.5869  -48.6178 C.2       1 UNK         0.5000 
     66 O           4.3939  -13.1450  -48.8989 O.2       1 UNK        -0.5000 
     67 C          -0.6139  -21.8861  -48.1232 C.2       11 UNK         0.5000 
     68 O          -0.5773  -22.8374  -48.9025 O.2       11 UNK        -0.5000 
     69 N          -1.7446  -21.2528  -47.7782 N.am      12 UNK        -0.5000 
     70 CA         -3.0703  -21.6050  -48.2832 C.3       12 UNK         0.1400 
     71 CB         -4.1032  -20.5675  -47.8224 C.3       12 UNK        -0.1800 
     72 C          -3.5047  -23.0295  -47.8980 C.2       12 UNK         0.5000 
     73 O          -4.0531  -23.7358  -48.7428 O.2       12 UNK        -0.5000 
     74 N          -3.2149  -23.4382  -46.6551 N.am      13 UNK        -0.5000 
     75 CA         -3.4521  -24.7872  -46.1418 C.3       13 UNK         0.1400 
     76 CB         -3.2027  -24.8179  -44.6267 C.3       13 UNK        -0.1800 
     77 C          -2.6053  -25.8533  -46.8594 C.2       13 UNK         0.5000 
     78 O          -3.1414  -26.8979  -47.2297 O.2       13 UNK        -0.5000 
     79 N          -1.3168  -25.5603  -47.0909 N.am      14 UNK        -0.5000 
     80 CA         -0.3987  -26.4047  -47.8636 C.3       14 UNK         0.1400 
     81 CB          1.0298  -25.8526  -47.7459 C.3       14 UNK        -0.1800 
     82 C          -0.8141  -26.5376  -49.3424 C.2       14 UNK         0.5000 
     83 O          -0.6570  -27.6075  -49.9308 O.2       14 UNK        -0.5000 
     84 N          -1.3867  -25.4607  -49.8931 N.am      15 UNK        -0.5000 
     85 CA         -1.9869  -25.3841  -51.2247 C.3       15 UNK         0.1400 
     86 CB         -1.9341  -23.9185  -51.6777 C.3       15 UNK        -0.1800 
     87 C          -3.4298  -25.9398  -51.2877 C.2       15 UNK         0.5000 
     88 O          -4.0887  -25.7945  -52.3226 O.2       15 UNK        -0.5000 
     89 N          -3.9083  -26.5339  -50.1812 N.am      16 UNK        -0.5000 
     90 CA         -5.2055  -27.1928  -49.9804 C.3       16 UNK         0.1400 
     91 CB         -5.2840  -28.4705  -50.8413 C.3       16 UNK        -0.1800 
     92 C          -6.4273  -26.2736  -50.1917 C.2       16 UNK         0.5000 
     93 O          -7.5210  -26.7695  -50.4667 O.2       16 UNK        -0.5000 
     94 N          -6.2114  -24.9517  -50.1052 N.am      17 UNK        -0.5000 
     95 CA         -7.1270  -23.8615  -50.4623 C.3       17 UNK         0.1400 
     96 CB         -8.3206  -23.8129  -49.4874 C.3       17 UNK        -0.1800 
     97 C          -7.5735  -23.8759  -51.9450 C.2       17 UNK         0.5000 
     98 O          -8.5362  -23.1912  -52.2943 O.2       17 UNK        -0.5000 
     99 N          -6.8745  -24.6483  -52.7882 N.am      18 UNK        -0.5000 
    100 CA        -7.2060  -24.8885  -54.1905 C.3       18 UNK         0.1400 
    101 CB        -7.2069  -26.4037  -54.4503 C.3       18 UNK        -0.1800 
    102 C         -6.2028  -24.1825  -55.1098 C.2       18 UNK         0.5000 
    103 O         -6.6144  -23.5096  -56.0551 O.2       18 UNK        -0.5000 
    104 N         -4.9074  -24.3231  -54.7983 N.am      19 UNK        -0.5000 
    105 CA        -3.8077  -23.6670  -55.5099 C.3       19 UNK         0.1400 
    106 CB        -2.6364  -24.6586  -55.6222 C.3       19 UNK        -0.1800 
    107 C         -3.3779  -22.3489  -54.8318 C.2       19 UNK         0.5000 
    108 O         -2.4375  -21.7064  -55.3007 O.2       19 UNK        -0.5000 
    109 N         -4.0488  -21.9823  -53.7294 N.am      20 UNK        -0.5000 
    110 CA        -3.8017  -20.7780  -52.9397 C.3       20 UNK         0.1400 
    111 CB        -4.6699  -20.8308  -51.6726 C.3       20 UNK        -0.1800 
    112 C         -4.0989  -19.5002  -53.7444 C.2       20 UNK         0.5000 
    113 O         -5.1353  -19.4240  -54.4082 O.2       20 UNK        -0.5000 
    114 N         -3.1956  -18.5186  -53.6535 N.am      21 UNK        -0.5000 
    115 CA        -3.2850  -17.2414  -54.3659 C.3       21 UNK         0.1400 
    116 CB        -1.8799  -16.8484  -54.8490 C.3       21 UNK        -0.1800 
    117 C         -3.9410  -16.1254  -53.5260 C.2       21 UNK         0.5000 
    118 O         -3.9783  -14.9783  -53.9739 O.2       21 UNK        -0.5000 
    119 N         -4.4613  -16.4654  -52.3413 N.am      22 UNK        -0.5000 
    120 CA        -5.2215  -15.5732  -51.4593 C.3       22 UNK         0.1400 
    121 C         -6.2738  -16.3441  -50.6146 C.2       22 UNK         0.5000 
    122 N         -7.1065  -15.6466  -49.8541 N.am      22 UNK        -0.7600 
    123 O         -6.3504  -17.5709  -50.6467 O.2       22 UNK        -0.5000 
    124 C124       -4.3187  -14.5880  -50.6572 C.3       23 UNK        -0.0398 
    125 S125       -3.5082  -15.1494  -49.1074 S.3       23 UNK        -0.2404 
    126 C126       -2.9988  -16.8850  -49.3778 C.3       23 UNK        -0.0205 
    127 H127        3.9963  -18.2008  -46.2634 H         1 UNK         0.0600 
    128 H128        5.0360  -17.9863  -47.6728 H         1 UNK         0.0600 
    129 H129        5.4184  -17.1563  -46.1616 H         1 UNK         0.0600 
    130 H130        4.1112  -16.6591  -49.1796 H         1 UNK         0.3000 
    131 H131        1.8112  -15.1528  -48.8587 H         1 UNK         0.0600 
    132 H132        2.8484  -16.0570  -51.0342 H         1 UNK         0.0800 
    133 H133        3.8884  -14.6688  -51.0601 H         1 UNK         0.0800 
    134 H134       -0.0317  -14.7810  -53.0737 H         1 UNK         0.0800 
    135 H135        1.4364  -15.7138  -53.2004 H         1 UNK         0.0800 
    136 H136       -1.4813  -15.1014  -50.9464 H         1 UNK         0.1150 
    137 H137       -1.6595  -19.1828  -49.6299 H         1 UNK         0.1150 
    138 H138        1.5172  -17.8829  -52.1867 H         1 UNK         0.1150 
    139 H139       -0.1891  -20.8209  -50.6889 H         1 UNK         0.0800 
    140 H140        0.9527  -20.3169  -51.8929 H         1 UNK         0.0800 
    141 H141        0.3899  -19.3196  -48.1313 H         1 UNK         0.0800 
    142 H142        1.9450  -19.6303  -47.4400 H         1 UNK         0.0800 
    143 H143        1.4511  -22.1588  -47.6360 H         1 UNK         0.0600 
    144 H144        0.6723  -20.3848  -45.5924 H         1 UNK         0.3000 
    145 H145       -0.6821  -22.7940  -43.3078 H         1 UNK         0.0600 
    146 H146        0.9873  -21.6926  -41.8547 H         1 UNK         0.0600 
    147 H147        1.7905  -22.7733  -42.9828 H         1 UNK         0.0600 
    148 H148        1.8267  -21.0370  -43.2584 H         1 UNK         0.0600 
    149 H149       -0.4461  -19.9762  -43.1021 H         1 UNK         0.3000 
    150 H150       -3.6012  -19.1630  -44.6549 H         1 UNK         0.0600 
    151 H151       -4.0440  -19.7332  -42.2685 H         1 UNK         0.0600 
    152 H152       -3.8453  -18.0010  -42.4844 H         1 UNK         0.0600 
    153 H153       -2.5397  -18.9590  -41.7893 H         1 UNK         0.0600 
    154 H154       -1.6006  -17.4669  -43.5821 H         1 UNK         0.3000 
    155 H155        0.3610  -17.1135  -46.5807 H         1 UNK         0.0600 
    156 H156       -1.4341  -15.2058  -44.9904 H         1 UNK         0.0600 
    157 H157       -1.5185  -15.4859  -46.7269 H         1 UNK         0.0600 
    158 H158       -0.0879  -14.7403  -46.0279 H         1 UNK         0.0600 
    159 H159        0.7140  -16.0154  -43.9872 H         1 UNK         0.3000 
    160 H160        2.6594  -18.7149  -42.6196 H         1 UNK         0.0600 
    161 H161        4.1329  -16.7485  -42.1846 H         1 UNK         0.0600 
    162 H162        3.2964  -15.8378  -43.4433 H         1 UNK         0.0600 
    163 H163        4.2270  -17.2671  -43.8586 H         1 UNK         0.0600 
    164 H164        1.6414  -16.2213  -41.5799 H         1 UNK         0.3000 
    165 H165       -1.3023  -17.5865  -40.1134 H         1 UNK         0.0600 
    166 H166       -0.2485  -16.7651  -38.0251 H         1 UNK         0.0600 
    167 H167        0.5016  -18.2718  -38.5266 H         1 UNK         0.0600 
    168 H168        1.3378  -16.7473  -38.7966 H         1 UNK         0.0600 
    169 H169       -0.0353  -15.0277  -39.9255 H         1 UNK         0.3000 
    170 H170       -1.5306  -13.5524  -42.8024 H         1 UNK         0.0600 
    171 H171       -3.2342  -13.4074  -40.9789 H         1 UNK         0.0600 
    172 H172       -1.9632  -13.1259  -39.7951 H         1 UNK         0.0600 
    173 H173       -2.2682  -11.9434  -41.0677 H         1 UNK         0.0600 
    174 H174        0.2291  -12.5113  -40.8171 H         1 UNK         0.3000 
    175 H175        2.4001  -11.8463  -41.6943 H         1 UNK         0.0600 
    176 H176        3.2830  -14.7140  -40.9559 H         1 UNK         0.0600 
    177 H177        4.0525  -13.2326  -40.3996 H         1 UNK         0.0600 
    178 H178        2.4296  -13.6231  -39.8714 H         1 UNK         0.0600 
    179 H179        2.9524  -13.5273  -43.8624 H         1 UNK         0.3000 
    180 H180        5.9719  -11.9737  -44.8411 H         1 UNK         0.0600 
    181 H181        5.2772  -14.9469  -44.5758 H         1 UNK         0.0600 
    182 H182        6.7443  -14.1776  -43.9869 H         1 UNK         0.0600 
    183 H183        6.4290  -14.2556  -45.7146 H         1 UNK         0.0600 
    184 H184        3.8767  -13.5765  -46.0873 H         1 UNK         0.3000 
    185 H185        1.6054  -11.4893  -46.6392 H         1 UNK         0.0600 
    186 H186        2.5547   -9.5424  -47.8010 H         1 UNK         0.0600 
    187 H187        3.5534  -10.5711  -48.8168 H         1 UNK         0.0600 
    188 H188        1.7980  -10.6015  -48.9777 H         1 UNK         0.0600 
    189 H189        1.5211  -13.4372  -47.6349 H         1 UNK         0.3000 
    190 H190       -1.6925  -20.4562  -47.1473 H         1 UNK         0.3000 
    191 H191       -3.0134  -21.5629  -49.3708 H         1 UNK         0.0600 
    192 H192       -4.1876  -20.5372  -46.7361 H         1 UNK         0.0600 
    193 H193       -5.0914  -20.7962  -48.2237 H         1 UNK         0.0600 
    194 H194       -3.8381  -19.5679  -48.1644 H         1 UNK         0.0600 
    195 H195       -2.8210  -22.7658  -46.0017 H         1 UNK         0.3000 
    196 H196       -4.5031  -25.0271  -46.3162 H         1 UNK         0.0600 
    197 H197       -2.1727  -24.5579  -44.3822 H         1 UNK         0.0600 
    198 H198       -3.3973  -25.8104  -44.2186 H         1 UNK         0.0600 
    199 H199       -3.8562  -24.1178  -44.1060 H         1 UNK         0.0600 
    200 H200       -0.9336  -24.6953  -46.7192 H         1 UNK         0.3000 
    201 H201       -0.4143  -27.4043  -47.4246 H         1 UNK         0.0600 
    202 H202        1.1053  -24.8407  -48.1449 H         1 UNK         0.0600 
    203 H203        1.7368  -26.4762  -48.2942 H         1 UNK         0.0600 
    204 H204        1.3569  -25.8261  -46.7063 H         1 UNK         0.0600 
    205 H205       -1.4029  -24.6024  -49.3504 H         1 UNK         0.3000 
    206 H206       -1.3841  -25.9755  -51.9164 H         1 UNK         0.0600 
    207 H207       -0.9194  -23.5230  -51.6277 H         1 UNK         0.0600 
    208 H208       -2.2629  -23.8199  -52.7071 H         1 UNK         0.0600 
    209 H209       -2.5716  -23.2838  -51.0636 H         1 UNK         0.0600 
    210 H210       -3.3081  -26.5430  -49.3658 H         1 UNK         0.3000 
    211 H211       -5.2351  -27.4952  -48.9331 H         1 UNK         0.0600 
    212 H212       -5.3282  -28.2376  -51.9058 H         1 UNK         0.0600 
    213 H213       -6.1707  -29.0566  -50.5974 H         1 UNK         0.0600 
    214 H214       -4.4187  -29.1119  -50.6737 H         1 UNK         0.0600 
    215 H215       -5.2899  -24.6478  -49.7954 H         1 UNK         0.3000 
    216 H216       -6.5589  -22.9405  -50.3285 H         1 UNK         0.0600 
    217 H217       -7.9815  -23.7938  -48.4516 H         1 UNK         0.0600 
    218 H218       -8.9211  -22.9166  -49.6467 H         1 UNK         0.0600 
    219 H219       -8.9796  -24.6728  -49.6097 H         1 UNK         0.0600 
    220 H220       -6.0761  -25.1545  -52.4219 H         1 UNK         0.3000 
    221 H221       -8.2025  -24.5059  -54.4215 H         1 UNK         0.0600 
    222 H222       -6.2384  -26.8548  -54.2299 H         1 UNK         0.0600 
    223 H223       -7.9535  -26.9051  -53.8339 H         1 UNK         0.0600 
    224 H224       -7.4439  -26.6222  -55.4923 H         1 UNK         0.0600 
    225 H225       -4.6465  -24.8966  -54.0012 H         1 UNK         0.3000 
    226 H226       -4.1185  -23.4097  -56.5245 H         1 UNK         0.0600 
    227 H227       -2.9237  -25.5331  -56.2060 H         1 UNK         0.0600 
    228 H228       -1.7795  -24.2059  -56.1226 H         1 UNK         0.0600 
    229 H229       -2.3015  -25.0109  -54.6472 H         1 UNK         0.0600 
    230 H230       -4.8304  -22.5541  -53.4497 H         1 UNK         0.3000 
    231 H231       -2.7506  -20.7839  -52.6428 H         1 UNK         0.0600 
    232 H232       -5.7326  -20.7622  -51.9100 H         1 UNK         0.0600 
    233 H233       -4.4320  -20.0052  -51.0004 H         1 UNK         0.0600 
    234 H234       -4.5148  -21.7587  -51.1238 H         1 UNK         0.0600 
    235 H235       -2.3763  -18.6467  -53.0766 H         1 UNK         0.3000 
    236 H236       -3.9080  -17.3598  -55.2548 H         1 UNK         0.0600 
    237 H237       -1.1827  -16.7614  -54.0198 H         1 UNK         0.0600 
    238 H238       -1.4821  -17.5929  -55.5388 H         1 UNK         0.0600 
    239 H239       -1.8898  -15.8937  -55.3761 H         1 UNK         0.0600 
    240 H240       -4.4554  -17.4354  -52.0609 H         1 UNK         0.3000 
    241 H241       -5.8340  -14.9615  -52.1250 H         1 UNK         0.0600 
    242 H242       -7.7927  -16.1411  -49.3056 H         1 UNK         0.3800 
    243 H243       -7.0691  -14.6406  -49.8056 H         1 UNK         0.3800 
    244 H244       -3.5503  -14.1773  -51.3120 H         1 UNK         0.0800 
    245 H245       -4.9216  -13.7229  -50.3791 H         1 UNK         0.0800 
    246 H246       -3.8091  -17.4635  -49.8152 H         1 UNK         0.0800 
    247 H247       -2.8408  -17.3114  -48.3871 H         1 UNK         0.0800 
@<TRIPOS>BOND
     1    1    2 1    
     2    1  127 1    
     3    1  128 1    
     4    1  129 1    
     5    2    3 2    
     6    2    4 am   BACKBONE|DICT|INTERRES
     7    4    5 1    
     8    4  130 1    
     9    5    6 1    
    10    5   65 1    
    11    5  131 1    
    12    6    7 1    
    13    6  132 1    
    14    6  133 1    
    15    7    8 1    
    16    8    9 1    
    17    8  134 1    
    18    8  135 1    
    19    9   10 ar   
    20    9   14 ar   
    21   10   11 ar   
    22   10  136 1    
    23   11   12 ar   
    24   11  126 1    
    25   12   13 ar   
    26   12  137 1    
    27   13   14 ar   
    28   13   15 1    
    29   14  138 1    
    30   15   16 1    
    31   15  139 1    
    32   15  140 1    
    33   16   17 1    
    34   17   18 1    
    35   17  141 1    
    36   17  142 1    
    37   18   19 1    
    38   18   67 1    
    39   18  143 1    
    40   19   20 am   BACKBONE|DICT|INTERRES
    41   19  144 1    
    42   20   21 2    
    43   20   22 1    
    44   22   23 1    
    45   22   24 1    
    46   22  145 1    
    47   23  146 1    
    48   23  147 1    
    49   23  148 1    
    50   24   25 am   BACKBONE|DICT|INTERRES
    51   24  149 1    
    52   25   26 2    
    53   25   27 1    
    54   27   28 1    
    55   27   29 1    
    56   27  150 1    
    57   28  151 1    
    58   28  152 1    
    59   28  153 1    
    60   29   30 am   BACKBONE|DICT|INTERRES
    61   29  154 1    
    62   30   31 2    
    63   30   32 1    
    64   32   33 1    
    65   32   34 1    
    66   32  155 1    
    67   33  156 1    
    68   33  157 1    
    69   33  158 1    
    70   34   35 am   BACKBONE|DICT|INTERRES
    71   34  159 1    
    72   35   36 2    
    73   35   37 1    
    74   37   38 1    
    75   37   39 1    
    76   37  160 1    
    77   38  161 1    
    78   38  162 1    
    79   38  163 1    
    80   39   40 am   BACKBONE|DICT|INTERRES
    81   39  164 1    
    82   40   41 2    
    83   40   42 1    
    84   42   43 1    
    85   42   44 1    
    86   42  165 1    
    87   43  166 1    
    88   43  167 1    
    89   43  168 1    
    90   44   45 am   BACKBONE|DICT|INTERRES
    91   44  169 1    
    92   45   46 2    
    93   45   47 1    
    94   47   48 1    
    95   47   49 1    
    96   47  170 1    
    97   48  171 1    
    98   48  172 1    
    99   48  173 1    
   100   49   50 am   BACKBONE|DICT|INTERRES
   101   49  174 1    
   102   50   51 2    
   103   50   52 1    
   104   52   53 1    
   105   52   54 1    
   106   52  175 1    
   107   53  176 1    
   108   53  177 1    
   109   53  178 1    
   110   54   55 am   BACKBONE|DICT|INTERRES
   111   54  179 1    
   112   55   56 2    
   113   55   57 1    
   114   57   58 1    
   115   57   59 1    
   116   57  180 1    
   117   58  181 1    
   118   58  182 1    
   119   58  183 1    
   120   59   60 am   BACKBONE|DICT|INTERRES
   121   59  184 1    
   122   60   61 2    
   123   60   62 1    
   124   62   63 1    
   125   62   64 1    
   126   62  185 1    
   127   63  186 1    
   128   63  187 1    
   129   63  188 1    
   130   64   65 am   BACKBONE|DICT|INTERRES
   131   64  189 1    
   132   65   66 2    
   133   67   68 2    
   134   67   69 am   BACKBONE|DICT|INTERRES
   135   69   70 1    
   136   69  190 1    
   137   70   71 1    
   138   70   72 1    
   139   70  191 1    
   140   71  192 1    
   141   71  193 1    
   142   71  194 1    
   143   72   73 2    
   144   72   74 am   BACKBONE|DICT|INTERRES
   145   74   75 1    
   146   74  195 1    
   147   75   76 1    
   148   75   77 1    
   149   75  196 1    
   150   76  197 1    
   151   76  198 1    
   152   76  199 1    
   153   77   78 2    
   154   77   79 am   BACKBONE|DICT|INTERRES
   155   79   80 1    
   156   79  200 1    
   157   80   81 1    
   158   80   82 1    
   159   80  201 1    
   160   81  202 1    
   161   81  203 1    
   162   81  204 1    
   163   82   83 2    
   164   82   84 am   BACKBONE|DICT|INTERRES
   165   84   85 1    
   166   84  205 1    
   167   85   86 1    
   168   85   87 1    
   169   85  206 1    
   170   86  207 1    
   171   86  208 1    
   172   86  209 1    
   173   87   88 2    
   174   87   89 am   BACKBONE|DICT|INTERRES
   175   89   90 1    
   176   89  210 1    
   177   90   91 1    
   178   90   92 1    
   179   90  211 1    
   180   91  212 1    
   181   91  213 1    
   182   91  214 1    
   183   92   93 2    
   184   92   94 am   BACKBONE|DICT|INTERRES
   185   94   95 1    
   186   94  215 1    
   187   95   96 1    
   188   95   97 1    
   189   95  216 1    
   190   96  217 1    
   191   96  218 1    
   192   96  219 1    
   193   97   98 2    
   194   97   99 am   BACKBONE|DICT|INTERRES
   195   99  100 1    
   196   99  220 1    
   197  100  101 1    
   198  100  102 1    
   199  100  221 1    
   200  101  222 1    
   201  101  223 1    
   202  101  224 1    
   203  102  103 2    
   204  102  104 am   BACKBONE|DICT|INTERRES
   205  104  105 1    
   206  104  225 1    
   207  105  106 1    
   208  105  107 1    
   209  105  226 1    
   210  106  227 1    
   211  106  228 1    
   212  106  229 1    
   213  107  108 2    
   214  107  109 am   BACKBONE|DICT|INTERRES
   215  109  110 1    
   216  109  230 1    
   217  110  111 1    
   218  110  112 1    
   219  110  231 1    
   220  111  232 1    
   221  111  233 1    
   222  111  234 1    
   223  112  113 2    
   224  112  114 am   BACKBONE|DICT|INTERRES
   225  114  115 1    
   226  114  235 1    
   227  115  116 1    
   228  115  117 1    
   229  115  236 1    
   230  116  237 1    
   231  116  238 1    
   232  116  239 1    
   233  117  118 2    
   234  117  119 am   BACKBONE|DICT|INTERRES
   235  119  120 1    
   236  119  240 1    
   237  120  121 1    
   238  120  124 1    
   239  120  241 1    
   240  121  122 am   BACKBONE|DICT|INTERRES
   241  121  123 2    
   242  122  242 1    
   243  122  243 1    
   244  124  125 1    
   245  124  244 1    
   246  124  245 1    
   247  125  126 1    
   248  126  246 1    
   249  126  247 1    
@<TRIPOS>SUBSTRUCTURE
     1 UNK         1 GROUP             0       ****    0 ROOT    
