@<TRIPOS>MOLECULE
3R540
247   249    1
SMALL
USER_CHARGES


@<TRIPOS>ATOM
      1 CA          8.0385  -15.9566  -48.2811 C.3       0 UNK        -0.1800 
      2 C           7.0721  -15.6904  -47.1354 C.2       0 UNK         0.5000 
      3 O           7.3766  -16.0170  -45.9878 O.2       0 UNK        -0.5000 
      4 N           5.9083  -15.1066  -47.4432 N.am      1 UNK        -0.5000 
      5 CA          4.8769  -14.7300  -46.4732 C.3       1 UNK         0.1400 
      6 C6          3.5313  -14.4075  -47.1640 C.3       23 UNK        -0.0398 
      7 S7          2.7271  -15.9123  -47.7929 S.3       23 UNK        -0.2404 
      8 C8          2.9616  -15.7684  -49.5893 C.3       23 UNK        -0.0205 
      9 C9          2.1461  -16.8283  -50.3122 C.ar      23 UNK        -0.0193 
     10 C10         0.9820  -16.4793  -51.0013 C.ar      23 UNK        -0.1150 
     11 C11         0.2146  -17.4590  -51.6369 C.ar      23 UNK        -0.0193 
     12 C12         0.6067  -18.7988  -51.5602 C.ar      23 UNK        -0.1150 
     13 C13         1.7700  -19.1645  -50.8752 C.ar      23 UNK        -0.0193 
     14 C14         2.5460  -18.1664  -50.2729 C.ar      23 UNK        -0.1150 
     15 C15         2.1643  -20.6402  -50.8050 C.3       23 UNK        -0.0205 
     16 S16         2.9824  -21.1412  -49.2481 S.3       23 UNK        -0.2404 
     17 C17         1.7384  -20.6579  -48.0022 C.3       23 UNK        -0.0398 
     18 CA          0.9966  -21.8508  -47.3595 C.3       11 UNK         0.1400 
     19 N           0.2506  -21.4265  -46.1718 N.am      11 UNK        -0.5000 
     20 C          -0.3730  -22.2483  -45.3171 C.2       10 UNK         0.5000 
     21 O          -0.3329  -23.4752  -45.3990 O.2       10 UNK        -0.5000 
     22 CA         -1.2151  -21.5891  -44.2095 C.3       10 UNK         0.1400 
     23 CB         -0.3250  -21.1453  -43.0393 C.3       10 UNK        -0.1800 
     24 N          -1.9954  -20.4492  -44.6950 N.am      10 UNK        -0.5000 
     25 C          -3.0003  -20.5379  -45.5786 C.2       9 UNK         0.5000 
     26 O          -3.4094  -21.5987  -46.0508 O.2       9 UNK        -0.5000 
     27 CA         -3.6262  -19.2169  -46.0590 C.3       9 UNK         0.1400 
     28 CB         -4.6332  -18.6758  -45.0348 C.3       9 UNK        -0.1800 
     29 N          -2.6271  -18.1947  -46.3660 N.am      9 UNK        -0.5000 
     30 C          -1.6950  -18.3042  -47.3235 C.2       8 UNK         0.5000 
     31 O          -1.6087  -19.2644  -48.0868 O.2       8 UNK        -0.5000 
     32 CA         -0.6480  -17.1825  -47.4025 C.3       8 UNK         0.1400 
     33 CB         -1.1840  -15.9735  -48.1834 C.3       8 UNK        -0.1800 
     34 N          -0.1972  -16.7614  -46.0755 N.am      8 UNK        -0.5000 
     35 C           0.5102  -17.5354  -45.2396 C.2       7 UNK         0.5000 
     36 O           0.8734  -18.6802  -45.5065 O.2       7 UNK        -0.5000 
     37 CA          0.8121  -16.9515  -43.8494 C.3       7 UNK         0.1400 
     38 CB          2.0267  -16.0114  -43.8969 C.3       7 UNK        -0.1800 
     39 N          -0.3434  -16.2450  -43.2965 N.am      7 UNK        -0.5000 
     40 C          -1.4760  -16.8525  -42.9098 C.2       6 UNK         0.5000 
     41 O          -1.6401  -18.0721  -42.9382 O.2       6 UNK        -0.5000 
     42 CA         -2.6381  -15.9454  -42.4627 C.3       6 UNK         0.1400 
     43 CB         -2.5273  -15.6273  -40.9644 C.3       6 UNK        -0.1800 
     44 N          -2.7091  -14.6932  -43.2167 N.am      6 UNK        -0.5000 
     45 C          -2.9040  -14.6021  -44.5402 C.2       5 UNK         0.5000 
     46 O          -3.1108  -15.5753  -45.2639 O.2       5 UNK        -0.5000 
     47 CA         -2.8112  -13.1978  -45.1683 C.3       5 UNK         0.1400 
     48 CB         -4.2152  -12.6208  -45.4008 C.3       5 UNK        -0.1800 
     49 N          -2.0268  -12.2503  -44.3695 N.am      5 UNK        -0.5000 
     50 C          -0.7098  -12.3467  -44.1437 C.2       4 UNK         0.5000 
     51 O          -0.0037  -13.2580  -44.5823 O.2       4 UNK        -0.5000 
     52 CA         -0.1077  -11.2911  -43.2002 C.3       4 UNK         0.1400 
     53 CB         -0.0494  -11.8410  -41.7664 C.3       4 UNK        -0.1800 
     54 N           1.2360  -10.8808  -43.5983 N.am      4 UNK        -0.5000 
     55 C           1.5530  -10.1950  -44.7013 C.2       3 UNK         0.5000 
     56 O           0.7212   -9.8212  -45.5294 O.2       3 UNK        -0.5000 
     57 CA          3.0411   -9.8458  -44.9223 C.3       3 UNK         0.1400 
     58 CB          3.3955   -8.5093  -44.2435 C.3       3 UNK        -0.1800 
     59 N           4.0056  -10.8944  -44.5566 N.am      3 UNK        -0.5000 
     60 C           4.2928  -11.4221  -43.3581 C.2       2 UNK         0.5000 
     61 O           3.7262  -11.0946  -42.3141 O.2       2 UNK        -0.5000 
     62 CA          5.3679  -12.5314  -43.3418 C.3       2 UNK         0.1400 
     63 CB          5.5311  -13.1781  -41.9542 C.3       2 UNK        -0.1800 
     64 N           5.0782  -13.5870  -44.3156 N.am      2 UNK        -0.5000 
     65 C           5.3363  -13.5281  -45.6277 C.2       1 UNK         0.5000 
     66 O           5.8549  -12.5529  -46.1770 O.2       1 UNK        -0.5000 
     67 C           0.0814  -22.5775  -48.3672 C.2       11 UNK         0.5000 
     68 O           0.4281  -23.6614  -48.8375 O.2       11 UNK        -0.5000 
     69 N          -1.0982  -21.9994  -48.6315 N.am      12 UNK        -0.5000 
     70 CA         -2.1517  -22.5910  -49.4516 C.3       12 UNK         0.1400 
     71 CB         -3.3003  -21.5852  -49.6053 C.3       12 UNK        -0.1800 
     72 C          -2.6517  -23.9347  -48.8910 C.2       12 UNK         0.5000 
     73 O          -2.7485  -24.8956  -49.6494 O.2       12 UNK        -0.5000 
     74 N          -2.8914  -23.9984  -47.5727 N.am      13 UNK        -0.5000 
     75 CA         -3.3087  -25.2079  -46.8557 C.3       13 UNK         0.1400 
     76 CB         -3.6698  -24.8429  -45.4070 C.3       13 UNK        -0.1800 
     77 C          -2.2614  -26.3386  -46.8727 C.2       13 UNK         0.5000 
     78 O          -2.6362  -27.5099  -46.8168 O.2       13 UNK        -0.5000 
     79 N          -0.9730  -25.9802  -46.9427 N.am      14 UNK        -0.5000 
     80 CA          0.1278  -26.9252  -47.1182 C.3       14 UNK         0.1400 
     81 CB          1.4452  -26.2679  -46.6780 C.3       14 UNK        -0.1800 
     82 C           0.2201  -27.4331  -48.5695 C.2       14 UNK         0.5000 
     83 O           0.4970  -28.6145  -48.7811 O.2       14 UNK        -0.5000 
     84 N          -0.0069  -26.5357  -49.5381 N.am      15 UNK        -0.5000 
     85 CA          0.0484  -26.8214  -50.9705 C.3       15 UNK         0.1400 
     86 CB          0.1685  -25.4993  -51.7462 C.3       15 UNK        -0.1800 
     87 C          -1.1523  -27.6440  -51.4752 C.2       15 UNK         0.5000 
     88 O          -0.9536  -28.6196  -52.2012 O.2       15 UNK        -0.5000 
     89 N          -2.3689  -27.2323  -51.1019 N.am      16 UNK        -0.5000 
     90 CA         -3.6370  -27.8038  -51.5470 C.3       16 UNK         0.1400 
     91 CB         -3.9352  -27.3668  -53.0002 C.3       16 UNK        -0.1800 
     92 C          -4.7386  -27.4314  -50.5357 C.2       16 UNK         0.5000 
     93 O          -4.5792  -27.7040  -49.3455 O.2       16 UNK        -0.5000 
     94 N          -5.8420  -26.8370  -51.0089 N.am      17 UNK        -0.5000 
     95 CA         -6.9261  -26.3117  -50.1786 C.3       17 UNK         0.1400 
     96 CB         -8.1695  -26.1014  -51.0563 C.3       17 UNK        -0.1800 
     97 C          -6.5140  -24.9915  -49.5024 C.2       17 UNK         0.5000 
     98 O          -5.7853  -24.2016  -50.1046 O.2       17 UNK        -0.5000 
     99 N          -7.0001  -24.7723  -48.2740 N.am      18 UNK        -0.5000 
    100 CA        -6.7203  -23.5828  -47.4701 C.3       18 UNK         0.1400 
    101 CB        -7.2738  -23.7874  -46.0514 C.3       18 UNK        -0.1800 
    102 C         -7.2876  -22.2982  -48.1014 C.2       18 UNK         0.5000 
    103 O         -8.4822  -22.2473  -48.4036 O.2       18 UNK        -0.5000 
    104 N         -6.4093  -21.2961  -48.2469 N.am      19 UNK        -0.5000 
    105 CA        -6.6120  -19.9775  -48.8591 C.3       19 UNK         0.1400 
    106 CB        -7.6757  -19.1740  -48.0836 C.3       19 UNK        -0.1800 
    107 C         -6.9133  -20.0096  -50.3746 C.2       19 UNK         0.5000 
    108 O         -7.2395  -21.0520  -50.9429 O.2       19 UNK        -0.5000 
    109 N         -6.7779  -18.8332  -51.0045 N.am      20 UNK        -0.5000 
    110 CA        -7.1081  -18.5212  -52.4029 C.3       20 UNK         0.1400 
    111 CB        -8.6209  -18.6920  -52.6561 C.3       20 UNK        -0.1800 
    112 C         -6.2551  -19.2414  -53.4720 C.2       20 UNK         0.5000 
    113 O         -6.6047  -19.1866  -54.6526 O.2       20 UNK        -0.5000 
    114 N         -5.1273  -19.8531  -53.0769 N.am      21 UNK        -0.5000 
    115 CA        -4.2031  -20.5659  -53.9720 C.3       21 UNK         0.1400 
    116 CB        -3.1324  -21.2862  -53.1383 C.3       21 UNK        -0.1800 
    117 C         -3.5395  -19.6641  -55.0332 C.2       21 UNK         0.5000 
    118 O         -3.1871  -20.1479  -56.1095 O.2       21 UNK        -0.5000 
    119 N         -3.4104  -18.3714  -54.7149 N.am      22 UNK        -0.5000 
    120 CA        -2.9517  -17.3124  -55.6260 C.3       22 UNK         0.1400 
    121 C         -4.0818  -16.7219  -56.5241 C.2       22 UNK         0.5000 
    122 N         -5.3292  -17.1706  -56.4331 N.am      22 UNK        -0.7600 
    123 O         -3.8197  -15.8408  -57.3384 O.2       22 UNK        -0.5000 
    124 C124       -2.1969  -16.1999  -54.8529 C.3       23 UNK        -0.0398 
    125 S125       -0.6114  -16.7887  -54.1678 S.3       23 UNK        -0.2404 
    126 C126       -1.0281  -17.0665  -52.4192 C.3       23 UNK        -0.0205 
    127 H127        7.6323  -15.6300  -49.2388 H         1 UNK         0.0600 
    128 H128        8.2544  -17.0228  -48.3498 H         1 UNK         0.0600 
    129 H129        8.9763  -15.4277  -48.1113 H         1 UNK         0.0600 
    130 H130        5.7301  -14.8358  -48.3987 H         1 UNK         0.3000 
    131 H131        4.7256  -15.5773  -45.8003 H         1 UNK         0.0600 
    132 H132        2.8309  -13.9518  -46.4610 H         1 UNK         0.0800 
    133 H133        3.6641  -13.6807  -47.9673 H         1 UNK         0.0800 
    134 H134        2.6679  -14.7708  -49.9192 H         1 UNK         0.0800 
    135 H135        4.0183  -15.8847  -49.8331 H         1 UNK         0.0800 
    136 H136        0.6729  -15.4445  -51.0458 H         1 UNK         0.1150 
    137 H137        0.0076  -19.5565  -52.0456 H         1 UNK         0.1150 
    138 H138        3.4504  -18.4276  -49.7423 H         1 UNK         0.1150 
    139 H139        1.2846  -21.2708  -50.9447 H         1 UNK         0.0800 
    140 H140        2.8351  -20.8584  -51.6366 H         1 UNK         0.0800 
    141 H141        2.2814  -20.1108  -47.2307 H         1 UNK         0.0800 
    142 H142        1.0281  -19.9434  -48.4186 H         1 UNK         0.0800 
    143 H143        1.7450  -22.5707  -47.0212 H         1 UNK         0.0600 
    144 H144        0.2188  -20.4262  -45.9951 H         1 UNK         0.3000 
    145 H145       -1.9157  -22.3384  -43.8357 H         1 UNK         0.0600 
    146 H146       -0.9237  -20.7563  -42.2156 H         1 UNK         0.0600 
    147 H147        0.2575  -21.9820  -42.6517 H         1 UNK         0.0600 
    148 H148        0.3764  -20.3660  -43.3386 H         1 UNK         0.0600 
    149 H149       -1.7519  -19.5391  -44.3172 H         1 UNK         0.3000 
    150 H150       -4.1676  -19.4280  -46.9808 H         1 UNK         0.0600 
    151 H151       -5.4149  -19.4091  -44.8322 H         1 UNK         0.0600 
    152 H152       -5.1211  -17.7724  -45.4014 H         1 UNK         0.0600 
    153 H153       -4.1535  -18.4356  -44.0861 H         1 UNK         0.0600 
    154 H154       -2.6635  -17.3380  -45.8198 H         1 UNK         0.3000 
    155 H155        0.2140  -17.5772  -47.9442 H         1 UNK         0.0600 
    156 H156       -0.4164  -15.2075  -48.2956 H         1 UNK         0.0600 
    157 H157       -2.0447  -15.5188  -47.6940 H         1 UNK         0.0600 
    158 H158       -1.4961  -16.2687  -49.1858 H         1 UNK         0.0600 
    159 H159       -0.4733  -15.8406  -45.7680 H         1 UNK         0.3000 
    160 H160        1.0541  -17.7825  -43.1832 H         1 UNK         0.0600 
    161 H161        1.8526  -15.1598  -44.5542 H         1 UNK         0.0600 
    162 H162        2.9071  -16.5372  -44.2680 H         1 UNK         0.0600 
    163 H163        2.2683  -15.6269  -42.9060 H         1 UNK         0.0600 
    164 H164       -0.3011  -15.2350  -43.2953 H         1 UNK         0.3000 
    165 H165       -3.5691  -16.4903  -42.6304 H         1 UNK         0.0600 
    166 H166       -1.6271  -15.0538  -40.7390 H         1 UNK         0.0600 
    167 H167       -3.3871  -15.0534  -40.6181 H         1 UNK         0.0600 
    168 H168       -2.4900  -16.5432  -40.3730 H         1 UNK         0.0600 
    169 H169       -2.5607  -13.8412  -42.6977 H         1 UNK         0.3000 
    170 H170       -2.3209  -13.3076  -46.1380 H         1 UNK         0.0600 
    171 H171       -4.8161  -13.2919  -46.0162 H         1 UNK         0.0600 
    172 H172       -4.7495  -12.4698  -44.4619 H         1 UNK         0.0600 
    173 H173       -4.1676  -11.6630  -45.9193 H         1 UNK         0.0600 
    174 H174       -2.5377  -11.4792  -43.9637 H         1 UNK         0.3000 
    175 H175       -0.7446  -10.4041  -43.2085 H         1 UNK         0.0600 
    176 H176        0.3364  -11.0932  -41.0731 H         1 UNK         0.0600 
    177 H177       -1.0403  -12.1289  -41.4133 H         1 UNK         0.0600 
    178 H178        0.5928  -12.7206  -41.6996 H         1 UNK         0.0600 
    179 H179        1.9981  -11.1242  -42.9716 H         1 UNK         0.3000 
    180 H180        3.1642   -9.7051  -45.9974 H         1 UNK         0.0600 
    181 H181        4.4205   -8.2131  -44.4668 H         1 UNK         0.0600 
    182 H182        2.7426   -7.7094  -44.5950 H         1 UNK         0.0600 
    183 H183        3.2896   -8.5617  -43.1596 H         1 UNK         0.0600 
    184 H184        4.5380  -11.2683  -45.3358 H         1 UNK         0.3000 
    185 H185        6.3184  -12.0600  -43.6007 H         1 UNK         0.0600 
    186 H186        6.3223  -13.9281  -41.9596 H         1 UNK         0.0600 
    187 H187        5.7988  -12.4336  -41.2033 H         1 UNK         0.0600 
    188 H188        4.6113  -13.6630  -41.6244 H         1 UNK         0.0600 
    189 H189        4.6245  -14.4090  -43.9449 H         1 UNK         0.3000 
    190 H190       -1.2940  -21.0784  -48.2451 H         1 UNK         0.3000 
    191 H191       -1.7341  -22.7810  -50.4423 H         1 UNK         0.0600 
    192 H192       -4.1338  -22.0161  -50.1610 H         1 UNK         0.0600 
    193 H193       -2.9723  -20.6929  -50.1377 H         1 UNK         0.0600 
    194 H194       -3.6771  -21.2655  -48.6370 H         1 UNK         0.0600 
    195 H195       -2.8096  -23.1508  -47.0182 H         1 UNK         0.3000 
    196 H196       -4.2056  -25.5888  -47.3479 H         1 UNK         0.0600 
    197 H197       -4.0720  -25.7070  -44.8770 H         1 UNK         0.0600 
    198 H198       -4.4222  -24.0570  -45.3646 H         1 UNK         0.0600 
    199 H199       -2.7982  -24.4958  -44.8523 H         1 UNK         0.0600 
    200 H200       -0.7366  -24.9958  -46.9041 H         1 UNK         0.3000 
    201 H201       -0.0458  -27.7878  -46.4713 H         1 UNK         0.0600 
    202 H202        1.3931  -25.9396  -45.6397 H         1 UNK         0.0600 
    203 H203        1.6917  -25.4001  -47.2894 H         1 UNK         0.0600 
    204 H204        2.2756  -26.9705  -46.7570 H         1 UNK         0.0600 
    205 H205       -0.1872  -25.5728  -49.2741 H         1 UNK         0.3000 
    206 H206        0.9526  -27.4026  -51.1640 H         1 UNK         0.0600 
    207 H207        1.0617  -24.9486  -51.4499 H         1 UNK         0.0600 
    208 H208        0.2376  -25.6804  -52.8194 H         1 UNK         0.0600 
    209 H209       -0.6923  -24.8519  -51.5768 H         1 UNK         0.0600 
    210 H210       -2.4537  -26.4261  -50.4802 H         1 UNK         0.3000 
    211 H211       -3.5549  -28.8922  -51.5238 H         1 UNK         0.0600 
    212 H212       -4.0082  -26.2818  -53.0877 H         1 UNK         0.0600 
    213 H213       -4.8673  -27.8011  -53.3636 H         1 UNK         0.0600 
    214 H214       -3.1515  -27.6980  -53.6814 H         1 UNK         0.0600 
    215 H215       -5.8798  -26.6067  -51.9906 H         1 UNK         0.3000 
    216 H216       -7.1652  -27.0477  -49.4078 H         1 UNK         0.0600 
    217 H217       -9.0076  -25.7322  -50.4637 H         1 UNK         0.0600 
    218 H218       -8.4871  -27.0345  -51.5222 H         1 UNK         0.0600 
    219 H219       -7.9842  -25.3750  -51.8488 H         1 UNK         0.0600 
    220 H220       -7.6293  -25.4485  -47.8670 H         1 UNK         0.3000 
    221 H221       -5.6368  -23.4829  -47.3980 H         1 UNK         0.0600 
    222 H222       -8.3587  -23.8994  -46.0546 H         1 UNK         0.0600 
    223 H223       -6.8470  -24.6743  -45.5828 H         1 UNK         0.0600 
    224 H224       -7.0330  -22.9355  -45.4141 H         1 UNK         0.0600 
    225 H225       -5.4602  -21.4833  -47.9592 H         1 UNK         0.3000 
    226 H226       -5.6607  -19.4561  -48.7511 H         1 UNK         0.0600 
    227 H227       -7.4484  -19.1461  -47.0178 H         1 UNK         0.0600 
    228 H228       -7.7215  -18.1407  -48.4289 H         1 UNK         0.0600 
    229 H229       -8.6731  -19.5980  -48.2029 H         1 UNK         0.0600 
    230 H230       -6.4762  -18.0381  -50.4582 H         1 UNK         0.3000 
    231 H231       -6.8825  -17.4609  -52.5251 H         1 UNK         0.0600 
    232 H232       -8.9029  -18.3055  -53.6362 H         1 UNK         0.0600 
    233 H233       -9.2088  -18.1492  -51.9159 H         1 UNK         0.0600 
    234 H234       -8.9217  -19.7395  -52.6211 H         1 UNK         0.0600 
    235 H235       -4.9115  -19.8652  -52.0919 H         1 UNK         0.3000 
    236 H236       -4.7802  -21.3224  -54.5079 H         1 UNK         0.0600 
    237 H237       -2.5582  -20.5881  -52.5284 H         1 UNK         0.0600 
    238 H238       -3.5827  -22.0297  -52.4814 H         1 UNK         0.0600 
    239 H239       -2.4265  -21.8150  -53.7803 H         1 UNK         0.0600 
    240 H240       -3.7471  -18.0690  -53.8142 H         1 UNK         0.3000 
    241 H241       -2.2417  -17.7533  -56.3285 H         1 UNK         0.0600 
    242 H242       -5.5859  -17.9180  -55.7976 H         1 UNK         0.3800 
    243 H243       -6.0347  -16.7732  -57.0330 H         1 UNK         0.3800 
    244 H244       -1.9557  -15.3662  -55.5146 H         1 UNK         0.0800 
    245 H245       -2.8210  -15.7828  -54.0611 H         1 UNK         0.0800 
    246 H246       -1.4677  -16.1618  -51.9963 H         1 UNK         0.0800 
    247 H247       -1.7830  -17.8496  -52.3390 H         1 UNK         0.0800 
@<TRIPOS>BOND
     1    1    2 1    
     2    1  127 1    
     3    1  128 1    
     4    1  129 1    
     5    2    3 2    
     6    2    4 am   BACKBONE|DICT|INTERRES
     7    4    5 1    
     8    4  130 1    
     9    5    6 1    
    10    5   65 1    
    11    5  131 1    
    12    6    7 1    
    13    6  132 1    
    14    6  133 1    
    15    7    8 1    
    16    8    9 1    
    17    8  134 1    
    18    8  135 1    
    19    9   10 ar   
    20    9   14 ar   
    21   10   11 ar   
    22   10  136 1    
    23   11   12 ar   
    24   11  126 1    
    25   12   13 ar   
    26   12  137 1    
    27   13   14 ar   
    28   13   15 1    
    29   14  138 1    
    30   15   16 1    
    31   15  139 1    
    32   15  140 1    
    33   16   17 1    
    34   17   18 1    
    35   17  141 1    
    36   17  142 1    
    37   18   19 1    
    38   18   67 1    
    39   18  143 1    
    40   19   20 am   BACKBONE|DICT|INTERRES
    41   19  144 1    
    42   20   21 2    
    43   20   22 1    
    44   22   23 1    
    45   22   24 1    
    46   22  145 1    
    47   23  146 1    
    48   23  147 1    
    49   23  148 1    
    50   24   25 am   BACKBONE|DICT|INTERRES
    51   24  149 1    
    52   25   26 2    
    53   25   27 1    
    54   27   28 1    
    55   27   29 1    
    56   27  150 1    
    57   28  151 1    
    58   28  152 1    
    59   28  153 1    
    60   29   30 am   BACKBONE|DICT|INTERRES
    61   29  154 1    
    62   30   31 2    
    63   30   32 1    
    64   32   33 1    
    65   32   34 1    
    66   32  155 1    
    67   33  156 1    
    68   33  157 1    
    69   33  158 1    
    70   34   35 am   BACKBONE|DICT|INTERRES
    71   34  159 1    
    72   35   36 2    
    73   35   37 1    
    74   37   38 1    
    75   37   39 1    
    76   37  160 1    
    77   38  161 1    
    78   38  162 1    
    79   38  163 1    
    80   39   40 am   BACKBONE|DICT|INTERRES
    81   39  164 1    
    82   40   41 2    
    83   40   42 1    
    84   42   43 1    
    85   42   44 1    
    86   42  165 1    
    87   43  166 1    
    88   43  167 1    
    89   43  168 1    
    90   44   45 am   BACKBONE|DICT|INTERRES
    91   44  169 1    
    92   45   46 2    
    93   45   47 1    
    94   47   48 1    
    95   47   49 1    
    96   47  170 1    
    97   48  171 1    
    98   48  172 1    
    99   48  173 1    
   100   49   50 am   BACKBONE|DICT|INTERRES
   101   49  174 1    
   102   50   51 2    
   103   50   52 1    
   104   52   53 1    
   105   52   54 1    
   106   52  175 1    
   107   53  176 1    
   108   53  177 1    
   109   53  178 1    
   110   54   55 am   BACKBONE|DICT|INTERRES
   111   54  179 1    
   112   55   56 2    
   113   55   57 1    
   114   57   58 1    
   115   57   59 1    
   116   57  180 1    
   117   58  181 1    
   118   58  182 1    
   119   58  183 1    
   120   59   60 am   BACKBONE|DICT|INTERRES
   121   59  184 1    
   122   60   61 2    
   123   60   62 1    
   124   62   63 1    
   125   62   64 1    
   126   62  185 1    
   127   63  186 1    
   128   63  187 1    
   129   63  188 1    
   130   64   65 am   BACKBONE|DICT|INTERRES
   131   64  189 1    
   132   65   66 2    
   133   67   68 2    
   134   67   69 am   BACKBONE|DICT|INTERRES
   135   69   70 1    
   136   69  190 1    
   137   70   71 1    
   138   70   72 1    
   139   70  191 1    
   140   71  192 1    
   141   71  193 1    
   142   71  194 1    
   143   72   73 2    
   144   72   74 am   BACKBONE|DICT|INTERRES
   145   74   75 1    
   146   74  195 1    
   147   75   76 1    
   148   75   77 1    
   149   75  196 1    
   150   76  197 1    
   151   76  198 1    
   152   76  199 1    
   153   77   78 2    
   154   77   79 am   BACKBONE|DICT|INTERRES
   155   79   80 1    
   156   79  200 1    
   157   80   81 1    
   158   80   82 1    
   159   80  201 1    
   160   81  202 1    
   161   81  203 1    
   162   81  204 1    
   163   82   83 2    
   164   82   84 am   BACKBONE|DICT|INTERRES
   165   84   85 1    
   166   84  205 1    
   167   85   86 1    
   168   85   87 1    
   169   85  206 1    
   170   86  207 1    
   171   86  208 1    
   172   86  209 1    
   173   87   88 2    
   174   87   89 am   BACKBONE|DICT|INTERRES
   175   89   90 1    
   176   89  210 1    
   177   90   91 1    
   178   90   92 1    
   179   90  211 1    
   180   91  212 1    
   181   91  213 1    
   182   91  214 1    
   183   92   93 2    
   184   92   94 am   BACKBONE|DICT|INTERRES
   185   94   95 1    
   186   94  215 1    
   187   95   96 1    
   188   95   97 1    
   189   95  216 1    
   190   96  217 1    
   191   96  218 1    
   192   96  219 1    
   193   97   98 2    
   194   97   99 am   BACKBONE|DICT|INTERRES
   195   99  100 1    
   196   99  220 1    
   197  100  101 1    
   198  100  102 1    
   199  100  221 1    
   200  101  222 1    
   201  101  223 1    
   202  101  224 1    
   203  102  103 2    
   204  102  104 am   BACKBONE|DICT|INTERRES
   205  104  105 1    
   206  104  225 1    
   207  105  106 1    
   208  105  107 1    
   209  105  226 1    
   210  106  227 1    
   211  106  228 1    
   212  106  229 1    
   213  107  108 2    
   214  107  109 am   BACKBONE|DICT|INTERRES
   215  109  110 1    
   216  109  230 1    
   217  110  111 1    
   218  110  112 1    
   219  110  231 1    
   220  111  232 1    
   221  111  233 1    
   222  111  234 1    
   223  112  113 2    
   224  112  114 am   BACKBONE|DICT|INTERRES
   225  114  115 1    
   226  114  235 1    
   227  115  116 1    
   228  115  117 1    
   229  115  236 1    
   230  116  237 1    
   231  116  238 1    
   232  116  239 1    
   233  117  118 2    
   234  117  119 am   BACKBONE|DICT|INTERRES
   235  119  120 1    
   236  119  240 1    
   237  120  121 1    
   238  120  124 1    
   239  120  241 1    
   240  121  122 am   BACKBONE|DICT|INTERRES
   241  121  123 2    
   242  122  242 1    
   243  122  243 1    
   244  124  125 1    
   245  124  244 1    
   246  124  245 1    
   247  125  126 1    
   248  126  246 1    
   249  126  247 1    
@<TRIPOS>SUBSTRUCTURE
     1 UNK         1 GROUP             0       ****    0 ROOT    
