@<TRIPOS>MOLECULE
3R540
247   249    1
SMALL
USER_CHARGES


@<TRIPOS>ATOM
      1 CA         -1.5791  -11.6399  -51.7461 C.3       0 UNK        -0.1800 
      2 C          -2.9697  -12.2735  -51.7135 C.2       0 UNK         0.5000 
      3 O          -3.8141  -11.9050  -52.5277 O.2       0 UNK        -0.5000 
      4 N          -3.2651  -13.2226  -50.8134 N.am      1 UNK        -0.5000 
      5 CA         -2.4378  -13.7140  -49.7048 C.3       1 UNK         0.1400 
      6 C6         -3.1042  -14.9154  -48.9907 C.3       23 UNK        -0.0398 
      7 S7         -3.4078  -16.3284  -50.1090 S.3       23 UNK        -0.2404 
      8 C8         -2.7659  -17.7299  -49.1371 C.3       23 UNK        -0.0205 
      9 C9         -1.3296  -18.0951  -49.4891 C.ar      23 UNK        -0.0193 
     10 C10        -0.3027  -17.1502  -49.4122 C.ar      23 UNK        -0.1150 
     11 C11         1.0111  -17.4904  -49.7466 C.ar      23 UNK        -0.0193 
     12 C12         1.2996  -18.8002  -50.1409 C.ar      23 UNK        -0.1150 
     13 C13         0.2860  -19.7643  -50.1992 C.ar      23 UNK        -0.0193 
     14 C14        -1.0238  -19.4023  -49.8738 C.ar      23 UNK        -0.1150 
     15 C15         0.5863  -21.2041  -50.6009 C.3       23 UNK        -0.0205 
     16 S16         1.8956  -21.9878  -49.6009 S.3       23 UNK        -0.2404 
     17 C17         1.3777  -21.6077  -47.8917 C.3       23 UNK        -0.0398 
     18 CA          0.5764  -22.7268  -47.1917 C.3       11 UNK         0.1400 
     19 N           0.5248  -22.5002  -45.7467 N.am      11 UNK        -0.5000 
     20 C           0.0645  -23.3743  -44.8429 C.2       10 UNK         0.5000 
     21 O          -0.3298  -24.5061  -45.1252 O.2       10 UNK        -0.5000 
     22 CA         -0.0024  -22.8824  -43.3847 C.3       10 UNK         0.1400 
     23 CB          1.3814  -22.9514  -42.7224 C.3       10 UNK        -0.1800 
     24 N          -0.5325  -21.5213  -43.2726 N.am      10 UNK        -0.5000 
     25 C          -1.7812  -21.1671  -43.6102 C.2       9 UNK         0.5000 
     26 O          -2.6312  -21.9640  -44.0068 O.2       9 UNK        -0.5000 
     27 CA         -2.1256  -19.6669  -43.5420 C.3       9 UNK         0.1400 
     28 CB         -2.4218  -19.2311  -42.0995 C.3       9 UNK        -0.1800 
     29 N          -1.0764  -18.8183  -44.1086 N.am      9 UNK        -0.5000 
     30 C          -0.6796  -18.8579  -45.3882 C.2       8 UNK         0.5000 
     31 O          -1.1817  -19.5889  -46.2372 O.2       8 UNK        -0.5000 
     32 CA          0.5144  -17.9725  -45.7742 C.3       8 UNK         0.1400 
     33 CB          0.0560  -16.5262  -46.0315 C.3       8 UNK        -0.1800 
     34 N           1.5767  -18.0263  -44.7643 N.am      8 UNK        -0.5000 
     35 C           2.2922  -19.1317  -44.4969 C.2       7 UNK         0.5000 
     36 O           2.1901  -20.1768  -45.1364 O.2       7 UNK        -0.5000 
     37 CA          3.2242  -19.1027  -43.2728 C.3       7 UNK         0.1400 
     38 CB          4.6390  -18.6359  -43.6435 C.3       7 UNK        -0.1800 
     39 N           2.6856  -18.2793  -42.1919 N.am      7 UNK        -0.5000 
     40 C           1.6592  -18.6601  -41.4174 C.2       6 UNK         0.5000 
     41 O           1.1060  -19.7558  -41.5147 O.2       6 UNK        -0.5000 
     42 CA          1.1286  -17.6339  -40.3981 C.3       6 UNK         0.1400 
     43 CB          1.8807  -17.7594  -39.0652 C.3       6 UNK        -0.1800 
     44 N           1.2119  -16.2510  -40.8718 N.am      6 UNK        -0.5000 
     45 C           0.5738  -15.7715  -41.9478 C.2       5 UNK         0.5000 
     46 O          -0.1836  -16.4516  -42.6398 O.2       5 UNK        -0.5000 
     47 CA          0.8436  -14.3038  -42.3420 C.3       5 UNK         0.1400 
     48 CB          1.3941  -13.4449  -41.1824 C.3       5 UNK        -0.1800 
     49 N           1.7195  -14.1738  -43.5140 N.am      5 UNK        -0.5000 
     50 C           2.9414  -14.7034  -43.6869 C.2       4 UNK         0.5000 
     51 O           3.4567  -15.5037  -42.9060 O.2       4 UNK        -0.5000 
     52 CA          3.7430  -14.2454  -44.9238 C.3       4 UNK         0.1400 
     53 CB          3.7588  -15.3067  -46.0350 C.3       4 UNK        -0.1800 
     54 N           3.2781  -12.9790  -45.4914 N.am      4 UNK        -0.5000 
     55 C           3.4813  -11.7714  -44.9551 C.2       3 UNK         0.5000 
     56 O           4.0744  -11.5906  -43.8912 O.2       3 UNK        -0.5000 
     57 CA          2.9325  -10.5572  -45.7289 C.3       3 UNK         0.1400 
     58 CB          3.8840  -10.1591  -46.8736 C.3       3 UNK        -0.1800 
     59 N           1.5474  -10.6838  -46.2092 N.am      3 UNK        -0.5000 
     60 C           1.0411  -11.4951  -47.1487 C.2       2 UNK         0.5000 
     61 O           1.6768  -12.3876  -47.7180 O.2       2 UNK        -0.5000 
     62 CA         -0.4278  -11.2465  -47.5233 C.3       2 UNK         0.1400 
     63 CB         -0.5836   -9.8875  -48.2382 C.3       2 UNK        -0.1800 
     64 N          -0.8910  -12.3249  -48.3926 N.am      2 UNK        -0.5000 
     65 C          -2.1688  -12.5821  -48.6912 C.2       1 UNK         0.5000 
     66 O          -3.1211  -11.9606  -48.2145 O.2       1 UNK        -0.5000 
     67 C          -0.8358  -22.9064  -47.7892 C.2       11 UNK         0.5000 
     68 O          -1.0465  -23.8366  -48.5660 O.2       11 UNK        -0.5000 
     69 N          -1.7911  -22.0586  -47.3796 N.am      12 UNK        -0.5000 
     70 CA         -3.2025  -22.1541  -47.7512 C.3       12 UNK         0.1400 
     71 CB         -3.9773  -20.9446  -47.2099 C.3       12 UNK        -0.1800 
     72 C          -3.8476  -23.4609  -47.2661 C.2       12 UNK         0.5000 
     73 O          -4.5589  -24.0989  -48.0379 O.2       12 UNK        -0.5000 
     74 N          -3.5634  -23.8642  -46.0193 N.am      13 UNK        -0.5000 
     75 CA         -4.0160  -25.1308  -45.4402 C.3       13 UNK         0.1400 
     76 CB         -3.6404  -25.1919  -43.9524 C.3       13 UNK        -0.1800 
     77 C          -3.4766  -26.3560  -46.2019 C.2       13 UNK         0.5000 
     78 O          -4.2467  -27.2704  -46.4981 O.2       13 UNK        -0.5000 
     79 N          -2.1858  -26.3245  -46.5647 N.am      14 UNK        -0.5000 
     80 CA         -1.5337  -27.3309  -47.4085 C.3       14 UNK         0.1400 
     81 CB         -0.0202  -27.0704  -47.4387 C.3       14 UNK        -0.1800 
     82 C          -2.1116  -27.3884  -48.8383 C.2       14 UNK         0.5000 
     83 O          -2.1988  -28.4719  -49.4163 O.2       14 UNK        -0.5000 
     84 N          -2.5384  -26.2316  -49.3609 N.am      15 UNK        -0.5000 
     85 CA         -3.2238  -26.0678  -50.6442 C.3       15 UNK         0.1400 
     86 CB         -2.9566  -24.6460  -51.1689 C.3       15 UNK        -0.1800 
     87 C          -4.7401  -26.3642  -50.5810 C.2       15 UNK         0.5000 
     88 O          -5.4350  -26.1156  -51.5662 O.2       15 UNK        -0.5000 
     89 N          -5.2361  -26.8776  -49.4442 N.am      16 UNK        -0.5000 
     90 CA         -6.6293  -27.2476  -49.1683 C.3       16 UNK         0.1400 
     91 CB         -7.0860  -28.4086  -50.0770 C.3       16 UNK        -0.1800 
     92 C          -7.5908  -26.0400  -49.1868 C.2       16 UNK         0.5000 
     93 O          -8.6909  -26.1255  -49.7348 O.2       16 UNK        -0.5000 
     94 N          -7.1416  -24.9384  -48.5713 N.am      17 UNK        -0.5000 
     95 CA         -7.8117  -23.6465  -48.3893 C.3       17 UNK         0.1400 
     96 CB         -9.1833  -23.8013  -47.6990 C.3       17 UNK        -0.1800 
     97 C          -7.8745  -22.7814  -49.6639 C.2       17 UNK         0.5000 
     98 O          -8.5745  -21.7671  -49.6688 O.2       17 UNK        -0.5000 
     99 N          -7.1304  -23.1607  -50.7109 N.am      18 UNK        -0.5000 
    100 CA        -6.9636  -22.3663  -51.9251 C.3       18 UNK         0.1400 
    101 CB        -6.4891  -23.2791  -53.0651 C.3       18 UNK        -0.1800 
    102 C         -5.9533  -21.2281  -51.7009 C.2       18 UNK         0.5000 
    103 O         -4.9559  -21.4160  -50.9988 O.2       18 UNK        -0.5000 
    104 N         -6.1917  -20.0861  -52.3563 N.am      19 UNK        -0.5000 
    105 CA        -5.2907  -18.9319  -52.3910 C.3       19 UNK         0.1400 
    106 CB        -6.1184  -17.6581  -52.6385 C.3       19 UNK        -0.1800 
    107 C         -4.1810  -19.1397  -53.4424 C.2       19 UNK         0.5000 
    108 O         -4.0887  -18.3884  -54.4154 O.2       19 UNK        -0.5000 
    109 N         -3.3905  -20.2004  -53.2461 N.am      20 UNK        -0.5000 
    110 CA        -2.2527  -20.5857  -54.0780 C.3       20 UNK         0.1400 
    111 CB        -1.8406  -22.0143  -53.6857 C.3       20 UNK        -0.1800 
    112 C         -1.0656  -19.6127  -53.9371 C.2       20 UNK         0.5000 
    113 O         -1.0511  -18.7922  -53.0185 O.2       20 UNK        -0.5000 
    114 N         -0.0856  -19.7482  -54.8434 N.am      21 UNK        -0.5000 
    115 CA         1.1985  -19.0373  -54.9034 C.3       21 UNK         0.1400 
    116 CB         2.1600  -19.5669  -53.8203 C.3       21 UNK        -0.1800 
    117 C          1.0538  -17.5024  -54.8729 C.2       21 UNK         0.5000 
    118 O          0.9657  -16.8840  -55.9349 O.2       21 UNK        -0.5000 
    119 N          1.0291  -16.9248  -53.6656 N.am      22 UNK        -0.5000 
    120 CA         0.7816  -15.4989  -53.4113 C.3       22 UNK         0.1400 
    121 C         -0.6641  -15.0491  -53.7698 C.2       22 UNK         0.5000 
    122 N         -1.6536  -15.9334  -53.7146 N.am      22 UNK        -0.7600 
    123 O         -0.8829  -13.8891  -54.1041 O.2       22 UNK        -0.5000 
    124 C124        1.1114  -15.0815  -51.9514 C.3       23 UNK        -0.0398 
    125 S125        2.6494  -15.8152  -51.2829 S.3       23 UNK        -0.2404 
    126 C126        2.1162  -16.4446  -49.6543 C.3       23 UNK        -0.0205 
    127 H127       -0.7952  -12.3525  -51.4945 H         1 UNK         0.0600 
    128 H128       -1.3623  -11.2646  -52.7464 H         1 UNK         0.0600 
    129 H129       -1.5281  -10.7991  -51.0550 H         1 UNK         0.0600 
    130 H130       -4.1914  -13.6223  -50.8422 H         1 UNK         0.3000 
    131 H131       -1.4881  -14.0555  -50.1189 H         1 UNK         0.0600 
    132 H132       -2.4890  -15.2412  -48.1509 H         1 UNK         0.0800 
    133 H133       -4.0636  -14.6221  -48.5603 H         1 UNK         0.0800 
    134 H134       -3.4218  -18.5776  -49.3374 H         1 UNK         0.0800 
    135 H135       -2.8446  -17.5347  -48.0671 H         1 UNK         0.0800 
    136 H136       -0.5258  -16.1427  -49.0988 H         1 UNK         0.1150 
    137 H137        2.3151  -19.0729  -50.3908 H         1 UNK         0.1150 
    138 H138       -1.8102  -20.1421  -49.9223 H         1 UNK         0.1150 
    139 H139       -0.3124  -21.8175  -50.5257 H         1 UNK         0.0800 
    140 H140        0.8787  -21.2304  -51.6502 H         1 UNK         0.0800 
    141 H141        0.8486  -20.6572  -47.8322 H         1 UNK         0.0800 
    142 H142        2.3090  -21.4491  -47.3482 H         1 UNK         0.0800 
    143 H143        1.1131  -23.6659  -47.3426 H         1 UNK         0.0600 
    144 H144        0.8722  -21.6019  -45.4247 H         1 UNK         0.3000 
    145 H145       -0.6739  -23.5489  -42.8395 H         1 UNK         0.0600 
    146 H146        1.3301  -22.6650  -41.6717 H         1 UNK         0.0600 
    147 H147        1.7845  -23.9639  -42.7651 H         1 UNK         0.0600 
    148 H148        2.0967  -22.2916  -43.2138 H         1 UNK         0.0600 
    149 H149        0.0928  -20.8150  -42.8980 H         1 UNK         0.3000 
    150 H150       -3.0295  -19.5091  -44.1339 H         1 UNK         0.0600 
    151 H151       -3.2433  -19.8123  -41.6789 H         1 UNK         0.0600 
    152 H152       -2.7095  -18.1805  -42.0561 H         1 UNK         0.0600 
    153 H153       -1.5582  -19.3679  -41.4494 H         1 UNK         0.0600 
    154 H154       -0.6454  -18.1394  -43.4880 H         1 UNK         0.3000 
    155 H155        0.9151  -18.3639  -46.7120 H         1 UNK         0.0600 
    156 H156       -0.1183  -15.9710  -45.1127 H         1 UNK         0.0600 
    157 H157       -0.8764  -16.5075  -46.5964 H         1 UNK         0.0600 
    158 H158        0.7847  -15.9786  -46.6221 H         1 UNK         0.0600 
    159 H159        1.6638  -17.2331  -44.1466 H         1 UNK         0.3000 
    160 H160        3.3098  -20.1290  -42.9095 H         1 UNK         0.0600 
    161 H161        5.3203  -18.7509  -42.8004 H         1 UNK         0.0600 
    162 H162        4.6619  -17.5909  -43.9446 H         1 UNK         0.0600 
    163 H163        5.0414  -19.2253  -44.4685 H         1 UNK         0.0600 
    164 H164        3.0541  -17.3372  -42.1053 H         1 UNK         0.3000 
    165 H165        0.0759  -17.8615  -40.2190 H         1 UNK         0.0600 
    166 H166        1.4582  -17.0969  -38.3096 H         1 UNK         0.0600 
    167 H167        1.8176  -18.7766  -38.6760 H         1 UNK         0.0600 
    168 H168        2.9379  -17.5145  -39.1749 H         1 UNK         0.0600 
    169 H169        1.8418  -15.6380  -40.3751 H         1 UNK         0.3000 
    170 H170       -0.1231  -13.8871  -42.6287 H         1 UNK         0.0600 
    171 H171        0.7502  -13.5066  -40.3040 H         1 UNK         0.0600 
    172 H172        2.3987  -13.7468  -40.8841 H         1 UNK         0.0600 
    173 H173        1.4428  -12.3944  -41.4697 H         1 UNK         0.0600 
    174 H174        1.3874  -13.5506  -44.2351 H         1 UNK         0.3000 
    175 H175        4.7724  -14.1104  -44.5852 H         1 UNK         0.0600 
    176 H176        2.8386  -15.2996  -46.6132 H         1 UNK         0.0600 
    177 H177        4.5763  -15.1212  -46.7317 H         1 UNK         0.0600 
    178 H178        3.8947  -16.3126  -45.6412 H         1 UNK         0.0600 
    179 H179        2.7784  -13.0158  -46.3770 H         1 UNK         0.3000 
    180 H180        2.9175   -9.7261  -45.0219 H         1 UNK         0.0600 
    181 H181        4.8891   -9.9685  -46.4953 H         1 UNK         0.0600 
    182 H182        3.5455   -9.2487  -47.3683 H         1 UNK         0.0600 
    183 H183        3.9647  -10.9409  -47.6293 H         1 UNK         0.0600 
    184 H184        0.9111  -10.0190  -45.7910 H         1 UNK         0.3000 
    185 H185       -1.0181  -11.2512  -46.6047 H         1 UNK         0.0600 
    186 H186       -0.2463   -9.0641  -47.6080 H         1 UNK         0.0600 
    187 H187       -0.0019   -9.8532  -49.1602 H         1 UNK         0.0600 
    188 H188       -1.6233   -9.6832  -48.4931 H         1 UNK         0.0600 
    189 H189       -0.1377  -12.8879  -48.7689 H         1 UNK         0.3000 
    190 H190       -1.5349  -21.2715  -46.7862 H         1 UNK         0.3000 
    191 H191       -3.2584  -22.1328  -48.8411 H         1 UNK         0.0600 
    192 H192       -3.9999  -20.9316  -46.1203 H         1 UNK         0.0600 
    193 H193       -5.0093  -20.9553  -47.5627 H         1 UNK         0.0600 
    194 H194       -3.5294  -20.0100  -47.5399 H         1 UNK         0.0600 
    195 H195       -3.0114  -23.2573  -45.4197 H         1 UNK         0.3000 
    196 H196       -5.1054  -25.1528  -45.5120 H         1 UNK         0.0600 
    197 H197       -3.9960  -26.1174  -43.4980 H         1 UNK         0.0600 
    198 H198       -4.0875  -24.3653  -43.3998 H         1 UNK         0.0600 
    199 H199       -2.5618  -25.1469  -43.8040 H         1 UNK         0.0600 
    200 H200       -1.6092  -25.5498  -46.2494 H         1 UNK         0.3000 
    201 H201       -1.6997  -28.3067  -46.9477 H         1 UNK         0.0600 
    202 H202        0.2143  -26.1017  -47.8800 H         1 UNK         0.0600 
    203 H203        0.4033  -27.0905  -46.4344 H         1 UNK         0.0600 
    204 H204        0.4952  -27.8316  -48.0255 H         1 UNK         0.0600 
    205 H205       -2.3673  -25.3785  -48.8385 H         1 UNK         0.3000 
    206 H206       -2.7926  -26.7716  -51.3585 H         1 UNK         0.0600 
    207 H207       -3.4332  -23.8897  -50.5451 H         1 UNK         0.0600 
    208 H208       -1.8888  -24.4287  -51.2015 H         1 UNK         0.0600 
    209 H209       -3.3393  -24.5237  -52.1820 H         1 UNK         0.0600 
    210 H210       -4.5974  -27.0054  -48.6689 H         1 UNK         0.3000 
    211 H211       -6.6398  -27.6189  -48.1426 H         1 UNK         0.0600 
    212 H212       -7.1626  -28.1040  -51.1210 H         1 UNK         0.0600 
    213 H213       -8.0661  -28.7782  -49.7735 H         1 UNK         0.0600 
    214 H214       -6.3927  -29.2479  -50.0220 H         1 UNK         0.0600 
    215 H215       -6.1732  -24.9380  -48.2555 H         1 UNK         0.3000 
    216 H216       -7.1733  -23.0917  -47.7005 H         1 UNK         0.0600 
    217 H217       -9.9231  -24.2546  -48.3588 H         1 UNK         0.0600 
    218 H218       -9.5766  -22.8315  -47.3922 H         1 UNK         0.0600 
    219 H219       -9.1076  -24.4165  -46.8024 H         1 UNK         0.0600 
    220 H220       -6.5564  -23.9878  -50.6253 H         1 UNK         0.3000 
    221 H221       -7.9295  -21.9404  -52.2053 H         1 UNK         0.0600 
    222 H222       -5.5031  -23.6967  -52.8615 H         1 UNK         0.0600 
    223 H223       -7.1781  -24.1097  -53.2207 H         1 UNK         0.0600 
    224 H224       -6.4226  -22.7291  -54.0046 H         1 UNK         0.0600 
    225 H225       -7.0104  -20.0236  -52.9443 H         1 UNK         0.3000 
    226 H226       -4.8030  -18.8252  -51.4200 H         1 UNK         0.0600 
    227 H227       -6.8580  -17.5110  -51.8513 H         1 UNK         0.0600 
    228 H228       -5.4784  -16.7747  -52.6487 H         1 UNK         0.0600 
    229 H229       -6.6450  -17.6957  -53.5928 H         1 UNK         0.0600 
    230 H230       -3.5537  -20.7541  -52.4136 H         1 UNK         0.3000 
    231 H231       -2.5731  -20.5833  -55.1218 H         1 UNK         0.0600 
    232 H232       -2.6615  -22.7147  -53.8405 H         1 UNK         0.0600 
    233 H233       -1.5464  -22.0729  -52.6376 H         1 UNK         0.0600 
    234 H234       -0.9996  -22.3674  -54.2835 H         1 UNK         0.0600 
    235 H235       -0.2206  -20.4295  -55.5770 H         1 UNK         0.3000 
    236 H236        1.6380  -19.2848  -55.8710 H         1 UNK         0.0600 
    237 H237        3.1274  -19.0664  -53.8772 H         1 UNK         0.0600 
    238 H238        1.7697  -19.4100  -52.8173 H         1 UNK         0.0600 
    239 H239        2.3389  -20.6351  -53.9425 H         1 UNK         0.0600 
    240 H240        1.0370  -17.5209  -52.8496 H         1 UNK         0.3000 
    241 H241        1.4555  -14.9445  -54.0670 H         1 UNK         0.0600 
    242 H242       -2.5908  -15.6545  -53.9529 H         1 UNK         0.3800 
    243 H243       -1.4685  -16.8921  -53.4329 H         1 UNK         0.3800 
    244 H244        0.2807  -15.3368  -51.2960 H         1 UNK         0.0800 
    245 H245        1.2063  -13.9962  -51.8918 H         1 UNK         0.0800 
    246 H246        2.9781  -16.8799  -49.1468 H         1 UNK         0.0800 
    247 H247        1.7985  -15.6022  -49.0378 H         1 UNK         0.0800 
@<TRIPOS>BOND
     1    1    2 1    
     2    1  127 1    
     3    1  128 1    
     4    1  129 1    
     5    2    3 2    
     6    2    4 am   BACKBONE|DICT|INTERRES
     7    4    5 1    
     8    4  130 1    
     9    5    6 1    
    10    5   65 1    
    11    5  131 1    
    12    6    7 1    
    13    6  132 1    
    14    6  133 1    
    15    7    8 1    
    16    8    9 1    
    17    8  134 1    
    18    8  135 1    
    19    9   10 ar   
    20    9   14 ar   
    21   10   11 ar   
    22   10  136 1    
    23   11   12 ar   
    24   11  126 1    
    25   12   13 ar   
    26   12  137 1    
    27   13   14 ar   
    28   13   15 1    
    29   14  138 1    
    30   15   16 1    
    31   15  139 1    
    32   15  140 1    
    33   16   17 1    
    34   17   18 1    
    35   17  141 1    
    36   17  142 1    
    37   18   19 1    
    38   18   67 1    
    39   18  143 1    
    40   19   20 am   BACKBONE|DICT|INTERRES
    41   19  144 1    
    42   20   21 2    
    43   20   22 1    
    44   22   23 1    
    45   22   24 1    
    46   22  145 1    
    47   23  146 1    
    48   23  147 1    
    49   23  148 1    
    50   24   25 am   BACKBONE|DICT|INTERRES
    51   24  149 1    
    52   25   26 2    
    53   25   27 1    
    54   27   28 1    
    55   27   29 1    
    56   27  150 1    
    57   28  151 1    
    58   28  152 1    
    59   28  153 1    
    60   29   30 am   BACKBONE|DICT|INTERRES
    61   29  154 1    
    62   30   31 2    
    63   30   32 1    
    64   32   33 1    
    65   32   34 1    
    66   32  155 1    
    67   33  156 1    
    68   33  157 1    
    69   33  158 1    
    70   34   35 am   BACKBONE|DICT|INTERRES
    71   34  159 1    
    72   35   36 2    
    73   35   37 1    
    74   37   38 1    
    75   37   39 1    
    76   37  160 1    
    77   38  161 1    
    78   38  162 1    
    79   38  163 1    
    80   39   40 am   BACKBONE|DICT|INTERRES
    81   39  164 1    
    82   40   41 2    
    83   40   42 1    
    84   42   43 1    
    85   42   44 1    
    86   42  165 1    
    87   43  166 1    
    88   43  167 1    
    89   43  168 1    
    90   44   45 am   BACKBONE|DICT|INTERRES
    91   44  169 1    
    92   45   46 2    
    93   45   47 1    
    94   47   48 1    
    95   47   49 1    
    96   47  170 1    
    97   48  171 1    
    98   48  172 1    
    99   48  173 1    
   100   49   50 am   BACKBONE|DICT|INTERRES
   101   49  174 1    
   102   50   51 2    
   103   50   52 1    
   104   52   53 1    
   105   52   54 1    
   106   52  175 1    
   107   53  176 1    
   108   53  177 1    
   109   53  178 1    
   110   54   55 am   BACKBONE|DICT|INTERRES
   111   54  179 1    
   112   55   56 2    
   113   55   57 1    
   114   57   58 1    
   115   57   59 1    
   116   57  180 1    
   117   58  181 1    
   118   58  182 1    
   119   58  183 1    
   120   59   60 am   BACKBONE|DICT|INTERRES
   121   59  184 1    
   122   60   61 2    
   123   60   62 1    
   124   62   63 1    
   125   62   64 1    
   126   62  185 1    
   127   63  186 1    
   128   63  187 1    
   129   63  188 1    
   130   64   65 am   BACKBONE|DICT|INTERRES
   131   64  189 1    
   132   65   66 2    
   133   67   68 2    
   134   67   69 am   BACKBONE|DICT|INTERRES
   135   69   70 1    
   136   69  190 1    
   137   70   71 1    
   138   70   72 1    
   139   70  191 1    
   140   71  192 1    
   141   71  193 1    
   142   71  194 1    
   143   72   73 2    
   144   72   74 am   BACKBONE|DICT|INTERRES
   145   74   75 1    
   146   74  195 1    
   147   75   76 1    
   148   75   77 1    
   149   75  196 1    
   150   76  197 1    
   151   76  198 1    
   152   76  199 1    
   153   77   78 2    
   154   77   79 am   BACKBONE|DICT|INTERRES
   155   79   80 1    
   156   79  200 1    
   157   80   81 1    
   158   80   82 1    
   159   80  201 1    
   160   81  202 1    
   161   81  203 1    
   162   81  204 1    
   163   82   83 2    
   164   82   84 am   BACKBONE|DICT|INTERRES
   165   84   85 1    
   166   84  205 1    
   167   85   86 1    
   168   85   87 1    
   169   85  206 1    
   170   86  207 1    
   171   86  208 1    
   172   86  209 1    
   173   87   88 2    
   174   87   89 am   BACKBONE|DICT|INTERRES
   175   89   90 1    
   176   89  210 1    
   177   90   91 1    
   178   90   92 1    
   179   90  211 1    
   180   91  212 1    
   181   91  213 1    
   182   91  214 1    
   183   92   93 2    
   184   92   94 am   BACKBONE|DICT|INTERRES
   185   94   95 1    
   186   94  215 1    
   187   95   96 1    
   188   95   97 1    
   189   95  216 1    
   190   96  217 1    
   191   96  218 1    
   192   96  219 1    
   193   97   98 2    
   194   97   99 am   BACKBONE|DICT|INTERRES
   195   99  100 1    
   196   99  220 1    
   197  100  101 1    
   198  100  102 1    
   199  100  221 1    
   200  101  222 1    
   201  101  223 1    
   202  101  224 1    
   203  102  103 2    
   204  102  104 am   BACKBONE|DICT|INTERRES
   205  104  105 1    
   206  104  225 1    
   207  105  106 1    
   208  105  107 1    
   209  105  226 1    
   210  106  227 1    
   211  106  228 1    
   212  106  229 1    
   213  107  108 2    
   214  107  109 am   BACKBONE|DICT|INTERRES
   215  109  110 1    
   216  109  230 1    
   217  110  111 1    
   218  110  112 1    
   219  110  231 1    
   220  111  232 1    
   221  111  233 1    
   222  111  234 1    
   223  112  113 2    
   224  112  114 am   BACKBONE|DICT|INTERRES
   225  114  115 1    
   226  114  235 1    
   227  115  116 1    
   228  115  117 1    
   229  115  236 1    
   230  116  237 1    
   231  116  238 1    
   232  116  239 1    
   233  117  118 2    
   234  117  119 am   BACKBONE|DICT|INTERRES
   235  119  120 1    
   236  119  240 1    
   237  120  121 1    
   238  120  124 1    
   239  120  241 1    
   240  121  122 am   BACKBONE|DICT|INTERRES
   241  121  123 2    
   242  122  242 1    
   243  122  243 1    
   244  124  125 1    
   245  124  244 1    
   246  124  245 1    
   247  125  126 1    
   248  126  246 1    
   249  126  247 1    
@<TRIPOS>SUBSTRUCTURE
     1 UNK         1 GROUP             0       ****    0 ROOT    
