@<TRIPOS>MOLECULE
3R540
247   249    1
SMALL
USER_CHARGES


@<TRIPOS>ATOM
      1 CA         -4.0355  -16.3937  -44.5017 C.3       0 UNK        -0.1800 
      2 C          -3.7388  -14.9487  -44.8781 C.2       0 UNK         0.5000 
      3 O          -4.2731  -14.0282  -44.2589 O.2       0 UNK        -0.5000 
      4 N          -2.8922  -14.7520  -45.8947 N.am      1 UNK        -0.5000 
      5 CA         -2.3967  -13.4469  -46.3446 C.3       1 UNK         0.1400 
      6 C6         -1.8032  -13.5300  -47.7727 C.3       23 UNK        -0.0398 
      7 S7         -3.0873  -13.7746  -49.0477 S.3       23 UNK        -0.2404 
      8 C8         -3.1672  -15.5860  -49.2207 C.3       23 UNK        -0.0205 
      9 C9         -1.8980  -16.1760  -49.8159 C.ar      23 UNK        -0.0193 
     10 C10        -1.6786  -16.1203  -51.1948 C.ar      23 UNK        -0.1150 
     11 C11        -0.5395  -16.7042  -51.7587 C.ar      23 UNK        -0.0193 
     12 C12         0.3918  -17.3318  -50.9253 C.ar      23 UNK        -0.1150 
     13 C13         0.1902  -17.3831  -49.5436 C.ar      23 UNK        -0.0193 
     14 C14        -0.9573  -16.8041  -48.9948 C.ar      23 UNK        -0.1150 
     15 C15         1.2065  -18.0760  -48.6473 C.3       23 UNK        -0.0205 
     16 S16         0.9272  -19.8728  -48.5860 S.3       23 UNK        -0.2404 
     17 C17        -0.6964  -19.9228  -47.7616 C.3       23 UNK        -0.0398 
     18 CA         -1.0171  -21.3146  -47.1785 C.3       11 UNK         0.1400 
     19 N          -0.2083  -21.6373  -46.0009 N.am      11 UNK        -0.5000 
     20 C          -0.1747  -22.8410  -45.4117 C.2       10 UNK         0.5000 
     21 O          -0.8037  -23.8184  -45.8173 O.2       10 UNK        -0.5000 
     22 CA          0.6511  -22.9591  -44.1187 C.3       10 UNK         0.1400 
     23 CB          2.1544  -23.0064  -44.4275 C.3       10 UNK        -0.1800 
     24 N           0.3698  -21.8747  -43.1774 N.am      10 UNK        -0.5000 
     25 C          -0.8275  -21.6485  -42.6179 C.2       9 UNK         0.5000 
     26 O          -1.8174  -22.3532  -42.8102 O.2       9 UNK        -0.5000 
     27 CA         -0.9547  -20.4032  -41.7261 C.3       9 UNK         0.1400 
     28 CB         -0.4545  -20.6924  -40.3028 C.3       9 UNK        -0.1800 
     29 N          -0.2369  -19.2548  -42.2742 N.am      9 UNK        -0.5000 
     30 C          -0.5840  -18.6005  -43.3911 C.2       8 UNK         0.5000 
     31 O          -1.5584  -18.8882  -44.0868 O.2       8 UNK        -0.5000 
     32 CA          0.3551  -17.4594  -43.8193 C.3       8 UNK         0.1400 
     33 CB          0.1648  -16.2433  -42.9005 C.3       8 UNK        -0.1800 
     34 N           1.7623  -17.8654  -43.8061 N.am      8 UNK        -0.5000 
     35 C           2.2723  -18.8518  -44.5614 C.2       7 UNK         0.5000 
     36 O           1.6132  -19.4946  -45.3749 O.2       7 UNK        -0.5000 
     37 CA          3.7495  -19.2281  -44.3355 C.3       7 UNK         0.1400 
     38 CB          4.6581  -18.3641  -45.2226 C.3       7 UNK        -0.1800 
     39 N           4.1755  -19.0976  -42.9427 N.am      7 UNK        -0.5000 
     40 C           3.5931  -19.6782  -41.8833 C.2       6 UNK         0.5000 
     41 O           2.6881  -20.5084  -41.9739 O.2       6 UNK        -0.5000 
     42 CA          4.0567  -19.2133  -40.4864 C.3       6 UNK         0.1400 
     43 CB          4.9192  -20.2966  -39.8219 C.3       6 UNK        -0.1800 
     44 N           4.7937  -17.9416  -40.4740 N.am      6 UNK        -0.5000 
     45 C           4.3323  -16.7592  -40.9057 C.2       5 UNK         0.5000 
     46 O           3.2101  -16.5958  -41.3968 O.2       5 UNK        -0.5000 
     47 CA          5.3166  -15.5834  -40.8350 C.3       5 UNK         0.1400 
     48 CB          6.4661  -15.7686  -41.8457 C.3       5 UNK        -0.1800 
     49 N           4.5927  -14.3559  -41.1360 N.am      5 UNK        -0.5000 
     50 C           4.9884  -13.1104  -40.8546 C.2       4 UNK         0.5000 
     51 O           6.0281  -12.8460  -40.2475 O.2       4 UNK        -0.5000 
     52 CA          4.0567  -11.9793  -41.3429 C.3       4 UNK         0.1400 
     53 CB          4.7497  -10.6013  -41.3903 C.3       4 UNK        -0.1800 
     54 N           3.4114  -12.2827  -42.6278 N.am      4 UNK        -0.5000 
     55 C           4.0085  -12.5060  -43.8112 C.2       3 UNK         0.5000 
     56 O           5.2264  -12.4724  -43.9891 O.2       3 UNK        -0.5000 
     57 CA          3.0856  -12.8350  -45.0021 C.3       3 UNK         0.1400 
     58 CB          3.0733  -14.3507  -45.2647 C.3       3 UNK        -0.1800 
     59 N           1.7096  -12.3740  -44.8025 N.am      3 UNK        -0.5000 
     60 C           1.2994  -11.1012  -44.8657 C.2       2 UNK         0.5000 
     61 O           2.0434  -10.1661  -45.1667 O.2       2 UNK        -0.5000 
     62 CA         -0.1889  -10.8419  -44.5320 C.3       2 UNK         0.1400 
     63 CB         -0.5553   -9.3474  -44.5840 C.3       2 UNK        -0.1800 
     64 N          -1.1183  -11.5796  -45.3939 N.am      2 UNK        -0.5000 
     65 C          -1.3514  -12.8978  -45.3511 C.2       1 UNK         0.5000 
     66 O          -0.7585  -13.6645  -44.5881 O.2       1 UNK        -0.5000 
     67 C          -2.5258  -21.4322  -46.8981 C.2       11 UNK         0.5000 
     68 O          -3.2484  -21.9268  -47.7626 O.2       11 UNK        -0.5000 
     69 N          -2.9743  -21.0048  -45.7083 N.am      12 UNK        -0.5000 
     70 CA         -4.3636  -21.1312  -45.2649 C.3       12 UNK         0.1400 
     71 CB         -4.5751  -20.3359  -43.9682 C.3       12 UNK        -0.1800 
     72 C          -4.7953  -22.5983  -45.0862 C.2       12 UNK         0.5000 
     73 O          -5.8813  -22.9659  -45.5342 O.2       12 UNK        -0.5000 
     74 N          -3.9273  -23.4133  -44.4701 N.am      13 UNK        -0.5000 
     75 CA         -4.1305  -24.8486  -44.2645 C.3       13 UNK         0.1400 
     76 CB         -3.0542  -25.3874  -43.3099 C.3       13 UNK        -0.1800 
     77 C          -4.1392  -25.6458  -45.5816 C.2       13 UNK         0.5000 
     78 O          -4.9753  -26.5345  -45.7486 O.2       13 UNK        -0.5000 
     79 N          -3.2258  -25.3007  -46.4992 N.am      14 UNK        -0.5000 
     80 CA         -3.1295  -25.8891  -47.8369 C.3       14 UNK         0.1400 
     81 CB         -1.7466  -25.5607  -48.4217 C.3       14 UNK        -0.1800 
     82 C          -4.2325  -25.4091  -48.8008 C.2       14 UNK         0.5000 
     83 O          -4.4709  -26.0690  -49.8126 O.2       14 UNK        -0.5000 
     84 N          -4.8479  -24.2580  -48.4888 N.am      15 UNK        -0.5000 
     85 CA         -5.7667  -23.4762  -49.3221 C.3       15 UNK         0.1400 
     86 CB         -7.0879  -24.2351  -49.5622 C.3       15 UNK        -0.1800 
     87 C          -5.0890  -23.0120  -50.6276 C.2       15 UNK         0.5000 
     88 O          -5.6982  -23.0640  -51.6963 O.2       15 UNK        -0.5000 
     89 N          -3.8232  -22.5820  -50.5190 N.am      16 UNK        -0.5000 
     90 CA         -2.9054  -22.3095  -51.6313 C.3       16 UNK         0.1400 
     91 CB         -1.5342  -21.9106  -51.0680 C.3       16 UNK        -0.1800 
     92 C          -3.3991  -21.2491  -52.6317 C.2       16 UNK         0.5000 
     93 O          -3.0853  -21.3415  -53.8181 O.2       16 UNK        -0.5000 
     94 N          -4.1939  -20.2889  -52.1471 N.am      17 UNK        -0.5000 
     95 CA         -4.8107  -19.2379  -52.9544 C.3       17 UNK         0.1400 
     96 CB         -5.2337  -18.0902  -52.0252 C.3       17 UNK        -0.1800 
     97 C          -5.9994  -19.7222  -53.8098 C.2       17 UNK         0.5000 
     98 O          -6.4138  -18.9912  -54.7099 O.2       17 UNK        -0.5000 
     99 N          -6.5287  -20.9208  -53.5268 N.am      18 UNK        -0.5000 
    100 CA        -7.6796  -21.5076  -54.2128 C.3       18 UNK         0.1400 
    101 CB        -8.8060  -21.7433  -53.1929 C.3       18 UNK        -0.1800 
    102 C         -7.3062  -22.8198  -54.9187 C.2       18 UNK         0.5000 
    103 O         -7.6316  -22.9871  -56.0940 O.2       18 UNK        -0.5000 
    104 N         -6.6393  -23.7287  -54.1949 N.am      19 UNK        -0.5000 
    105 CA        -6.2917  -25.0722  -54.6565 C.3       19 UNK         0.1400 
    106 CB        -5.9499  -25.9544  -53.4446 C.3       19 UNK        -0.1800 
    107 C         -5.1380  -25.0582  -55.6705 C.2       19 UNK         0.5000 
    108 O         -5.2549  -25.6635  -56.7367 O.2       19 UNK        -0.5000 
    109 N         -4.0552  -24.3504  -55.3240 N.am      20 UNK        -0.5000 
    110 CA        -2.8897  -24.1531  -56.1894 C.3       20 UNK         0.1400 
    111 CB        -1.6181  -24.1482  -55.3248 C.3       20 UNK        -0.1800 
    112 C         -2.9930  -22.8572  -57.0154 C.2       20 UNK         0.5000 
    113 O         -2.1932  -22.6643  -57.9323 O.2       20 UNK        -0.5000 
    114 N         -3.9457  -21.9807  -56.6581 N.am      21 UNK        -0.5000 
    115 CA        -4.2093  -20.6561  -57.2335 C.3       21 UNK         0.1400 
    116 CB        -4.8156  -20.8017  -58.6439 C.3       21 UNK        -0.1800 
    117 C         -2.9800  -19.7195  -57.2010 C.2       21 UNK         0.5000 
    118 O         -2.8093  -18.8985  -58.1040 O.2       21 UNK        -0.5000 
    119 N         -2.1288  -19.8910  -56.1788 N.am      22 UNK        -0.5000 
    120 CA        -0.8029  -19.2630  -56.0302 C.3       22 UNK         0.1400 
    121 C          0.2362  -19.6616  -57.1273 C.2       22 UNK         0.5000 
    122 N          0.0261  -20.7220  -57.8995 N.am      22 UNK        -0.7600 
    123 O          1.2767  -19.0230  -57.2621 O.2       22 UNK        -0.5000 
    124 C124       -0.8837  -17.7264  -55.7995 C.3       23 UNK        -0.0398 
    125 S125       -1.6947  -17.3343  -54.2131 S.3       23 UNK        -0.2404 
    126 C126       -0.2995  -16.6500  -53.2614 C.3       23 UNK        -0.0205 
    127 H127       -3.6725  -16.6018  -43.4951 H         1 UNK         0.0600 
    128 H128       -5.1096  -16.5774  -44.5241 H         1 UNK         0.0600 
    129 H129       -3.5570  -17.0966  -45.1846 H         1 UNK         0.0600 
    130 H130       -2.4592  -15.5518  -46.3278 H         1 UNK         0.3000 
    131 H131       -3.2349  -12.7465  -46.3558 H         1 UNK         0.0600 
    132 H132       -1.0400  -14.3052  -47.8386 H         1 UNK         0.0800 
    133 H133       -1.2954  -12.5993  -48.0321 H         1 UNK         0.0800 
    134 H134       -4.0106  -15.8298  -49.8680 H         1 UNK         0.0800 
    135 H135       -3.3940  -16.0450  -48.2586 H         1 UNK         0.0800 
    136 H136       -2.4031  -15.6334  -51.8326 H         1 UNK         0.1150 
    137 H137        1.2759  -17.7869  -51.3493 H         1 UNK         0.1150 
    138 H138       -1.1216  -16.8533  -47.9281 H         1 UNK         0.1150 
    139 H139        2.2146  -17.8873  -49.0188 H         1 UNK         0.0800 
    140 H140        1.1739  -17.6667  -47.6362 H         1 UNK         0.0800 
    141 H141       -0.7300  -19.1679  -46.9737 H         1 UNK         0.0800 
    142 H142       -1.4407  -19.6283  -48.5039 H         1 UNK         0.0800 
    143 H143       -0.7861  -22.0611  -47.9414 H         1 UNK         0.0600 
    144 H144        0.3716  -20.8850  -45.6354 H         1 UNK         0.3000 
    145 H145        0.3760  -23.8969  -43.6317 H         1 UNK         0.0600 
    146 H146        2.4837  -22.1150  -44.9598 H         1 UNK         0.0600 
    147 H147        2.7445  -23.0908  -43.5147 H         1 UNK         0.0600 
    148 H148        2.3945  -23.8668  -45.0532 H         1 UNK         0.0600 
    149 H149        1.1454  -21.2690  -42.9261 H         1 UNK         0.3000 
    150 H150       -2.0132  -20.1420  -41.6666 H         1 UNK         0.0600 
    151 H151       -0.5986  -19.8303  -39.6514 H         1 UNK         0.0600 
    152 H152        0.6049  -20.9502  -40.2890 H         1 UNK         0.0600 
    153 H153       -1.0002  -21.5275  -39.8617 H         1 UNK         0.0600 
    154 H154        0.6148  -18.9864  -41.8041 H         1 UNK         0.3000 
    155 H155        0.0944  -17.1682  -44.8391 H         1 UNK         0.0600 
    156 H156       -0.8715  -15.9027  -42.9157 H         1 UNK         0.0600 
    157 H157        0.7845  -15.4059  -43.2164 H         1 UNK         0.0600 
    158 H158        0.4209  -16.4709  -41.8652 H         1 UNK         0.0600 
    159 H159        2.3579  -17.4133  -43.1209 H         1 UNK         0.3000 
    160 H160        3.8791  -20.2719  -44.6241 H         1 UNK         0.0600 
    161 H161        4.5989  -17.3088  -44.9527 H         1 UNK         0.0600 
    162 H162        4.3746  -18.4509  -46.2726 H         1 UNK         0.0600 
    163 H163        5.7001  -18.6741  -45.1417 H         1 UNK         0.0600 
    164 H164        4.9145  -18.4359  -42.7615 H         1 UNK         0.3000 
    165 H165        3.1564  -19.0758  -39.8842 H         1 UNK         0.0600 
    166 H166        5.8503  -20.4588  -40.3663 H         1 UNK         0.0600 
    167 H167        5.1711  -20.0274  -38.7959 H         1 UNK         0.0600 
    168 H168        4.3905  -21.2502  -39.7844 H         1 UNK         0.0600 
    169 H169        5.7316  -17.9834  -40.1011 H         1 UNK         0.3000 
    170 H170        5.7154  -15.5291  -39.8201 H         1 UNK         0.0600 
    171 H171        7.0292  -16.6812  -41.6480 H         1 UNK         0.0600 
    172 H172        6.0932  -15.8249  -42.8694 H         1 UNK         0.0600 
    173 H173        7.1744  -14.9414  -41.7973 H         1 UNK         0.0600 
    174 H174        3.6995  -14.5087  -41.5873 H         1 UNK         0.3000 
    175 H175        3.2540  -11.9149  -40.6070 H         1 UNK         0.0600 
    176 H176        4.0630   -9.8267  -41.7318 H         1 UNK         0.0600 
    177 H177        5.1033  -10.3070  -40.4016 H         1 UNK         0.0600 
    178 H178        5.6117  -10.6032  -42.0579 H         1 UNK         0.0600 
    179 H179        2.4041  -12.3483  -42.6038 H         1 UNK         0.3000 
    180 H180        3.4908  -12.3370  -45.8855 H         1 UNK         0.0600 
    181 H181        2.4185  -14.6052  -46.0984 H         1 UNK         0.0600 
    182 H182        4.0725  -14.7091  -45.5156 H         1 UNK         0.0600 
    183 H183        2.7390  -14.9102  -44.3913 H         1 UNK         0.0600 
    184 H184        1.0053  -13.0790  -44.5968 H         1 UNK         0.3000 
    185 H185       -0.3418  -11.1783  -43.5043 H         1 UNK         0.0600 
    186 H186       -1.5865   -9.1827  -44.2709 H         1 UNK         0.0600 
    187 H187        0.0798   -8.7639  -43.9161 H         1 UNK         0.0600 
    188 H188       -0.4400   -8.9388  -45.5887 H         1 UNK         0.0600 
    189 H189       -1.6225  -11.0206  -46.0671 H         1 UNK         0.3000 
    190 H190       -2.3292  -20.5601  -45.0640 H         1 UNK         0.3000 
    191 H191       -4.9995  -20.6905  -46.0357 H         1 UNK         0.0600 
    192 H192       -5.6136  -20.3934  -43.6401 H         1 UNK         0.0600 
    193 H193       -4.3374  -19.2823  -44.1091 H         1 UNK         0.0600 
    194 H194       -3.9535  -20.7122  -43.1562 H         1 UNK         0.0600 
    195 H195       -3.0732  -23.0182  -44.0844 H         1 UNK         0.3000 
    196 H196       -5.1038  -24.9839  -43.7884 H         1 UNK         0.0600 
    197 H197       -3.1871  -26.4552  -43.1319 H         1 UNK         0.0600 
    198 H198       -3.1012  -24.8877  -42.3422 H         1 UNK         0.0600 
    199 H199       -2.0506  -25.2422  -43.7114 H         1 UNK         0.0600 
    200 H200       -2.5244  -24.6056  -46.2568 H         1 UNK         0.3000 
    201 H201       -3.2158  -26.9740  -47.7475 H         1 UNK         0.0600 
    202 H202       -0.9482  -25.9469  -47.7878 H         1 UNK         0.0600 
    203 H203       -1.6011  -24.4846  -48.5246 H         1 UNK         0.0600 
    204 H204       -1.6214  -26.0054  -49.4098 H         1 UNK         0.0600 
    205 H205       -4.5341  -23.7859  -47.6507 H         1 UNK         0.3000 
    206 H206       -5.9995  -22.5727  -48.7570 H         1 UNK         0.0600 
    207 H207       -7.5335  -24.5557  -48.6206 H         1 UNK         0.0600 
    208 H208       -7.8160  -23.5986  -50.0663 H         1 UNK         0.0600 
    209 H209       -6.9435  -25.1188  -50.1842 H         1 UNK         0.0600 
    210 H210       -3.4417  -22.5014  -49.5805 H         1 UNK         0.3000 
    211 H211       -2.7868  -23.2430  -52.1847 H         1 UNK         0.0600 
    212 H212       -0.8131  -21.7490  -51.8705 H         1 UNK         0.0600 
    213 H213       -1.1293  -22.6886  -50.4208 H         1 UNK         0.0600 
    214 H214       -1.5923  -20.9875  -50.4914 H         1 UNK         0.0600 
    215 H215       -4.4102  -20.2968  -51.1614 H         1 UNK         0.3000 
    216 H216       -4.0621  -18.8546  -53.6484 H         1 UNK         0.0600 
    217 H217       -5.6614  -17.2629  -52.5930 H         1 UNK         0.0600 
    218 H218       -4.3774  -17.6966  -51.4777 H         1 UNK         0.0600 
    219 H219       -5.9804  -18.4135  -51.2990 H         1 UNK         0.0600 
    220 H220       -6.1133  -21.4800  -52.7892 H         1 UNK         0.3000 
    221 H221       -8.0619  -20.8286  -54.9778 H         1 UNK         0.0600 
    222 H222       -8.4898  -22.4030  -52.3838 H         1 UNK         0.0600 
    223 H223       -9.1330  -20.8037  -52.7474 H         1 UNK         0.0600 
    224 H224       -9.6761  -22.1980  -53.6682 H         1 UNK         0.0600 
    225 H225       -6.3879  -23.5084  -53.2321 H         1 UNK         0.3000 
    226 H226       -7.1662  -25.5027  -55.1493 H         1 UNK         0.0600 
    227 H227       -5.7054  -26.9704  -53.7570 H         1 UNK         0.0600 
    228 H228       -5.0963  -25.5680  -52.8860 H         1 UNK         0.0600 
    229 H229       -6.7925  -26.0198  -52.7561 H         1 UNK         0.0600 
    230 H230       -4.0439  -23.8828  -54.4295 H         1 UNK         0.3000 
    231 H231       -2.8064  -24.9813  -56.8963 H         1 UNK         0.0600 
    232 H232       -0.7259  -24.0494  -55.9445 H         1 UNK         0.0600 
    233 H233       -1.5204  -25.0778  -54.7639 H         1 UNK         0.0600 
    234 H234       -1.6098  -23.3251  -54.6114 H         1 UNK         0.0600 
    235 H235       -4.5135  -22.2278  -55.8618 H         1 UNK         0.3000 
    236 H236       -4.9626  -20.1893  -56.6005 H         1 UNK         0.0600 
    237 H237       -4.0969  -21.2163  -59.3515 H         1 UNK         0.0600 
    238 H238       -5.6885  -21.4546  -58.6304 H         1 UNK         0.0600 
    239 H239       -5.1407  -19.8363  -59.0333 H         1 UNK         0.0600 
    240 H240       -2.3811  -20.5576  -55.4544 H         1 UNK         0.3000 
    241 H241       -0.3880  -19.6992  -55.1208 H         1 UNK         0.0600 
    242 H242       -0.8172  -21.2818  -57.8193 H         1 UNK         0.3800 
    243 H243        0.7157  -20.9675  -58.5917 H         1 UNK         0.3800 
    244 H244       -1.4307  -17.2376  -56.6057 H         1 UNK         0.0800 
    245 H245        0.1082  -17.2729  -55.8041 H         1 UNK         0.0800 
    246 H246        0.6085  -17.2008  -53.5120 H         1 UNK         0.0800 
    247 H247       -0.1306  -15.6155  -53.5628 H         1 UNK         0.0800 
@<TRIPOS>BOND
     1    1    2 1    
     2    1  127 1    
     3    1  128 1    
     4    1  129 1    
     5    2    3 2    
     6    2    4 am   BACKBONE|DICT|INTERRES
     7    4    5 1    
     8    4  130 1    
     9    5    6 1    
    10    5   65 1    
    11    5  131 1    
    12    6    7 1    
    13    6  132 1    
    14    6  133 1    
    15    7    8 1    
    16    8    9 1    
    17    8  134 1    
    18    8  135 1    
    19    9   10 ar   
    20    9   14 ar   
    21   10   11 ar   
    22   10  136 1    
    23   11   12 ar   
    24   11  126 1    
    25   12   13 ar   
    26   12  137 1    
    27   13   14 ar   
    28   13   15 1    
    29   14  138 1    
    30   15   16 1    
    31   15  139 1    
    32   15  140 1    
    33   16   17 1    
    34   17   18 1    
    35   17  141 1    
    36   17  142 1    
    37   18   19 1    
    38   18   67 1    
    39   18  143 1    
    40   19   20 am   BACKBONE|DICT|INTERRES
    41   19  144 1    
    42   20   21 2    
    43   20   22 1    
    44   22   23 1    
    45   22   24 1    
    46   22  145 1    
    47   23  146 1    
    48   23  147 1    
    49   23  148 1    
    50   24   25 am   BACKBONE|DICT|INTERRES
    51   24  149 1    
    52   25   26 2    
    53   25   27 1    
    54   27   28 1    
    55   27   29 1    
    56   27  150 1    
    57   28  151 1    
    58   28  152 1    
    59   28  153 1    
    60   29   30 am   BACKBONE|DICT|INTERRES
    61   29  154 1    
    62   30   31 2    
    63   30   32 1    
    64   32   33 1    
    65   32   34 1    
    66   32  155 1    
    67   33  156 1    
    68   33  157 1    
    69   33  158 1    
    70   34   35 am   BACKBONE|DICT|INTERRES
    71   34  159 1    
    72   35   36 2    
    73   35   37 1    
    74   37   38 1    
    75   37   39 1    
    76   37  160 1    
    77   38  161 1    
    78   38  162 1    
    79   38  163 1    
    80   39   40 am   BACKBONE|DICT|INTERRES
    81   39  164 1    
    82   40   41 2    
    83   40   42 1    
    84   42   43 1    
    85   42   44 1    
    86   42  165 1    
    87   43  166 1    
    88   43  167 1    
    89   43  168 1    
    90   44   45 am   BACKBONE|DICT|INTERRES
    91   44  169 1    
    92   45   46 2    
    93   45   47 1    
    94   47   48 1    
    95   47   49 1    
    96   47  170 1    
    97   48  171 1    
    98   48  172 1    
    99   48  173 1    
   100   49   50 am   BACKBONE|DICT|INTERRES
   101   49  174 1    
   102   50   51 2    
   103   50   52 1    
   104   52   53 1    
   105   52   54 1    
   106   52  175 1    
   107   53  176 1    
   108   53  177 1    
   109   53  178 1    
   110   54   55 am   BACKBONE|DICT|INTERRES
   111   54  179 1    
   112   55   56 2    
   113   55   57 1    
   114   57   58 1    
   115   57   59 1    
   116   57  180 1    
   117   58  181 1    
   118   58  182 1    
   119   58  183 1    
   120   59   60 am   BACKBONE|DICT|INTERRES
   121   59  184 1    
   122   60   61 2    
   123   60   62 1    
   124   62   63 1    
   125   62   64 1    
   126   62  185 1    
   127   63  186 1    
   128   63  187 1    
   129   63  188 1    
   130   64   65 am   BACKBONE|DICT|INTERRES
   131   64  189 1    
   132   65   66 2    
   133   67   68 2    
   134   67   69 am   BACKBONE|DICT|INTERRES
   135   69   70 1    
   136   69  190 1    
   137   70   71 1    
   138   70   72 1    
   139   70  191 1    
   140   71  192 1    
   141   71  193 1    
   142   71  194 1    
   143   72   73 2    
   144   72   74 am   BACKBONE|DICT|INTERRES
   145   74   75 1    
   146   74  195 1    
   147   75   76 1    
   148   75   77 1    
   149   75  196 1    
   150   76  197 1    
   151   76  198 1    
   152   76  199 1    
   153   77   78 2    
   154   77   79 am   BACKBONE|DICT|INTERRES
   155   79   80 1    
   156   79  200 1    
   157   80   81 1    
   158   80   82 1    
   159   80  201 1    
   160   81  202 1    
   161   81  203 1    
   162   81  204 1    
   163   82   83 2    
   164   82   84 am   BACKBONE|DICT|INTERRES
   165   84   85 1    
   166   84  205 1    
   167   85   86 1    
   168   85   87 1    
   169   85  206 1    
   170   86  207 1    
   171   86  208 1    
   172   86  209 1    
   173   87   88 2    
   174   87   89 am   BACKBONE|DICT|INTERRES
   175   89   90 1    
   176   89  210 1    
   177   90   91 1    
   178   90   92 1    
   179   90  211 1    
   180   91  212 1    
   181   91  213 1    
   182   91  214 1    
   183   92   93 2    
   184   92   94 am   BACKBONE|DICT|INTERRES
   185   94   95 1    
   186   94  215 1    
   187   95   96 1    
   188   95   97 1    
   189   95  216 1    
   190   96  217 1    
   191   96  218 1    
   192   96  219 1    
   193   97   98 2    
   194   97   99 am   BACKBONE|DICT|INTERRES
   195   99  100 1    
   196   99  220 1    
   197  100  101 1    
   198  100  102 1    
   199  100  221 1    
   200  101  222 1    
   201  101  223 1    
   202  101  224 1    
   203  102  103 2    
   204  102  104 am   BACKBONE|DICT|INTERRES
   205  104  105 1    
   206  104  225 1    
   207  105  106 1    
   208  105  107 1    
   209  105  226 1    
   210  106  227 1    
   211  106  228 1    
   212  106  229 1    
   213  107  108 2    
   214  107  109 am   BACKBONE|DICT|INTERRES
   215  109  110 1    
   216  109  230 1    
   217  110  111 1    
   218  110  112 1    
   219  110  231 1    
   220  111  232 1    
   221  111  233 1    
   222  111  234 1    
   223  112  113 2    
   224  112  114 am   BACKBONE|DICT|INTERRES
   225  114  115 1    
   226  114  235 1    
   227  115  116 1    
   228  115  117 1    
   229  115  236 1    
   230  116  237 1    
   231  116  238 1    
   232  116  239 1    
   233  117  118 2    
   234  117  119 am   BACKBONE|DICT|INTERRES
   235  119  120 1    
   236  119  240 1    
   237  120  121 1    
   238  120  124 1    
   239  120  241 1    
   240  121  122 am   BACKBONE|DICT|INTERRES
   241  121  123 2    
   242  122  242 1    
   243  122  243 1    
   244  124  125 1    
   245  124  244 1    
   246  124  245 1    
   247  125  126 1    
   248  126  246 1    
   249  126  247 1    
@<TRIPOS>SUBSTRUCTURE
     1 UNK         1 GROUP             0       ****    0 ROOT    
