@<TRIPOS>MOLECULE
3R540
247   249    1
SMALL
USER_CHARGES


@<TRIPOS>ATOM
      1 CA          2.7521  -10.8829  -49.7608 C.3       0 UNK        -0.1800 
      2 C           1.7681  -11.6397  -48.8819 C.2       0 UNK         0.5000 
      3 O           1.5904  -11.2839  -47.7177 O.2       0 UNK        -0.5000 
      4 N           1.1128  -12.6674  -49.4378 N.am      1 UNK        -0.5000 
      5 CA          0.1726  -13.5742  -48.7594 C.3       1 UNK         0.1400 
      6 C6         -0.3241  -14.6882  -49.7093 C.3       23 UNK        -0.0398 
      7 S7          1.0163  -15.7420  -50.3634 S.3       23 UNK        -0.2404 
      8 C8          0.7097  -17.2894  -49.4528 C.3       23 UNK        -0.0205 
      9 C9          1.3009  -18.5134  -50.1382 C.ar      23 UNK        -0.0193 
     10 C10         0.9389  -18.8250  -51.4530 C.ar      23 UNK        -0.1150 
     11 C11         1.4237  -19.9779  -52.0796 C.ar      23 UNK        -0.0193 
     12 C12         2.2738  -20.8278  -51.3645 C.ar      23 UNK        -0.1150 
     13 C13         2.6158  -20.5494  -50.0377 C.ar      23 UNK        -0.0193 
     14 C14         2.1405  -19.3814  -49.4339 C.ar      23 UNK        -0.1150 
     15 C15         3.4616  -21.5393  -49.2510 C.3       23 UNK        -0.0205 
     16 S16         2.4682  -22.9534  -48.6648 S.3       23 UNK        -0.2404 
     17 C17         1.5365  -22.2015  -47.2877 C.3       23 UNK        -0.0398 
     18 CA          0.9347  -23.2468  -46.3176 C.3       11 UNK         0.1400 
     19 N           0.6432  -22.6538  -45.0128 N.am      11 UNK        -0.5000 
     20 C           0.4132  -23.3510  -43.8930 C.2       10 UNK         0.5000 
     21 O           0.4845  -24.5776  -43.8249 O.2       10 UNK        -0.5000 
     22 CA          0.0079  -22.5448  -42.6459 C.3       10 UNK         0.1400 
     23 CB          1.2491  -21.9910  -41.9307 C.3       10 UNK        -0.1800 
     24 N          -0.9154  -21.4504  -42.9531 N.am      10 UNK        -0.5000 
     25 C          -2.1587  -21.6218  -43.4258 C.2       9 UNK         0.5000 
     26 O          -2.6700  -22.7260  -43.6171 O.2       9 UNK        -0.5000 
     27 CA         -2.9555  -20.3495  -43.7724 C.3       9 UNK         0.1400 
     28 CB         -3.5682  -19.7315  -42.5070 C.3       9 UNK        -0.1800 
     29 N          -2.1628  -19.3392  -44.4760 N.am      9 UNK        -0.5000 
     30 C          -1.5842  -19.5192  -45.6724 C.2       8 UNK         0.5000 
     31 O          -1.6523  -20.5647  -46.3136 O.2       8 UNK        -0.5000 
     32 CA         -0.7180  -18.3673  -46.2082 C.3       8 UNK         0.1400 
     33 CB         -1.5832  -17.1870  -46.6793 C.3       8 UNK        -0.1800 
     34 N           0.2513  -17.9052  -45.2154 N.am      8 UNK        -0.5000 
     35 C           1.1946  -18.6747  -44.6518 C.2       7 UNK         0.5000 
     36 O           1.4032  -19.8467  -44.9623 O.2       7 UNK        -0.5000 
     37 CA          2.0034  -18.0452  -43.5072 C.3       7 UNK         0.1400 
     38 CB          3.1592  -17.1971  -44.0571 C.3       7 UNK        -0.1800 
     39 N           1.1569  -17.2346  -42.6308 N.am      7 UNK        -0.5000 
     40 C           0.2256  -17.7393  -41.8078 C.2       6 UNK         0.5000 
     41 O           0.0107  -18.9436  -41.6744 O.2       6 UNK        -0.5000 
     42 CA         -0.6399  -16.7253  -41.0381 C.3       6 UNK         0.1400 
     43 CB          0.0952  -16.2201  -39.7878 C.3       6 UNK        -0.1800 
     44 N          -1.0310  -15.5856  -41.8680 N.am      6 UNK        -0.5000 
     45 C          -1.8561  -15.6673  -42.9213 C.2       5 UNK         0.5000 
     46 O          -2.4183  -16.7057  -43.2672 O.2       5 UNK        -0.5000 
     47 CA         -2.0503  -14.3861  -43.7526 C.3       5 UNK         0.1400 
     48 CB         -3.2326  -13.5641  -43.2206 C.3       5 UNK        -0.1800 
     49 N          -0.8587  -13.5374  -43.8027 N.am      5 UNK        -0.5000 
     50 C           0.3151  -13.8841  -44.3458 C.2       4 UNK         0.5000 
     51 O           0.5424  -15.0041  -44.8075 O.2       4 UNK        -0.5000 
     52 CA          1.4039  -12.7917  -44.3710 C.3       4 UNK         0.1400 
     53 CB          2.6791  -13.2406  -45.1063 C.3       4 UNK        -0.1800 
     54 N           0.9157  -11.5631  -44.9952 N.am      4 UNK        -0.5000 
     55 C           0.1769  -10.6168  -44.4015 C.2       3 UNK         0.5000 
     56 O          -0.1911  -10.6770  -43.2277 O.2       3 UNK        -0.5000 
     57 CA         -0.2628   -9.4391  -45.2839 C.3       3 UNK         0.1400 
     58 CB          0.9166   -8.4970  -45.5737 C.3       3 UNK        -0.1800 
     59 N          -0.8144   -9.9330  -46.5437 N.am      3 UNK        -0.5000 
     60 C          -2.1101  -10.2063  -46.7505 C.2       2 UNK         0.5000 
     61 O          -2.9975   -9.9843  -45.9260 O.2       2 UNK        -0.5000 
     62 CA         -2.4809  -10.8430  -48.1050 C.3       2 UNK         0.1400 
     63 CB         -2.8332   -9.7581  -49.1338 C.3       2 UNK        -0.1800 
     64 N          -1.4160  -11.6882  -48.6470 N.am      2 UNK        -0.5000 
     65 C          -1.0465  -12.8666  -48.1254 C.2       1 UNK         0.5000 
     66 O          -1.6263  -13.4004  -47.1811 O.2       1 UNK        -0.5000 
     67 C          -0.3097  -23.9571  -46.8965 C.2       11 UNK         0.5000 
     68 O          -0.2027  -25.0962  -47.3549 O.2       11 UNK        -0.5000 
     69 N          -1.4816  -23.3059  -46.8157 N.am      12 UNK        -0.5000 
     70 CA         -2.7747  -23.8018  -47.3010 C.3       12 UNK         0.1400 
     71 CB         -3.8544  -22.7294  -47.1080 C.3       12 UNK        -0.1800 
     72 C          -3.2304  -25.1218  -46.6610 C.2       12 UNK         0.5000 
     73 O          -3.9340  -25.8878  -47.3172 O.2       12 UNK        -0.5000 
     74 N          -2.7830  -25.3968  -45.4289 N.am      13 UNK        -0.5000 
     75 CA         -3.0032  -26.6626  -44.7261 C.3       13 UNK         0.1400 
     76 CB         -2.4389  -26.5510  -43.3021 C.3       13 UNK        -0.1800 
     77 C          -2.4118  -27.8918  -45.4518 C.2       13 UNK         0.5000 
     78 O          -2.8984  -29.0024  -45.2347 O.2       13 UNK        -0.5000 
     79 N          -1.3991  -27.6746  -46.3032 N.am      14 UNK        -0.5000 
     80 CA         -0.7955  -28.6908  -47.1615 C.3       14 UNK         0.1400 
     81 CB          0.7236  -28.7054  -46.9262 C.3       14 UNK        -0.1800 
     82 C          -1.1068  -28.4309  -48.6460 C.2       14 UNK         0.5000 
     83 O          -1.4626  -29.3676  -49.3620 O.2       14 UNK        -0.5000 
     84 N          -0.9414  -27.1785  -49.0933 N.am      15 UNK        -0.5000 
     85 CA         -0.9574  -26.8015  -50.5082 C.3       15 UNK         0.1400 
     86 CB         -0.0549  -25.5721  -50.6909 C.3       15 UNK        -0.1800 
     87 C          -2.3566  -26.5201  -51.0858 C.2       15 UNK         0.5000 
     88 O          -2.4970  -26.5200  -52.3096 O.2       15 UNK        -0.5000 
     89 N          -3.3515  -26.2550  -50.2250 N.am      16 UNK        -0.5000 
     90 CA         -4.7462  -25.8864  -50.5198 C.3       16 UNK         0.1400 
     91 CB         -5.4802  -27.0047  -51.2850 C.3       16 UNK        -0.1800 
     92 C          -4.9090  -24.5203  -51.2188 C.2       16 UNK         0.5000 
     93 O          -5.5750  -23.6356  -50.6811 O.2       16 UNK        -0.5000 
     94 N          -4.2803  -24.3578  -52.3896 N.am      17 UNK        -0.5000 
     95 CA         -4.3203  -23.1577  -53.2328 C.3       17 UNK         0.1400 
     96 CB         -3.7820  -23.5162  -54.6262 C.3       17 UNK        -0.1800 
     97 C          -3.5423  -21.9593  -52.6556 C.2       17 UNK         0.5000 
     98 O          -3.6860  -20.8418  -53.1515 O.2       17 UNK        -0.5000 
     99 N          -2.7328  -22.1999  -51.6186 N.am      18 UNK        -0.5000 
    100 CA        -1.9134  -21.2005  -50.9374 C.3       18 UNK         0.1400 
    101 CB        -0.7872  -21.9136  -50.1885 C.3       18 UNK        -0.1800 
    102 C         -2.6883  -20.2491  -50.0085 C.2       18 UNK         0.5000 
    103 O         -2.0688  -19.3756  -49.4035 O.2       18 UNK        -0.5000 
    104 N         -4.0201  -20.3800  -49.9315 N.am      19 UNK        -0.5000 
    105 CA        -4.9333  -19.4997  -49.1939 C.3       19 UNK         0.1400 
    106 CB        -6.2773  -20.2286  -49.0193 C.3       19 UNK        -0.1800 
    107 C         -5.0903  -18.1102  -49.8604 C.2       19 UNK         0.5000 
    108 O         -6.2069  -17.6725  -50.1398 O.2       19 UNK        -0.5000 
    109 N         -3.9489  -17.4651  -50.1335 N.am      20 UNK        -0.5000 
    110 CA        -3.7402  -16.1682  -50.7830 C.3       20 UNK         0.1400 
    111 CB        -4.3331  -15.0252  -49.9344 C.3       20 UNK        -0.1800 
    112 C         -4.1644  -16.0942  -52.2666 C.2       20 UNK         0.5000 
    113 O         -4.1297  -15.0043  -52.8395 O.2       20 UNK        -0.5000 
    114 N         -4.5172  -17.2333  -52.8797 N.am      21 UNK        -0.5000 
    115 CA        -4.8091  -17.3414  -54.3080 C.3       21 UNK         0.1400 
    116 CB        -5.8518  -18.4455  -54.5544 C.3       21 UNK        -0.1800 
    117 C         -3.5065  -17.5720  -55.0913 C.2       21 UNK         0.5000 
    118 O         -3.0865  -16.6887  -55.8393 O.2       21 UNK        -0.5000 
    119 N         -2.8719  -18.7335  -54.8722 N.am      22 UNK        -0.5000 
    120 CA        -1.5721  -19.1276  -55.4469 C.3       22 UNK         0.1400 
    121 C         -1.5545  -19.2725  -57.0024 C.2       22 UNK         0.5000 
    122 N         -2.6906  -19.5144  -57.6457 N.am      22 UNK        -0.7600 
    123 O         -0.5081  -19.1909  -57.6394 O.2       22 UNK        -0.5000 
    124 C124       -0.4112  -18.2633  -54.8671 C.3       23 UNK        -0.0398 
    125 S125        1.2139  -19.1028  -54.7616 S.3       23 UNK        -0.2404 
    126 C126        0.9650  -20.3792  -53.4803 C.3       23 UNK        -0.0205 
    127 H127        3.7509  -10.9282  -49.3271 H         1 UNK         0.0600 
    128 H128        2.4588   -9.8359  -49.8353 H         1 UNK         0.0600 
    129 H129        2.7985  -11.2972  -50.7681 H         1 UNK         0.0600 
    130 H130        1.3148  -12.9080  -50.3981 H         1 UNK         0.3000 
    131 H131        0.7174  -14.0455  -47.9385 H         1 UNK         0.0600 
    132 H132       -1.0579  -15.3156  -49.2020 H         1 UNK         0.0800 
    133 H133       -0.8475  -14.2503  -50.5613 H         1 UNK         0.0800 
    134 H134       -0.3626  -17.4536  -49.3605 H         1 UNK         0.0800 
    135 H135        1.1007  -17.1787  -48.4404 H         1 UNK         0.0800 
    136 H136        0.2582  -18.1704  -51.9709 H         1 UNK         0.1150 
    137 H137        2.6311  -21.7404  -51.8205 H         1 UNK         0.1150 
    138 H138        2.3943  -19.1690  -48.4048 H         1 UNK         0.1150 
    139 H139        4.2633  -21.9142  -49.8889 H         1 UNK         0.0800 
    140 H140        3.9496  -21.0502  -48.4066 H         1 UNK         0.0800 
    141 H141        0.7719  -21.5225  -47.6651 H         1 UNK         0.0800 
    142 H142        2.2431  -21.5744  -46.7434 H         1 UNK         0.0800 
    143 H143        1.6927  -24.0153  -46.1493 H         1 UNK         0.0600 
    144 H144        0.6157  -21.6388  -44.9728 H         1 UNK         0.3000 
    145 H145       -0.5005  -23.2277  -41.9621 H         1 UNK         0.0600 
    146 H146        0.9779  -21.4931  -40.9997 H         1 UNK         0.0600 
    147 H147        1.9459  -22.7917  -41.6800 H         1 UNK         0.0600 
    148 H148        1.7839  -21.2719  -42.5516 H         1 UNK         0.0600 
    149 H149       -0.5821  -20.5087  -42.7714 H         1 UNK         0.3000 
    150 H150       -3.7727  -20.6429  -44.4340 H         1 UNK         0.0600 
    151 H151       -4.1747  -20.4610  -41.9687 H         1 UNK         0.0600 
    152 H152       -4.2150  -18.8895  -42.7540 H         1 UNK         0.0600 
    153 H153       -2.7996  -19.3718  -41.8222 H         1 UNK         0.0600 
    154 H154       -2.0760  -18.4347  -44.0199 H         1 UNK         0.3000 
    155 H155       -0.1585  -18.7484  -47.0643 H         1 UNK         0.0600 
    156 H156       -2.2414  -16.8239  -45.8920 H         1 UNK         0.0600 
    157 H157       -0.9674  -16.3493  -47.0055 H         1 UNK         0.0600 
    158 H158       -2.2164  -17.4774  -47.5174 H         1 UNK         0.0600 
    159 H159        0.1898  -16.9317  -44.9318 H         1 UNK         0.3000 
    160 H160        2.4317  -18.8538  -42.9113 H         1 UNK         0.0600 
    161 H161        3.8560  -17.8164  -44.6233 H         1 UNK         0.0600 
    162 H162        2.8037  -16.4158  -44.7280 H         1 UNK         0.0600 
    163 H163        3.7232  -16.7236  -43.2534 H         1 UNK         0.0600 
    164 H164        1.2281  -16.2331  -42.7310 H         1 UNK         0.3000 
    165 H165       -1.5480  -17.2394  -40.7158 H         1 UNK         0.0600 
    166 H166       -0.5401  -15.5595  -39.1975 H         1 UNK         0.0600 
    167 H167        0.3848  -17.0515  -39.1438 H         1 UNK         0.0600 
    168 H168        1.0026  -15.6722  -40.0450 H         1 UNK         0.0600 
    169 H169       -0.6146  -14.6923  -41.6510 H         1 UNK         0.3000 
    170 H170       -2.2810  -14.6889  -44.7756 H         1 UNK         0.0600 
    171 H171       -4.1441  -14.1628  -43.1940 H         1 UNK         0.0600 
    172 H172       -3.0476  -13.1995  -42.2094 H         1 UNK         0.0600 
    173 H173       -3.4293  -12.7016  -43.8584 H         1 UNK         0.0600 
    174 H174       -0.9511  -12.5914  -43.4502 H         1 UNK         0.3000 
    175 H175        1.6753  -12.5789  -43.3351 H         1 UNK         0.0600 
    176 H176        2.4692  -13.5387  -46.1342 H         1 UNK         0.0600 
    177 H177        3.4191  -12.4408  -45.1363 H         1 UNK         0.0600 
    178 H178        3.1427  -14.0881  -44.6022 H         1 UNK         0.0600 
    179 H179        1.1531  -11.4454  -45.9784 H         1 UNK         0.3000 
    180 H180       -1.0205   -8.8705  -44.7405 H         1 UNK         0.0600 
    181 H181        1.7142   -8.9979  -46.1237 H         1 UNK         0.0600 
    182 H182        1.3464   -8.1147  -44.6471 H         1 UNK         0.0600 
    183 H183        0.5956   -7.6372  -46.1620 H         1 UNK         0.0600 
    184 H184       -0.1411  -10.2072  -47.2490 H         1 UNK         0.3000 
    185 H185       -3.3652  -11.4647  -47.9483 H         1 UNK         0.0600 
    186 H186       -3.1654  -10.1990  -50.0739 H         1 UNK         0.0600 
    187 H187       -3.6423   -9.1235  -48.7699 H         1 UNK         0.0600 
    188 H188       -1.9802   -9.1127  -49.3472 H         1 UNK         0.0600 
    189 H189       -0.8926  -11.3213  -49.4284 H         1 UNK         0.3000 
    190 H190       -1.4863  -22.3536  -46.4523 H         1 UNK         0.3000 
    191 H191       -2.6724  -23.9871  -48.3710 H         1 UNK         0.0600 
    192 H192       -4.0138  -22.5059  -46.0533 H         1 UNK         0.0600 
    193 H193       -4.8081  -23.0564  -47.5243 H         1 UNK         0.0600 
    194 H194       -3.5847  -21.8018  -47.6078 H         1 UNK         0.0600 
    195 H195       -2.2395  -24.6926  -44.9466 H         1 UNK         0.3000 
    196 H196       -4.0822  -26.8135  -44.6547 H         1 UNK         0.0600 
    197 H197       -2.6686  -27.4447  -42.7208 H         1 UNK         0.0600 
    198 H198       -2.8647  -25.6986  -42.7720 H         1 UNK         0.0600 
    199 H199       -1.3550  -26.4355  -43.3087 H         1 UNK         0.0600 
    200 H200       -1.0667  -26.7251  -46.4281 H         1 UNK         0.3000 
    201 H201       -1.1805  -29.6826  -46.9155 H         1 UNK         0.0600 
    202 H202        0.9572  -28.9617  -45.8928 H         1 UNK         0.0600 
    203 H203        1.1763  -27.7360  -47.1395 H         1 UNK         0.0600 
    204 H204        1.2114  -29.4446  -47.5630 H         1 UNK         0.0600 
    205 H205       -0.6354  -26.4565  -48.4438 H         1 UNK         0.3000 
    206 H206       -0.5282  -27.6163  -51.0954 H         1 UNK         0.0600 
    207 H207        0.9726  -25.7902  -50.3991 H         1 UNK         0.0600 
    208 H208       -0.0346  -25.2414  -51.7302 H         1 UNK         0.0600 
    209 H209       -0.3992  -24.7370  -50.0839 H         1 UNK         0.0600 
    210 H210       -3.1405  -26.3037  -49.2350 H         1 UNK         0.3000 
    211 H211       -5.2413  -25.7933  -49.5529 H         1 UNK         0.0600 
    212 H212       -5.0653  -27.1685  -52.2796 H         1 UNK         0.0600 
    213 H213       -6.5354  -26.7593  -51.4110 H         1 UNK         0.0600 
    214 H214       -5.4293  -27.9486  -50.7423 H         1 UNK         0.0600 
    215 H215       -3.7033  -25.1303  -52.7139 H         1 UNK         0.3000 
    216 H216       -5.3618  -22.8466  -53.3354 H         1 UNK         0.0600 
    217 H217       -3.8210  -22.6565  -55.2969 H         1 UNK         0.0600 
    218 H218       -4.3721  -24.3103  -55.0840 H         1 UNK         0.0600 
    219 H219       -2.7451  -23.8519  -54.5813 H         1 UNK         0.0600 
    220 H220       -2.6805  -23.1458  -51.2737 H         1 UNK         0.3000 
    221 H221       -1.4618  -20.5597  -51.6934 H         1 UNK         0.0600 
    222 H222       -1.1742  -22.5936  -49.4357 H         1 UNK         0.0600 
    223 H223       -0.1531  -22.4791  -50.8708 H         1 UNK         0.0600 
    224 H224       -0.1500  -21.1921  -49.6818 H         1 UNK         0.0600 
    225 H225       -4.4523  -21.1180  -50.4688 H         1 UNK         0.3000 
    226 H226       -4.5149  -19.3305  -48.1993 H         1 UNK         0.0600 
    227 H227       -6.1473  -21.1796  -48.5032 H         1 UNK         0.0600 
    228 H228       -6.9737  -19.6333  -48.4276 H         1 UNK         0.0600 
    229 H229       -6.7504  -20.4336  -49.9805 H         1 UNK         0.0600 
    230 H230       -3.0986  -17.9615  -49.8723 H         1 UNK         0.3000 
    231 H231       -2.6595  -16.0332  -50.7998 H         1 UNK         0.0600 
    232 H232       -4.0544  -14.0500  -50.3355 H         1 UNK         0.0600 
    233 H233       -3.9663  -15.0656  -48.9084 H         1 UNK         0.0600 
    234 H234       -5.4221  -15.0673  -49.9048 H         1 UNK         0.0600 
    235 H235       -4.5081  -18.0910  -52.3482 H         1 UNK         0.3000 
    236 H236       -5.2462  -16.4055  -54.6631 H         1 UNK         0.0600 
    237 H237       -6.8004  -18.1947  -54.0795 H         1 UNK         0.0600 
    238 H238       -6.0461  -18.5666  -55.6207 H         1 UNK         0.0600 
    239 H239       -5.5379  -19.4125  -54.1660 H         1 UNK         0.0600 
    240 H240       -3.2905  -19.4169  -54.2441 H         1 UNK         0.3000 
    241 H241       -1.4367  -20.1495  -55.0977 H         1 UNK         0.0600 
    242 H242       -2.6810  -19.6144  -58.6487 H         1 UNK         0.3800 
    243 H243       -3.5595  -19.5909  -57.1420 H         1 UNK         0.3800 
    244 H244       -0.2901  -17.3534  -55.4570 H         1 UNK         0.0800 
    245 H245       -0.6735  -17.9169  -53.8698 H         1 UNK         0.0800 
    246 H246       -0.0777  -20.6843  -53.4406 H         1 UNK         0.0800 
    247 H247        1.5124  -21.2653  -53.8052 H         1 UNK         0.0800 
@<TRIPOS>BOND
     1    1    2 1    
     2    1  127 1    
     3    1  128 1    
     4    1  129 1    
     5    2    3 2    
     6    2    4 am   BACKBONE|DICT|INTERRES
     7    4    5 1    
     8    4  130 1    
     9    5    6 1    
    10    5   65 1    
    11    5  131 1    
    12    6    7 1    
    13    6  132 1    
    14    6  133 1    
    15    7    8 1    
    16    8    9 1    
    17    8  134 1    
    18    8  135 1    
    19    9   10 ar   
    20    9   14 ar   
    21   10   11 ar   
    22   10  136 1    
    23   11   12 ar   
    24   11  126 1    
    25   12   13 ar   
    26   12  137 1    
    27   13   14 ar   
    28   13   15 1    
    29   14  138 1    
    30   15   16 1    
    31   15  139 1    
    32   15  140 1    
    33   16   17 1    
    34   17   18 1    
    35   17  141 1    
    36   17  142 1    
    37   18   19 1    
    38   18   67 1    
    39   18  143 1    
    40   19   20 am   BACKBONE|DICT|INTERRES
    41   19  144 1    
    42   20   21 2    
    43   20   22 1    
    44   22   23 1    
    45   22   24 1    
    46   22  145 1    
    47   23  146 1    
    48   23  147 1    
    49   23  148 1    
    50   24   25 am   BACKBONE|DICT|INTERRES
    51   24  149 1    
    52   25   26 2    
    53   25   27 1    
    54   27   28 1    
    55   27   29 1    
    56   27  150 1    
    57   28  151 1    
    58   28  152 1    
    59   28  153 1    
    60   29   30 am   BACKBONE|DICT|INTERRES
    61   29  154 1    
    62   30   31 2    
    63   30   32 1    
    64   32   33 1    
    65   32   34 1    
    66   32  155 1    
    67   33  156 1    
    68   33  157 1    
    69   33  158 1    
    70   34   35 am   BACKBONE|DICT|INTERRES
    71   34  159 1    
    72   35   36 2    
    73   35   37 1    
    74   37   38 1    
    75   37   39 1    
    76   37  160 1    
    77   38  161 1    
    78   38  162 1    
    79   38  163 1    
    80   39   40 am   BACKBONE|DICT|INTERRES
    81   39  164 1    
    82   40   41 2    
    83   40   42 1    
    84   42   43 1    
    85   42   44 1    
    86   42  165 1    
    87   43  166 1    
    88   43  167 1    
    89   43  168 1    
    90   44   45 am   BACKBONE|DICT|INTERRES
    91   44  169 1    
    92   45   46 2    
    93   45   47 1    
    94   47   48 1    
    95   47   49 1    
    96   47  170 1    
    97   48  171 1    
    98   48  172 1    
    99   48  173 1    
   100   49   50 am   BACKBONE|DICT|INTERRES
   101   49  174 1    
   102   50   51 2    
   103   50   52 1    
   104   52   53 1    
   105   52   54 1    
   106   52  175 1    
   107   53  176 1    
   108   53  177 1    
   109   53  178 1    
   110   54   55 am   BACKBONE|DICT|INTERRES
   111   54  179 1    
   112   55   56 2    
   113   55   57 1    
   114   57   58 1    
   115   57   59 1    
   116   57  180 1    
   117   58  181 1    
   118   58  182 1    
   119   58  183 1    
   120   59   60 am   BACKBONE|DICT|INTERRES
   121   59  184 1    
   122   60   61 2    
   123   60   62 1    
   124   62   63 1    
   125   62   64 1    
   126   62  185 1    
   127   63  186 1    
   128   63  187 1    
   129   63  188 1    
   130   64   65 am   BACKBONE|DICT|INTERRES
   131   64  189 1    
   132   65   66 2    
   133   67   68 2    
   134   67   69 am   BACKBONE|DICT|INTERRES
   135   69   70 1    
   136   69  190 1    
   137   70   71 1    
   138   70   72 1    
   139   70  191 1    
   140   71  192 1    
   141   71  193 1    
   142   71  194 1    
   143   72   73 2    
   144   72   74 am   BACKBONE|DICT|INTERRES
   145   74   75 1    
   146   74  195 1    
   147   75   76 1    
   148   75   77 1    
   149   75  196 1    
   150   76  197 1    
   151   76  198 1    
   152   76  199 1    
   153   77   78 2    
   154   77   79 am   BACKBONE|DICT|INTERRES
   155   79   80 1    
   156   79  200 1    
   157   80   81 1    
   158   80   82 1    
   159   80  201 1    
   160   81  202 1    
   161   81  203 1    
   162   81  204 1    
   163   82   83 2    
   164   82   84 am   BACKBONE|DICT|INTERRES
   165   84   85 1    
   166   84  205 1    
   167   85   86 1    
   168   85   87 1    
   169   85  206 1    
   170   86  207 1    
   171   86  208 1    
   172   86  209 1    
   173   87   88 2    
   174   87   89 am   BACKBONE|DICT|INTERRES
   175   89   90 1    
   176   89  210 1    
   177   90   91 1    
   178   90   92 1    
   179   90  211 1    
   180   91  212 1    
   181   91  213 1    
   182   91  214 1    
   183   92   93 2    
   184   92   94 am   BACKBONE|DICT|INTERRES
   185   94   95 1    
   186   94  215 1    
   187   95   96 1    
   188   95   97 1    
   189   95  216 1    
   190   96  217 1    
   191   96  218 1    
   192   96  219 1    
   193   97   98 2    
   194   97   99 am   BACKBONE|DICT|INTERRES
   195   99  100 1    
   196   99  220 1    
   197  100  101 1    
   198  100  102 1    
   199  100  221 1    
   200  101  222 1    
   201  101  223 1    
   202  101  224 1    
   203  102  103 2    
   204  102  104 am   BACKBONE|DICT|INTERRES
   205  104  105 1    
   206  104  225 1    
   207  105  106 1    
   208  105  107 1    
   209  105  226 1    
   210  106  227 1    
   211  106  228 1    
   212  106  229 1    
   213  107  108 2    
   214  107  109 am   BACKBONE|DICT|INTERRES
   215  109  110 1    
   216  109  230 1    
   217  110  111 1    
   218  110  112 1    
   219  110  231 1    
   220  111  232 1    
   221  111  233 1    
   222  111  234 1    
   223  112  113 2    
   224  112  114 am   BACKBONE|DICT|INTERRES
   225  114  115 1    
   226  114  235 1    
   227  115  116 1    
   228  115  117 1    
   229  115  236 1    
   230  116  237 1    
   231  116  238 1    
   232  116  239 1    
   233  117  118 2    
   234  117  119 am   BACKBONE|DICT|INTERRES
   235  119  120 1    
   236  119  240 1    
   237  120  121 1    
   238  120  124 1    
   239  120  241 1    
   240  121  122 am   BACKBONE|DICT|INTERRES
   241  121  123 2    
   242  122  242 1    
   243  122  243 1    
   244  124  125 1    
   245  124  244 1    
   246  124  245 1    
   247  125  126 1    
   248  126  246 1    
   249  126  247 1    
@<TRIPOS>SUBSTRUCTURE
     1 UNK         1 GROUP             0       ****    0 ROOT    
