@<TRIPOS>MOLECULE
3R540
247   249    1
SMALL
USER_CHARGES


@<TRIPOS>ATOM
      1 CA          4.8684  -10.5195  -47.4602 C.3       0 UNK        -0.1800 
      2 C           3.6814  -11.3755  -47.0464 C.2       0 UNK         0.5000 
      3 O           3.5879  -11.7771  -45.8859 O.2       0 UNK        -0.5000 
      4 N           2.7585  -11.6451  -47.9794 N.am      1 UNK        -0.5000 
      5 CA          1.5805  -12.5019  -47.7764 C.3       1 UNK         0.1400 
      6 C6          0.9004  -12.9035  -49.1068 C.3       23 UNK        -0.0398 
      7 S7          1.9922  -13.9309  -50.1477 S.3       23 UNK        -0.2404 
      8 C8          1.9064  -15.5461  -49.3049 C.3       23 UNK        -0.0205 
      9 C9          0.7250  -16.3889  -49.7591 C.ar      23 UNK        -0.0193 
     10 C10         0.9082  -17.3702  -50.7352 C.ar      23 UNK        -0.1150 
     11 C11        -0.1450  -18.2072  -51.1115 C.ar      23 UNK        -0.0193 
     12 C12        -1.4012  -18.0398  -50.5163 C.ar      23 UNK        -0.1150 
     13 C13        -1.6058  -17.0445  -49.5547 C.ar      23 UNK        -0.0193 
     14 C14        -0.5332  -16.2333  -49.1713 C.ar      23 UNK        -0.1150 
     15 C15        -2.9885  -16.8116  -48.9574 C.3       23 UNK        -0.0205 
     16 S16        -3.0032  -16.9507  -47.1402 S.3       23 UNK        -0.2404 
     17 C17        -3.5733  -18.6610  -46.8675 C.3       23 UNK        -0.0398 
     18 CA         -2.6006  -19.7466  -47.3820 C.3       11 UNK         0.1400 
     19 N          -1.2262  -19.5608  -46.9117 N.am      11 UNK        -0.5000 
     20 C          -0.1585  -20.1410  -47.4760 C.2       10 UNK         0.5000 
     21 O          -0.2270  -20.8803  -48.4572 O.2       10 UNK        -0.5000 
     22 CA          1.2035  -19.9016  -46.7954 C.3       10 UNK         0.1400 
     23 CB          1.8929  -18.6582  -47.3711 C.3       10 UNK        -0.1800 
     24 N           1.1193  -19.7641  -45.3398 N.am      10 UNK        -0.5000 
     25 C           0.6648  -20.7078  -44.5050 C.2       9 UNK         0.5000 
     26 O           0.2058  -21.7870  -44.8851 O.2       9 UNK        -0.5000 
     27 CA          0.7328  -20.3674  -43.0035 C.3       9 UNK         0.1400 
     28 CB          0.3492  -21.5472  -42.0884 C.3       9 UNK        -0.1800 
     29 N           2.0298  -19.8144  -42.6081 N.am      9 UNK        -0.5000 
     30 C           3.2344  -20.4007  -42.6981 C.2       8 UNK         0.5000 
     31 O           3.4368  -21.5119  -43.1880 O.2       8 UNK        -0.5000 
     32 CA          4.4127  -19.6117  -42.0966 C.3       8 UNK         0.1400 
     33 CB          5.0197  -18.6644  -43.1430 C.3       8 UNK        -0.1800 
     34 N           3.9977  -18.8350  -40.9281 N.am      8 UNK        -0.5000 
     35 C           3.6668  -19.3482  -39.7369 C.2       7 UNK         0.5000 
     36 O           3.8236  -20.5316  -39.4346 O.2       7 UNK        -0.5000 
     37 CA          3.0169  -18.3841  -38.7238 C.3       7 UNK         0.1400 
     38 CB          3.9719  -17.2406  -38.3260 C.3       7 UNK        -0.1800 
     39 N           1.7056  -17.8685  -39.1505 N.am      7 UNK        -0.5000 
     40 C           1.4229  -17.0829  -40.1993 C.2       6 UNK         0.5000 
     41 O           2.2704  -16.6837  -41.0016 O.2       6 UNK        -0.5000 
     42 CA         -0.0530  -16.6849  -40.3795 C.3       6 UNK         0.1400 
     43 CB         -0.4577  -15.6259  -39.3418 C.3       6 UNK        -0.1800 
     44 N          -0.2324  -16.1164  -41.7112 N.am      6 UNK        -0.5000 
     45 C          -0.9735  -16.6335  -42.6994 C.2       5 UNK         0.5000 
     46 O          -1.7212  -17.6016  -42.5616 O.2       5 UNK        -0.5000 
     47 CA         -0.8368  -15.9791  -44.0920 C.3       5 UNK         0.1400 
     48 CB         -1.9635  -14.9592  -44.3115 C.3       5 UNK        -0.1800 
     49 N           0.4531  -15.3157  -44.2912 N.am      5 UNK        -0.5000 
     50 C           1.6408  -15.9355  -44.2736 C.2       4 UNK         0.5000 
     51 O           1.7602  -17.1620  -44.3005 O.2       4 UNK        -0.5000 
     52 CA          2.9042  -15.0573  -44.1607 C.3       4 UNK         0.1400 
     53 CB          3.8004  -15.2169  -45.3985 C.3       4 UNK        -0.1800 
     54 N           2.6644  -13.6286  -43.9079 N.am      4 UNK        -0.5000 
     55 C           2.1522  -13.1122  -42.7783 C.2       3 UNK         0.5000 
     56 O           1.6800  -13.7915  -41.8681 O.2       3 UNK        -0.5000 
     57 CA          2.1388  -11.5810  -42.6522 C.3       3 UNK         0.1400 
     58 CB          3.5573  -11.0405  -42.4097 C.3       3 UNK        -0.1800 
     59 N           1.5844  -10.9677  -43.8555 N.am      3 UNK        -0.5000 
     60 C           0.3269  -10.5183  -43.9771 C.2       2 UNK         0.5000 
     61 O          -0.4899  -10.5079  -43.0557 O.2       2 UNK        -0.5000 
     62 CA         -0.1017  -10.0035  -45.3684 C.3       2 UNK         0.1400 
     63 CB          0.0831   -8.4812  -45.4597 C.3       2 UNK        -0.1800 
     64 N           0.6315  -10.6396  -46.4645 N.am      2 UNK        -0.5000 
     65 C           0.5593  -11.9436  -46.7656 C.2       1 UNK         0.5000 
     66 O          -0.2336  -12.7183  -46.2321 O.2       1 UNK        -0.5000 
     67 C          -3.1396  -21.1487  -47.0383 C.2       11 UNK         0.5000 
     68 O          -3.9102  -21.7035  -47.8214 O.2       11 UNK        -0.5000 
     69 N          -2.7159  -21.7163  -45.8985 N.am      12 UNK        -0.5000 
     70 CA         -3.0813  -23.0693  -45.4706 C.3       12 UNK         0.1400 
     71 CB         -2.7295  -23.2727  -43.9905 C.3       12 UNK        -0.1800 
     72 C          -2.4132  -24.1411  -46.3476 C.2       12 UNK         0.5000 
     73 O          -3.0527  -25.1413  -46.6722 O.2       12 UNK        -0.5000 
     74 N          -1.1725  -23.8759  -46.7836 N.am      13 UNK        -0.5000 
     75 CA         -0.4496  -24.6753  -47.7782 C.3       13 UNK         0.1400 
     76 CB          1.0030  -24.1845  -47.8682 C.3       13 UNK        -0.1800 
     77 C          -1.1251  -24.6666  -49.1675 C.2       13 UNK         0.5000 
     78 O          -1.0013  -25.6417  -49.9082 O.2       13 UNK        -0.5000 
     79 N          -1.8740  -23.5961  -49.4654 N.am      14 UNK        -0.5000 
     80 CA         -2.7337  -23.4485  -50.6399 C.3       14 UNK         0.1400 
     81 CB         -2.7435  -21.9699  -51.0613 C.3       14 UNK        -0.1800 
     82 C          -4.1673  -23.9725  -50.4028 C.2       14 UNK         0.5000 
     83 O          -5.0629  -23.6316  -51.1761 O.2       14 UNK        -0.5000 
     84 N          -4.3779  -24.7684  -49.3426 N.am      15 UNK        -0.5000 
     85 CA         -5.6441  -25.3895  -48.9375 C.3       15 UNK         0.1400 
     86 CB         -6.1127  -26.4128  -49.9944 C.3       15 UNK        -0.1800 
     87 C          -6.7242  -24.3492  -48.5775 C.2       15 UNK         0.5000 
     88 O          -7.8642  -24.4584  -49.0278 O.2       15 UNK        -0.5000 
     89 N          -6.3236  -23.3385  -47.7926 N.am      16 UNK        -0.5000 
     90 CA         -7.0928  -22.1441  -47.4204 C.3       16 UNK         0.1400 
     91 CB         -8.3603  -22.5054  -46.6174 C.3       16 UNK        -0.1800 
     92 C          -7.3676  -21.2477  -48.6454 C.2       16 UNK         0.5000 
     93 O          -8.4785  -20.7435  -48.8169 O.2       16 UNK        -0.5000 
     94 N          -6.3288  -21.0919  -49.4804 N.am      17 UNK        -0.5000 
     95 CA         -6.2900  -20.3488  -50.7458 C.3       17 UNK         0.1400 
     96 CB         -6.4934  -18.8408  -50.4934 C.3       17 UNK        -0.1800 
     97 C          -7.2347  -20.9009  -51.8386 C.2       17 UNK         0.5000 
     98 O          -7.5853  -20.1688  -52.7658 O.2       17 UNK        -0.5000 
     99 N          -7.6278  -22.1765  -51.7250 N.am      18 UNK        -0.5000 
    100 CA        -8.4897  -22.8660  -52.6838 C.3       18 UNK         0.1400 
    101 CB        -9.2158  -24.0191  -51.9766 C.3       18 UNK        -0.1800 
    102 C         -7.7127  -23.3943  -53.9019 C.2       18 UNK         0.5000 
    103 O         -8.2916  -23.4935  -54.9849 O.2       18 UNK        -0.5000 
    104 N         -6.4304  -23.7372  -53.7143 N.am      19 UNK        -0.5000 
    105 CA        -5.5486  -24.2295  -54.7687 C.3       19 UNK         0.1400 
    106 CB        -4.3085  -24.8832  -54.1368 C.3       19 UNK        -0.1800 
    107 C         -5.1385  -23.0854  -55.7093 C.2       19 UNK         0.5000 
    108 O         -4.4817  -22.1424  -55.2645 O.2       19 UNK        -0.5000 
    109 N         -5.4931  -23.2023  -56.9958 N.am      20 UNK        -0.5000 
    110 CA        -5.1641  -22.2281  -58.0439 C.3       20 UNK         0.1400 
    111 CB        -5.9264  -22.5926  -59.3268 C.3       20 UNK        -0.1800 
    112 C         -3.6518  -22.1177  -58.3257 C.2       20 UNK         0.5000 
    113 O         -3.1805  -21.0527  -58.7249 O.2       20 UNK        -0.5000 
    114 N         -2.9191  -23.2125  -58.0810 N.am      21 UNK        -0.5000 
    115 CA        -1.4585  -23.2836  -58.1477 C.3       21 UNK         0.1400 
    116 CB        -1.0534  -24.7513  -58.3609 C.3       21 UNK        -0.1800 
    117 C         -0.7626  -22.7070  -56.8954 C.2       21 UNK         0.5000 
    118 O          0.4619  -22.5768  -56.8998 O.2       21 UNK        -0.5000 
    119 N         -1.5362  -22.3862  -55.8473 N.am      22 UNK        -0.5000 
    120 CA        -1.0716  -21.8858  -54.5431 C.3       22 UNK         0.1400 
    121 C         -0.2952  -22.9390  -53.6905 C.2       22 UNK         0.5000 
    122 N         -0.4691  -24.2333  -53.9314 N.am      22 UNK        -0.7600 
    123 O          0.4600  -22.5928  -52.7882 O.2       22 UNK        -0.5000 
    124 C124       -0.3560  -20.5033  -54.6484 C.3       23 UNK        -0.0398 
    125 S125       -1.0632  -19.2464  -53.5291 S.3       23 UNK        -0.2404 
    126 C126        0.1014  -19.3108  -52.1312 C.3       23 UNK        -0.0205 
    127 H127        4.9055   -9.6136  -46.8553 H         1 UNK         0.0600 
    128 H128        5.7965  -11.0704  -47.3087 H         1 UNK         0.0600 
    129 H129        4.8118  -10.2280  -48.5092 H         1 UNK         0.0600 
    130 H130        2.8867  -11.2942  -48.9182 H         1 UNK         0.3000 
    131 H131        1.9449  -13.4119  -47.3047 H         1 UNK         0.0600 
    132 H132        0.6229  -12.0127  -49.6725 H         1 UNK         0.0800 
    133 H133       -0.0299  -13.4433  -48.9341 H         1 UNK         0.0800 
    134 H134        1.8680  -15.4230  -48.2237 H         1 UNK         0.0800 
    135 H135        2.8361  -16.0819  -49.5027 H         1 UNK         0.0800 
    136 H136        1.8837  -17.4999  -51.1825 H         1 UNK         0.1150 
    137 H137       -2.2188  -18.6822  -50.8113 H         1 UNK         0.1150 
    138 H138       -0.6835  -15.4877  -48.4044 H         1 UNK         0.1150 
    139 H139       -3.7221  -17.4919  -49.3899 H         1 UNK         0.0800 
    140 H140       -3.3119  -15.8057  -49.2280 H         1 UNK         0.0800 
    141 H141       -3.7385  -18.7759  -45.7945 H         1 UNK         0.0800 
    142 H142       -4.5524  -18.7733  -47.3375 H         1 UNK         0.0800 
    143 H143       -2.5868  -19.6820  -48.4711 H         1 UNK         0.0600 
    144 H144       -1.0891  -18.9487  -46.1221 H         1 UNK         0.3000 
    145 H145        1.8314  -20.7694  -47.0072 H         1 UNK         0.0600 
    146 H146        2.8824  -18.5162  -46.9362 H         1 UNK         0.0600 
    147 H147        2.0217  -18.7507  -48.4496 H         1 UNK         0.0600 
    148 H148        1.3112  -17.7559  -47.1792 H         1 UNK         0.0600 
    149 H149        1.4602  -18.8892  -44.9455 H         1 UNK         0.3000 
    150 H150        0.0027  -19.5766  -42.8374 H         1 UNK         0.0600 
    151 H151       -0.6869  -21.8429  -42.2498 H         1 UNK         0.0600 
    152 H152        0.4458  -21.2776  -41.0366 H         1 UNK         0.0600 
    153 H153        0.9751  -22.4217  -42.2691 H         1 UNK         0.0600 
    154 H154        2.0089  -18.8683  -42.2533 H         1 UNK         0.3000 
    155 H155        5.1790  -20.3259  -41.7879 H         1 UNK         0.0600 
    156 H156        5.3488  -19.2157  -44.0246 H         1 UNK         0.0600 
    157 H157        5.8877  -18.1398  -42.7436 H         1 UNK         0.0600 
    158 H158        4.2993  -17.9161  -43.4743 H         1 UNK         0.0600 
    159 H159        3.7421  -17.8645  -41.0897 H         1 UNK         0.3000 
    160 H160        2.8248  -18.9670  -37.8215 H         1 UNK         0.0600 
    161 H161        4.2083  -16.5856  -39.1647 H         1 UNK         0.0600 
    162 H162        3.5389  -16.6262  -37.5367 H         1 UNK         0.0600 
    163 H163        4.9151  -17.6369  -37.9479 H         1 UNK         0.0600 
    164 H164        0.9342  -18.1631  -38.5677 H         1 UNK         0.3000 
    165 H165       -0.6708  -17.5757  -40.2490 H         1 UNK         0.0600 
    166 H166       -1.4967  -15.3238  -39.4745 H         1 UNK         0.0600 
    167 H167       -0.3589  -16.0085  -38.3253 H         1 UNK         0.0600 
    168 H168        0.1624  -14.7315  -39.4193 H         1 UNK         0.0600 
    169 H169        0.4136  -15.3623  -41.9298 H         1 UNK         0.3000 
    170 H170       -0.9299  -16.7685  -44.8400 H         1 UNK         0.0600 
    171 H171       -2.9416  -15.4160  -44.1551 H         1 UNK         0.0600 
    172 H172       -1.8801  -14.1124  -43.6292 H         1 UNK         0.0600 
    173 H173       -1.9500  -14.5728  -45.3304 H         1 UNK         0.0600 
    174 H174        0.4418  -14.3058  -44.3128 H         1 UNK         0.3000 
    175 H175        3.4601  -15.4412  -43.3028 H         1 UNK         0.0600 
    176 H176        3.3121  -14.8603  -46.3025 H         1 UNK         0.0600 
    177 H177        4.7338  -14.6656  -45.2831 H         1 UNK         0.0600 
    178 H178        4.0613  -16.2635  -45.5614 H         1 UNK         0.0600 
    179 H179        3.0243  -12.9864  -44.6103 H         1 UNK         0.3000 
    180 H180        1.5330  -11.3222  -41.7811 H         1 UNK         0.0600 
    181 H181        3.9959  -11.4852  -41.5156 H         1 UNK         0.0600 
    182 H182        4.2251  -11.2554  -43.2448 H         1 UNK         0.0600 
    183 H183        3.5449   -9.9605  -42.2629 H         1 UNK         0.0600 
    184 H184        2.1824  -10.9782  -44.6741 H         1 UNK         0.3000 
    185 H185       -1.1628  -10.2299  -45.4930 H         1 UNK         0.0600 
    186 H186       -0.4723   -7.9727  -44.6705 H         1 UNK         0.0600 
    187 H187        1.1312   -8.1962  -45.3594 H         1 UNK         0.0600 
    188 H188       -0.2813   -8.0955  -46.4120 H         1 UNK         0.0600 
    189 H189        1.3123  -10.0727  -46.9486 H         1 UNK         0.3000 
    190 H190       -2.0231  -21.2389  -45.3395 H         1 UNK         0.3000 
    191 H191       -4.1633  -23.1754  -45.5733 H         1 UNK         0.0600 
    192 H192       -3.1332  -24.2180  -43.6259 H         1 UNK         0.0600 
    193 H193       -3.1453  -22.4799  -43.3686 H         1 UNK         0.0600 
    194 H194       -1.6523  -23.3013  -43.8306 H         1 UNK         0.0600 
    195 H195       -0.7046  -23.0490  -46.4304 H         1 UNK         0.3000 
    196 H196       -0.4368  -25.7090  -47.4265 H         1 UNK         0.0600 
    197 H197        1.5830  -24.8099  -48.5479 H         1 UNK         0.0600 
    198 H198        1.4932  -24.2186  -46.8950 H         1 UNK         0.0600 
    199 H199        1.0621  -23.1610  -48.2372 H         1 UNK         0.0600 
    200 H200       -1.9011  -22.8361  -48.7998 H         1 UNK         0.3000 
    201 H201       -2.3162  -24.0284  -51.4649 H         1 UNK         0.0600 
    202 H202       -1.7323  -21.6156  -51.2471 H         1 UNK         0.0600 
    203 H203       -3.1790  -21.3299  -50.2962 H         1 UNK         0.0600 
    204 H204       -3.3129  -21.8219  -51.9795 H         1 UNK         0.0600 
    205 H205       -3.5970  -24.9565  -48.7259 H         1 UNK         0.3000 
    206 H206       -5.4361  -25.9402  -48.0192 H         1 UNK         0.0600 
    207 H207       -5.3355  -27.1486  -50.2004 H         1 UNK         0.0600 
    208 H208       -6.9911  -26.9580  -49.6472 H         1 UNK         0.0600 
    209 H209       -6.3783  -25.9349  -50.9377 H         1 UNK         0.0600 
    210 H210       -5.3400  -23.2951  -47.5581 H         1 UNK         0.3000 
    211 H211       -6.4498  -21.5621  -46.7588 H         1 UNK         0.0600 
    212 H212       -9.1035  -23.0156  -47.2304 H         1 UNK         0.0600 
    213 H213       -8.8332  -21.6082  -46.2170 H         1 UNK         0.0600 
    214 H214       -8.1208  -23.1506  -45.7723 H         1 UNK         0.0600 
    215 H215       -5.4613  -21.5429  -49.2128 H         1 UNK         0.3000 
    216 H216       -5.2819  -20.4784  -51.1384 H         1 UNK         0.0600 
    217 H217       -6.2596  -18.2590  -51.3857 H         1 UNK         0.0600 
    218 H218       -5.8466  -18.4830  -49.6935 H         1 UNK         0.0600 
    219 H219       -7.5230  -18.6135  -50.2158 H         1 UNK         0.0600 
    220 H220       -7.2595  -22.7287  -50.9617 H         1 UNK         0.3000 
    221 H221       -9.2459  -22.1664  -53.0462 H         1 UNK         0.0600 
    222 H222       -8.5175  -24.7833  -51.6341 H         1 UNK         0.0600 
    223 H223       -9.7749  -23.6631  -51.1109 H         1 UNK         0.0600 
    224 H224       -9.9263  -24.5027  -52.6479 H         1 UNK         0.0600 
    225 H225       -6.0121  -23.6093  -52.7957 H         1 UNK         0.3000 
    226 H226       -6.0807  -24.9951  -55.3373 H         1 UNK         0.0600 
    227 H227       -4.5896  -25.6818  -53.4498 H         1 UNK         0.0600 
    228 H228       -3.6661  -25.3212  -54.9014 H         1 UNK         0.0600 
    229 H229       -3.7102  -24.1606  -53.5809 H         1 UNK         0.0600 
    230 H230       -6.0475  -23.9974  -57.2805 H         1 UNK         0.3000 
    231 H231       -5.5072  -21.2469  -57.7090 H         1 UNK         0.0600 
    232 H232       -5.6418  -23.5777  -59.6986 H         1 UNK         0.0600 
    233 H233       -7.0036  -22.5942  -59.1589 H         1 UNK         0.0600 
    234 H234       -5.7239  -21.8713  -60.1198 H         1 UNK         0.0600 
    235 H235       -3.3981  -24.0456  -57.7726 H         1 UNK         0.3000 
    236 H236       -1.1144  -22.7058  -59.0081 H         1 UNK         0.0600 
    237 H237       -1.3674  -25.3815  -57.5279 H         1 UNK         0.0600 
    238 H238       -1.4955  -25.1539  -59.2724 H         1 UNK         0.0600 
    239 H239        0.0288  -24.8499  -58.4570 H         1 UNK         0.0600 
    240 H240       -2.5414  -22.4781  -55.9320 H         1 UNK         0.3000 
    241 H241       -1.9981  -21.7396  -53.9890 H         1 UNK         0.0600 
    242 H242        0.0325  -24.9066  -53.3741 H         1 UNK         0.3800 
    243 H243       -1.0692  -24.5454  -54.6760 H         1 UNK         0.3800 
    244 H244       -0.4655  -20.0941  -55.6535 H         1 UNK         0.0800 
    245 H245        0.7218  -20.5864  -54.4996 H         1 UNK         0.0800 
    246 H246        0.0276  -20.2718  -51.6245 H         1 UNK         0.0800 
    247 H247        1.1186  -19.2482  -52.5205 H         1 UNK         0.0800 
@<TRIPOS>BOND
     1    1    2 1    
     2    1  127 1    
     3    1  128 1    
     4    1  129 1    
     5    2    3 2    
     6    2    4 am   BACKBONE|DICT|INTERRES
     7    4    5 1    
     8    4  130 1    
     9    5    6 1    
    10    5   65 1    
    11    5  131 1    
    12    6    7 1    
    13    6  132 1    
    14    6  133 1    
    15    7    8 1    
    16    8    9 1    
    17    8  134 1    
    18    8  135 1    
    19    9   10 ar   
    20    9   14 ar   
    21   10   11 ar   
    22   10  136 1    
    23   11   12 ar   
    24   11  126 1    
    25   12   13 ar   
    26   12  137 1    
    27   13   14 ar   
    28   13   15 1    
    29   14  138 1    
    30   15   16 1    
    31   15  139 1    
    32   15  140 1    
    33   16   17 1    
    34   17   18 1    
    35   17  141 1    
    36   17  142 1    
    37   18   19 1    
    38   18   67 1    
    39   18  143 1    
    40   19   20 am   BACKBONE|DICT|INTERRES
    41   19  144 1    
    42   20   21 2    
    43   20   22 1    
    44   22   23 1    
    45   22   24 1    
    46   22  145 1    
    47   23  146 1    
    48   23  147 1    
    49   23  148 1    
    50   24   25 am   BACKBONE|DICT|INTERRES
    51   24  149 1    
    52   25   26 2    
    53   25   27 1    
    54   27   28 1    
    55   27   29 1    
    56   27  150 1    
    57   28  151 1    
    58   28  152 1    
    59   28  153 1    
    60   29   30 am   BACKBONE|DICT|INTERRES
    61   29  154 1    
    62   30   31 2    
    63   30   32 1    
    64   32   33 1    
    65   32   34 1    
    66   32  155 1    
    67   33  156 1    
    68   33  157 1    
    69   33  158 1    
    70   34   35 am   BACKBONE|DICT|INTERRES
    71   34  159 1    
    72   35   36 2    
    73   35   37 1    
    74   37   38 1    
    75   37   39 1    
    76   37  160 1    
    77   38  161 1    
    78   38  162 1    
    79   38  163 1    
    80   39   40 am   BACKBONE|DICT|INTERRES
    81   39  164 1    
    82   40   41 2    
    83   40   42 1    
    84   42   43 1    
    85   42   44 1    
    86   42  165 1    
    87   43  166 1    
    88   43  167 1    
    89   43  168 1    
    90   44   45 am   BACKBONE|DICT|INTERRES
    91   44  169 1    
    92   45   46 2    
    93   45   47 1    
    94   47   48 1    
    95   47   49 1    
    96   47  170 1    
    97   48  171 1    
    98   48  172 1    
    99   48  173 1    
   100   49   50 am   BACKBONE|DICT|INTERRES
   101   49  174 1    
   102   50   51 2    
   103   50   52 1    
   104   52   53 1    
   105   52   54 1    
   106   52  175 1    
   107   53  176 1    
   108   53  177 1    
   109   53  178 1    
   110   54   55 am   BACKBONE|DICT|INTERRES
   111   54  179 1    
   112   55   56 2    
   113   55   57 1    
   114   57   58 1    
   115   57   59 1    
   116   57  180 1    
   117   58  181 1    
   118   58  182 1    
   119   58  183 1    
   120   59   60 am   BACKBONE|DICT|INTERRES
   121   59  184 1    
   122   60   61 2    
   123   60   62 1    
   124   62   63 1    
   125   62   64 1    
   126   62  185 1    
   127   63  186 1    
   128   63  187 1    
   129   63  188 1    
   130   64   65 am   BACKBONE|DICT|INTERRES
   131   64  189 1    
   132   65   66 2    
   133   67   68 2    
   134   67   69 am   BACKBONE|DICT|INTERRES
   135   69   70 1    
   136   69  190 1    
   137   70   71 1    
   138   70   72 1    
   139   70  191 1    
   140   71  192 1    
   141   71  193 1    
   142   71  194 1    
   143   72   73 2    
   144   72   74 am   BACKBONE|DICT|INTERRES
   145   74   75 1    
   146   74  195 1    
   147   75   76 1    
   148   75   77 1    
   149   75  196 1    
   150   76  197 1    
   151   76  198 1    
   152   76  199 1    
   153   77   78 2    
   154   77   79 am   BACKBONE|DICT|INTERRES
   155   79   80 1    
   156   79  200 1    
   157   80   81 1    
   158   80   82 1    
   159   80  201 1    
   160   81  202 1    
   161   81  203 1    
   162   81  204 1    
   163   82   83 2    
   164   82   84 am   BACKBONE|DICT|INTERRES
   165   84   85 1    
   166   84  205 1    
   167   85   86 1    
   168   85   87 1    
   169   85  206 1    
   170   86  207 1    
   171   86  208 1    
   172   86  209 1    
   173   87   88 2    
   174   87   89 am   BACKBONE|DICT|INTERRES
   175   89   90 1    
   176   89  210 1    
   177   90   91 1    
   178   90   92 1    
   179   90  211 1    
   180   91  212 1    
   181   91  213 1    
   182   91  214 1    
   183   92   93 2    
   184   92   94 am   BACKBONE|DICT|INTERRES
   185   94   95 1    
   186   94  215 1    
   187   95   96 1    
   188   95   97 1    
   189   95  216 1    
   190   96  217 1    
   191   96  218 1    
   192   96  219 1    
   193   97   98 2    
   194   97   99 am   BACKBONE|DICT|INTERRES
   195   99  100 1    
   196   99  220 1    
   197  100  101 1    
   198  100  102 1    
   199  100  221 1    
   200  101  222 1    
   201  101  223 1    
   202  101  224 1    
   203  102  103 2    
   204  102  104 am   BACKBONE|DICT|INTERRES
   205  104  105 1    
   206  104  225 1    
   207  105  106 1    
   208  105  107 1    
   209  105  226 1    
   210  106  227 1    
   211  106  228 1    
   212  106  229 1    
   213  107  108 2    
   214  107  109 am   BACKBONE|DICT|INTERRES
   215  109  110 1    
   216  109  230 1    
   217  110  111 1    
   218  110  112 1    
   219  110  231 1    
   220  111  232 1    
   221  111  233 1    
   222  111  234 1    
   223  112  113 2    
   224  112  114 am   BACKBONE|DICT|INTERRES
   225  114  115 1    
   226  114  235 1    
   227  115  116 1    
   228  115  117 1    
   229  115  236 1    
   230  116  237 1    
   231  116  238 1    
   232  116  239 1    
   233  117  118 2    
   234  117  119 am   BACKBONE|DICT|INTERRES
   235  119  120 1    
   236  119  240 1    
   237  120  121 1    
   238  120  124 1    
   239  120  241 1    
   240  121  122 am   BACKBONE|DICT|INTERRES
   241  121  123 2    
   242  122  242 1    
   243  122  243 1    
   244  124  125 1    
   245  124  244 1    
   246  124  245 1    
   247  125  126 1    
   248  126  246 1    
   249  126  247 1    
@<TRIPOS>SUBSTRUCTURE
     1 UNK         1 GROUP             0       ****    0 ROOT    
