@<TRIPOS>MOLECULE
3R540
247   249    1
SMALL
USER_CHARGES


@<TRIPOS>ATOM
      1 CA          4.1043  -15.3015  -44.3550 C.3       0 UNK        -0.1800 
      2 C           3.0507  -14.2674  -44.7183 C.2       0 UNK         0.5000 
      3 O           2.6464  -13.4815  -43.8622 O.2       0 UNK        -0.5000 
      4 N           2.6375  -14.2299  -45.9926 N.am      1 UNK        -0.5000 
      5 CA          1.6405  -13.2919  -46.5354 C.3       1 UNK         0.1400 
      6 C6          1.2198  -13.6638  -47.9768 C.3       23 UNK        -0.0398 
      7 S7          0.2874  -15.2279  -48.0341 S.3       23 UNK        -0.2404 
      8 C8          1.0544  -16.0756  -49.4465 C.3       23 UNK        -0.0205 
      9 C9          0.1071  -17.1080  -50.0372 C.ar      23 UNK        -0.0193 
     10 C10        -0.9412  -16.6885  -50.8612 C.ar      23 UNK        -0.1150 
     11 C11        -1.8169  -17.6175  -51.4271 C.ar      23 UNK        -0.0193 
     12 C12        -1.6325  -18.9781  -51.1712 C.ar      23 UNK        -0.1150 
     13 C13        -0.5851  -19.4141  -50.3523 C.ar      23 UNK        -0.0193 
     14 C14         0.2783  -18.4725  -49.7808 C.ar      23 UNK        -0.1150 
     15 C15        -0.3739  -20.9035  -50.1137 C.3       23 UNK        -0.0205 
     16 S16        -1.8097  -21.6744  -49.3068 S.3       23 UNK        -0.2404 
     17 C17        -1.5257  -21.1963  -47.5706 C.3       23 UNK        -0.0398 
     18 CA         -1.0950  -22.4118  -46.7172 C.3       11 UNK         0.1400 
     19 N          -0.1233  -22.0542  -45.6809 N.am      11 UNK        -0.5000 
     20 C           0.6309  -22.9472  -45.0229 C.2       10 UNK         0.5000 
     21 O           0.5442  -24.1614  -45.2142 O.2       10 UNK        -0.5000 
     22 CA          1.5891  -22.4125  -43.9407 C.3       10 UNK         0.1400 
     23 CB          2.8686  -23.2630  -43.8040 C.3       10 UNK        -0.1800 
     24 N           1.9014  -20.9879  -44.0850 N.am      10 UNK        -0.5000 
     25 C           2.6114  -20.3834  -45.0520 C.2       9 UNK         0.5000 
     26 O           3.1443  -20.9825  -45.9861 O.2       9 UNK        -0.5000 
     27 CA          2.7328  -18.8442  -44.9799 C.3       9 UNK         0.1400 
     28 CB          2.2236  -18.1904  -46.2776 C.3       9 UNK        -0.1800 
     29 N           2.0041  -18.2744  -43.8434 N.am      9 UNK        -0.5000 
     30 C           2.4555  -18.2205  -42.5819 C.2       8 UNK         0.5000 
     31 O           3.5943  -18.5476  -42.2498 O.2       8 UNK        -0.5000 
     32 CA          1.4510  -17.7674  -41.5055 C.3       8 UNK         0.1400 
     33 CB          1.6389  -16.2773  -41.1812 C.3       8 UNK        -0.1800 
     34 N           0.0601  -18.0172  -41.8994 N.am      8 UNK        -0.5000 
     35 C          -0.5146  -19.2312  -41.9127 C.2       7 UNK         0.5000 
     36 O           0.0648  -20.2583  -41.5609 O.2       7 UNK        -0.5000 
     37 CA         -1.9482  -19.3348  -42.4749 C.3       7 UNK         0.1400 
     38 CB         -2.9856  -19.1035  -41.3673 C.3       7 UNK        -0.1800 
     39 N          -2.1970  -18.4019  -43.5740 N.am      7 UNK        -0.5000 
     40 C          -1.5435  -18.4139  -44.7434 C.2       6 UNK         0.5000 
     41 O          -0.7687  -19.3140  -45.0672 O.2       6 UNK        -0.5000 
     42 CA         -1.7223  -17.1972  -45.6755 C.3       6 UNK         0.1400 
     43 CB         -2.5604  -17.5600  -46.9099 C.3       6 UNK        -0.1800 
     44 N          -2.2963  -16.0078  -45.0323 N.am      6 UNK        -0.5000 
     45 C          -1.7315  -15.3291  -44.0240 C.2       5 UNK         0.5000 
     46 O          -0.6714  -15.6670  -43.4935 O.2       5 UNK        -0.5000 
     47 CA         -2.5313  -14.1338  -43.4718 C.3       5 UNK         0.1400 
     48 CB         -3.7802  -14.6269  -42.7211 C.3       5 UNK        -0.1800 
     49 N          -1.7340  -13.3266  -42.5487 N.am      5 UNK        -0.5000 
     50 C          -0.7921  -12.4475  -42.9095 C.2       4 UNK         0.5000 
     51 O          -0.5635  -12.1433  -44.0805 O.2       4 UNK        -0.5000 
     52 CA          0.0010  -11.7698  -41.7766 C.3       4 UNK         0.1400 
     53 CB          0.0308  -12.5795  -40.4613 C.3       4 UNK        -0.1800 
     54 N           1.3665  -11.4986  -42.2186 N.am      4 UNK        -0.5000 
     55 C           2.1434  -10.5154  -41.7495 C.2       3 UNK         0.5000 
     56 O           1.7674   -9.6844  -40.9212 O.2       3 UNK        -0.5000 
     57 CA          3.5847  -10.4460  -42.2779 C.3       3 UNK         0.1400 
     58 CB          4.4727  -11.4621  -41.5408 C.3       3 UNK        -0.1800 
     59 N           3.6544  -10.7083  -43.7147 N.am      3 UNK        -0.5000 
     60 C           3.8400   -9.7710  -44.6552 C.2       2 UNK         0.5000 
     61 O           3.9293   -8.5671  -44.4103 O.2       2 UNK        -0.5000 
     62 CA          3.9769  -10.2462  -46.1169 C.3       2 UNK         0.1400 
     63 CB          5.4566  -10.2804  -46.5306 C.3       2 UNK        -0.1800 
     64 N           3.3974  -11.5697  -46.3422 N.am      2 UNK        -0.5000 
     65 C           2.0860  -11.8113  -46.4734 C.2       1 UNK         0.5000 
     66 O           1.2407  -10.9185  -46.5418 O.2       1 UNK        -0.5000 
     67 C          -2.3113  -23.1636  -46.1383 C.2       11 UNK         0.5000 
     68 O          -2.9068  -23.9836  -46.8350 O.2       11 UNK        -0.5000 
     69 N          -2.6255  -22.9152  -44.8586 N.am      12 UNK        -0.5000 
     70 CA         -3.6384  -23.6435  -44.0944 C.3       12 UNK         0.1400 
     71 CB         -3.8548  -22.9429  -42.7442 C.3       12 UNK        -0.1800 
     72 C          -3.2678  -25.1261  -43.8922 C.2       12 UNK         0.5000 
     73 O          -4.1370  -25.9895  -44.0090 O.2       12 UNK        -0.5000 
     74 N          -1.9775  -25.3970  -43.6434 N.am      13 UNK        -0.5000 
     75 CA         -1.4208  -26.7473  -43.5266 C.3       13 UNK         0.1400 
     76 CB         -0.0522  -26.6809  -42.8313 C.3       13 UNK        -0.1800 
     77 C          -1.3104  -27.4502  -44.8926 C.2       13 UNK         0.5000 
     78 O          -1.5080  -28.6629  -44.9700 O.2       13 UNK        -0.5000 
     79 N          -1.0392  -26.6707  -45.9494 N.am      14 UNK        -0.5000 
     80 CA         -1.0220  -27.1188  -47.3453 C.3       14 UNK         0.1400 
     81 CB         -0.2598  -26.0854  -48.1904 C.3       14 UNK        -0.1800 
     82 C          -2.4292  -27.3598  -47.9359 C.2       14 UNK         0.5000 
     83 O          -2.5276  -27.8870  -49.0436 O.2       14 UNK        -0.5000 
     84 N          -3.4799  -26.9608  -47.2037 N.am      15 UNK        -0.5000 
     85 CA         -4.9002  -27.0315  -47.5554 C.3       15 UNK         0.1400 
     86 CB         -5.3634  -28.4949  -47.7176 C.3       15 UNK        -0.1800 
     87 C          -5.2593  -26.1337  -48.7577 C.2       15 UNK         0.5000 
     88 O          -5.9873  -26.5612  -49.6555 O.2       15 UNK        -0.5000 
     89 N          -4.7463  -24.8937  -48.7325 N.am      16 UNK        -0.5000 
     90 CA         -4.9804  -23.8104  -49.6941 C.3       16 UNK         0.1400 
     91 CB         -6.4626  -23.3807  -49.6761 C.3       16 UNK        -0.1800 
     92 C          -4.4557  -24.1369  -51.1085 C.2       16 UNK         0.5000 
     93 O          -5.1031  -23.8044  -52.1020 O.2       16 UNK        -0.5000 
     94 N          -3.2879  -24.7929  -51.1677 N.am      17 UNK        -0.5000 
     95 CA         -2.6872  -25.3860  -52.3668 C.3       17 UNK         0.1400 
     96 CB         -1.3344  -26.0108  -51.9923 C.3       17 UNK        -0.1800 
     97 C          -2.5172  -24.4390  -53.5707 C.2       17 UNK         0.5000 
     98 O          -2.7562  -24.8609  -54.7030 O.2       17 UNK        -0.5000 
     99 N          -2.1128  -23.1883  -53.3120 N.am      18 UNK        -0.5000 
    100 CA        -1.8713  -22.1794  -54.3485 C.3       18 UNK         0.1400 
    101 CB        -0.5743  -21.4193  -54.0301 C.3       18 UNK        -0.1800 
    102 C         -3.0427  -21.1959  -54.5150 C.2       18 UNK         0.5000 
    103 O         -2.9693  -20.3321  -55.3884 O.2       18 UNK        -0.5000 
    104 N         -4.1087  -21.3227  -53.7094 N.am      19 UNK        -0.5000 
    105 CA        -5.2364  -20.3824  -53.6856 C.3       19 UNK         0.1400 
    106 CB        -6.1515  -20.7005  -52.4967 C.3       19 UNK        -0.1800 
    107 C         -6.0422  -20.3174  -54.9983 C.2       19 UNK         0.5000 
    108 O         -6.6927  -19.3052  -55.2554 O.2       19 UNK        -0.5000 
    109 N         -5.9575  -21.3743  -55.8171 N.am      20 UNK        -0.5000 
    110 CA        -6.5076  -21.4245  -57.1714 C.3       20 UNK         0.1400 
    111 CB        -6.5540  -22.8892  -57.6331 C.3       20 UNK        -0.1800 
    112 C         -5.7152  -20.5664  -58.1805 C.2       20 UNK         0.5000 
    113 O         -6.2929  -20.1307  -59.1773 O.2       20 UNK        -0.5000 
    114 N         -4.4181  -20.3461  -57.9198 N.am      21 UNK        -0.5000 
    115 CA        -3.5368  -19.5139  -58.7402 C.3       21 UNK         0.1400 
    116 CB        -2.1069  -20.0756  -58.6857 C.3       21 UNK        -0.1800 
    117 C         -3.5606  -18.0420  -58.2912 C.2       21 UNK         0.5000 
    118 O         -3.3973  -17.1558  -59.1314 O.2       21 UNK        -0.5000 
    119 N         -3.7632  -17.8067  -56.9875 N.am      22 UNK        -0.5000 
    120 CA        -3.9271  -16.4773  -56.3772 C.3       22 UNK         0.1400 
    121 C         -5.1465  -15.6889  -56.9374 C.2       22 UNK         0.5000 
    122 N         -5.0372  -14.3723  -57.0554 N.am      22 UNK        -0.7600 
    123 O         -6.2020  -16.2486  -57.2249 O.2       22 UNK        -0.5000 
    124 C124       -4.0196  -16.5647  -54.8328 C.3       23 UNK        -0.0398 
    125 S125       -2.5032  -17.2292  -54.0705 S.3       23 UNK        -0.2404 
    126 C126       -2.9602  -17.1510  -52.3127 C.3       23 UNK        -0.0205 
    127 H127        4.2194  -16.0564  -45.1323 H         1 UNK         0.0600 
    128 H128        3.8337  -15.8024  -43.4271 H         1 UNK         0.0600 
    129 H129        5.0676  -14.8141  -44.2057 H         1 UNK         0.0600 
    130 H130        3.0102  -14.8956  -46.6536 H         1 UNK         0.3000 
    131 H131        0.7557  -13.3721  -45.9026 H         1 UNK         0.0600 
    132 H132        0.5703  -12.8969  -48.4036 H         1 UNK         0.0800 
    133 H133        2.0948  -13.7183  -48.6266 H         1 UNK         0.0800 
    134 H134        1.9889  -16.5398  -49.1280 H         1 UNK         0.0800 
    135 H135        1.3130  -15.3504  -50.2196 H         1 UNK         0.0800 
    136 H136       -1.0752  -15.6343  -51.0598 H         1 UNK         0.1150 
    137 H137       -2.3042  -19.7000  -51.6142 H         1 UNK         0.1150 
    138 H138        1.0908  -18.8007  -49.1482 H         1 UNK         0.1150 
    139 H139        0.5211  -21.0848  -49.5162 H         1 UNK         0.0800 
    140 H140       -0.1996  -21.4006  -51.0666 H         1 UNK         0.0800 
    141 H141       -2.4245  -20.7196  -47.1756 H         1 UNK         0.0800 
    142 H142       -0.7539  -20.4259  -47.5488 H         1 UNK         0.0800 
    143 H143       -0.5735  -23.1125  -47.3711 H         1 UNK         0.0600 
    144 H144       -0.0564  -21.0680  -45.4442 H         1 UNK         0.3000 
    145 H145        1.0441  -22.4992  -42.9999 H         1 UNK         0.0600 
    146 H146        3.5291  -22.8616  -43.0354 H         1 UNK         0.0600 
    147 H147        2.6279  -24.2879  -43.5195 H         1 UNK         0.0600 
    148 H148        3.4281  -23.3100  -44.7385 H         1 UNK         0.0600 
    149 H149        1.4942  -20.3955  -43.3739 H         1 UNK         0.3000 
    150 H150        3.7926  -18.6049  -44.8736 H         1 UNK         0.0600 
    151 H151        2.8650  -18.4504  -47.1203 H         1 UNK         0.0600 
    152 H152        2.2127  -17.1041  -46.2020 H         1 UNK         0.0600 
    153 H153        1.2148  -18.5144  -46.5308 H         1 UNK         0.0600 
    154 H154        1.0481  -18.0003  -44.0187 H         1 UNK         0.3000 
    155 H155        1.6589  -18.3377  -40.5977 H         1 UNK         0.0600 
    156 H156        1.4973  -15.6467  -42.0593 H         1 UNK         0.0600 
    157 H157        2.6444  -16.0851  -40.8050 H         1 UNK         0.0600 
    158 H158        0.9370  -15.9515  -40.4140 H         1 UNK         0.0600 
    159 H159       -0.4439  -17.2194  -42.2745 H         1 UNK         0.3000 
    160 H160       -2.0789  -20.3480  -42.8592 H         1 UNK         0.0600 
    161 H161       -2.9213  -18.0940  -40.9591 H         1 UNK         0.0600 
    162 H162       -2.8382  -19.8022  -40.5426 H         1 UNK         0.0600 
    163 H163       -3.9994  -19.2521  -41.7396 H         1 UNK         0.0600 
    164 H164       -2.8210  -17.6321  -43.3856 H         1 UNK         0.3000 
    165 H165       -0.7206  -16.9299  -46.0116 H         1 UNK         0.0600 
    166 H166       -2.6661  -16.7062  -47.5797 H         1 UNK         0.0600 
    167 H167       -3.5592  -17.9017  -46.6361 H         1 UNK         0.0600 
    168 H168       -2.0825  -18.3507  -47.4875 H         1 UNK         0.0600 
    169 H169       -3.1782  -15.6850  -45.4035 H         1 UNK         0.3000 
    170 H170       -2.8448  -13.5103  -44.3117 H         1 UNK         0.0600 
    171 H171       -4.4456  -15.1869  -43.3792 H         1 UNK         0.0600 
    172 H172       -3.5182  -15.2788  -41.8865 H         1 UNK         0.0600 
    173 H173       -4.3553  -13.7904  -42.3234 H         1 UNK         0.0600 
    174 H174       -1.8353  -13.5420  -41.5683 H         1 UNK         0.3000 
    175 H175       -0.5023  -10.8199  -41.5858 H         1 UNK         0.0600 
    176 H176        0.4639  -13.5681  -40.6135 H         1 UNK         0.0600 
    177 H177        0.6239  -12.0743  -39.6988 H         1 UNK         0.0600 
    178 H178       -0.9682  -12.7081  -40.0439 H         1 UNK         0.0600 
    179 H179        1.7359  -12.1458  -42.9123 H         1 UNK         0.3000 
    180 H180        3.9706   -9.4490  -42.0554 H         1 UNK         0.0600 
    181 H181        4.1461  -12.4882  -41.7150 H         1 UNK         0.0600 
    182 H182        4.4521  -11.2896  -40.4639 H         1 UNK         0.0600 
    183 H183        5.5111  -11.3827  -41.8628 H         1 UNK         0.0600 
    184 H184        3.5177  -11.6719  -43.9975 H         1 UNK         0.3000 
    185 H185        3.4635   -9.5205  -46.7513 H         1 UNK         0.0600 
    186 H186        5.5670  -10.5590  -47.5788 H         1 UNK         0.0600 
    187 H187        5.9200   -9.3008  -46.4058 H         1 UNK         0.0600 
    188 H188        6.0264  -10.9916  -45.9311 H         1 UNK         0.0600 
    189 H189        4.0298  -12.3560  -46.3134 H         1 UNK         0.3000 
    190 H190       -2.0864  -22.2221  -44.3627 H         1 UNK         0.3000 
    191 H191       -4.5758  -23.6075  -44.6538 H         1 UNK         0.0600 
    192 H192       -4.6115  -23.4608  -42.1533 H         1 UNK         0.0600 
    193 H193       -4.1994  -21.9180  -42.8830 H         1 UNK         0.0600 
    194 H194       -2.9396  -22.9127  -42.1515 H         1 UNK         0.0600 
    195 H195       -1.3177  -24.6347  -43.6067 H         1 UNK         0.3000 
    196 H196       -2.0889  -27.3415  -42.8995 H         1 UNK         0.0600 
    197 H197        0.6737  -26.1141  -43.4142 H         1 UNK         0.0600 
    198 H198       -0.1306  -26.2159  -41.8485 H         1 UNK         0.0600 
    199 H199        0.3574  -27.6812  -42.6852 H         1 UNK         0.0600 
    200 H200       -0.8149  -25.6968  -45.7820 H         1 UNK         0.3000 
    201 H201       -0.4782  -28.0644  -47.3922 H         1 UNK         0.0600 
    202 H202       -0.8375  -25.1715  -48.3234 H         1 UNK         0.0600 
    203 H203       -0.0468  -26.4805  -49.1840 H         1 UNK         0.0600 
    204 H204        0.6953  -25.8208  -47.7359 H         1 UNK         0.0600 
    205 H205       -3.2777  -26.5036  -46.3255 H         1 UNK         0.3000 
    206 H206       -5.4382  -26.6162  -46.7020 H         1 UNK         0.0600 
    207 H207       -5.1015  -29.0897  -46.8425 H         1 UNK         0.0600 
    208 H208       -6.4463  -28.5492  -47.8340 H         1 UNK         0.0600 
    209 H209       -4.9185  -28.9699  -48.5922 H         1 UNK         0.0600 
    210 H210       -4.1183  -24.6532  -47.9656 H         1 UNK         0.3000 
    211 H211       -4.3980  -22.9614  -49.3387 H         1 UNK         0.0600 
    212 H212       -6.6143  -22.4688  -50.2514 H         1 UNK         0.0600 
    213 H213       -6.8017  -23.1784  -48.6602 H         1 UNK         0.0600 
    214 H214       -7.1133  -24.1453  -50.1013 H         1 UNK         0.0600 
    215 H215       -2.8427  -25.0227  -50.2917 H         1 UNK         0.3000 
    216 H216       -3.3524  -26.1908  -52.6859 H         1 UNK         0.0600 
    217 H217       -0.6522  -25.2718  -51.5701 H         1 UNK         0.0600 
    218 H218       -0.8473  -26.4475  -52.8653 H         1 UNK         0.0600 
    219 H219       -1.4586  -26.8104  -51.2630 H         1 UNK         0.0600 
    220 H220       -1.9544  -22.9149  -52.3528 H         1 UNK         0.3000 
    221 H221       -1.7287  -22.6652  -55.3160 H         1 UNK         0.0600 
    222 H222        0.2494  -22.1016  -53.8198 H         1 UNK         0.0600 
    223 H223       -0.6942  -20.7540  -53.1776 H         1 UNK         0.0600 
    224 H224       -0.2739  -20.7994  -54.8758 H         1 UNK         0.0600 
    225 H225       -4.1587  -22.1097  -53.0737 H         1 UNK         0.3000 
    226 H226       -4.8188  -19.3884  -53.5245 H         1 UNK         0.0600 
    227 H227       -6.6299  -21.6736  -52.6097 H         1 UNK         0.0600 
    228 H228       -5.5936  -20.6991  -51.5602 H         1 UNK         0.0600 
    229 H229       -6.9436  -19.9565  -52.4040 H         1 UNK         0.0600 
    230 H230       -5.4136  -22.1692  -55.5144 H         1 UNK         0.3000 
    231 H231       -7.5304  -21.0426  -57.1433 H         1 UNK         0.0600 
    232 H232       -5.5579  -23.3323  -57.6675 H         1 UNK         0.0600 
    233 H233       -6.9843  -22.9703  -58.6323 H         1 UNK         0.0600 
    234 H234       -7.1685  -23.4941  -56.9660 H         1 UNK         0.0600 
    235 H235       -4.0244  -20.6809  -57.0478 H         1 UNK         0.3000 
    236 H236       -3.8673  -19.5505  -59.7805 H         1 UNK         0.0600 
    237 H237       -2.0781  -21.1141  -59.0157 H         1 UNK         0.0600 
    238 H238       -1.4427  -19.5083  -59.3387 H         1 UNK         0.0600 
    239 H239       -1.6892  -20.0312  -57.6796 H         1 UNK         0.0600 
    240 H240       -3.8164  -18.5977  -56.3587 H         1 UNK         0.3000 
    241 H241       -3.0294  -15.9089  -56.6282 H         1 UNK         0.0600 
    242 H242       -5.8237  -13.8455  -57.4033 H         1 UNK         0.3800 
    243 H243       -4.1845  -13.8871  -56.8209 H         1 UNK         0.3800 
    244 H244       -4.8705  -17.1798  -54.5365 H         1 UNK         0.0800 
    245 H245       -4.1933  -15.5750  -54.4059 H         1 UNK         0.0800 
    246 H246       -3.8420  -17.7658  -52.1302 H         1 UNK         0.0800 
    247 H247       -3.2402  -16.1281  -52.0561 H         1 UNK         0.0800 
@<TRIPOS>BOND
     1    1    2 1    
     2    1  127 1    
     3    1  128 1    
     4    1  129 1    
     5    2    3 2    
     6    2    4 am   BACKBONE|DICT|INTERRES
     7    4    5 1    
     8    4  130 1    
     9    5    6 1    
    10    5   65 1    
    11    5  131 1    
    12    6    7 1    
    13    6  132 1    
    14    6  133 1    
    15    7    8 1    
    16    8    9 1    
    17    8  134 1    
    18    8  135 1    
    19    9   10 ar   
    20    9   14 ar   
    21   10   11 ar   
    22   10  136 1    
    23   11   12 ar   
    24   11  126 1    
    25   12   13 ar   
    26   12  137 1    
    27   13   14 ar   
    28   13   15 1    
    29   14  138 1    
    30   15   16 1    
    31   15  139 1    
    32   15  140 1    
    33   16   17 1    
    34   17   18 1    
    35   17  141 1    
    36   17  142 1    
    37   18   19 1    
    38   18   67 1    
    39   18  143 1    
    40   19   20 am   BACKBONE|DICT|INTERRES
    41   19  144 1    
    42   20   21 2    
    43   20   22 1    
    44   22   23 1    
    45   22   24 1    
    46   22  145 1    
    47   23  146 1    
    48   23  147 1    
    49   23  148 1    
    50   24   25 am   BACKBONE|DICT|INTERRES
    51   24  149 1    
    52   25   26 2    
    53   25   27 1    
    54   27   28 1    
    55   27   29 1    
    56   27  150 1    
    57   28  151 1    
    58   28  152 1    
    59   28  153 1    
    60   29   30 am   BACKBONE|DICT|INTERRES
    61   29  154 1    
    62   30   31 2    
    63   30   32 1    
    64   32   33 1    
    65   32   34 1    
    66   32  155 1    
    67   33  156 1    
    68   33  157 1    
    69   33  158 1    
    70   34   35 am   BACKBONE|DICT|INTERRES
    71   34  159 1    
    72   35   36 2    
    73   35   37 1    
    74   37   38 1    
    75   37   39 1    
    76   37  160 1    
    77   38  161 1    
    78   38  162 1    
    79   38  163 1    
    80   39   40 am   BACKBONE|DICT|INTERRES
    81   39  164 1    
    82   40   41 2    
    83   40   42 1    
    84   42   43 1    
    85   42   44 1    
    86   42  165 1    
    87   43  166 1    
    88   43  167 1    
    89   43  168 1    
    90   44   45 am   BACKBONE|DICT|INTERRES
    91   44  169 1    
    92   45   46 2    
    93   45   47 1    
    94   47   48 1    
    95   47   49 1    
    96   47  170 1    
    97   48  171 1    
    98   48  172 1    
    99   48  173 1    
   100   49   50 am   BACKBONE|DICT|INTERRES
   101   49  174 1    
   102   50   51 2    
   103   50   52 1    
   104   52   53 1    
   105   52   54 1    
   106   52  175 1    
   107   53  176 1    
   108   53  177 1    
   109   53  178 1    
   110   54   55 am   BACKBONE|DICT|INTERRES
   111   54  179 1    
   112   55   56 2    
   113   55   57 1    
   114   57   58 1    
   115   57   59 1    
   116   57  180 1    
   117   58  181 1    
   118   58  182 1    
   119   58  183 1    
   120   59   60 am   BACKBONE|DICT|INTERRES
   121   59  184 1    
   122   60   61 2    
   123   60   62 1    
   124   62   63 1    
   125   62   64 1    
   126   62  185 1    
   127   63  186 1    
   128   63  187 1    
   129   63  188 1    
   130   64   65 am   BACKBONE|DICT|INTERRES
   131   64  189 1    
   132   65   66 2    
   133   67   68 2    
   134   67   69 am   BACKBONE|DICT|INTERRES
   135   69   70 1    
   136   69  190 1    
   137   70   71 1    
   138   70   72 1    
   139   70  191 1    
   140   71  192 1    
   141   71  193 1    
   142   71  194 1    
   143   72   73 2    
   144   72   74 am   BACKBONE|DICT|INTERRES
   145   74   75 1    
   146   74  195 1    
   147   75   76 1    
   148   75   77 1    
   149   75  196 1    
   150   76  197 1    
   151   76  198 1    
   152   76  199 1    
   153   77   78 2    
   154   77   79 am   BACKBONE|DICT|INTERRES
   155   79   80 1    
   156   79  200 1    
   157   80   81 1    
   158   80   82 1    
   159   80  201 1    
   160   81  202 1    
   161   81  203 1    
   162   81  204 1    
   163   82   83 2    
   164   82   84 am   BACKBONE|DICT|INTERRES
   165   84   85 1    
   166   84  205 1    
   167   85   86 1    
   168   85   87 1    
   169   85  206 1    
   170   86  207 1    
   171   86  208 1    
   172   86  209 1    
   173   87   88 2    
   174   87   89 am   BACKBONE|DICT|INTERRES
   175   89   90 1    
   176   89  210 1    
   177   90   91 1    
   178   90   92 1    
   179   90  211 1    
   180   91  212 1    
   181   91  213 1    
   182   91  214 1    
   183   92   93 2    
   184   92   94 am   BACKBONE|DICT|INTERRES
   185   94   95 1    
   186   94  215 1    
   187   95   96 1    
   188   95   97 1    
   189   95  216 1    
   190   96  217 1    
   191   96  218 1    
   192   96  219 1    
   193   97   98 2    
   194   97   99 am   BACKBONE|DICT|INTERRES
   195   99  100 1    
   196   99  220 1    
   197  100  101 1    
   198  100  102 1    
   199  100  221 1    
   200  101  222 1    
   201  101  223 1    
   202  101  224 1    
   203  102  103 2    
   204  102  104 am   BACKBONE|DICT|INTERRES
   205  104  105 1    
   206  104  225 1    
   207  105  106 1    
   208  105  107 1    
   209  105  226 1    
   210  106  227 1    
   211  106  228 1    
   212  106  229 1    
   213  107  108 2    
   214  107  109 am   BACKBONE|DICT|INTERRES
   215  109  110 1    
   216  109  230 1    
   217  110  111 1    
   218  110  112 1    
   219  110  231 1    
   220  111  232 1    
   221  111  233 1    
   222  111  234 1    
   223  112  113 2    
   224  112  114 am   BACKBONE|DICT|INTERRES
   225  114  115 1    
   226  114  235 1    
   227  115  116 1    
   228  115  117 1    
   229  115  236 1    
   230  116  237 1    
   231  116  238 1    
   232  116  239 1    
   233  117  118 2    
   234  117  119 am   BACKBONE|DICT|INTERRES
   235  119  120 1    
   236  119  240 1    
   237  120  121 1    
   238  120  124 1    
   239  120  241 1    
   240  121  122 am   BACKBONE|DICT|INTERRES
   241  121  123 2    
   242  122  242 1    
   243  122  243 1    
   244  124  125 1    
   245  124  244 1    
   246  124  245 1    
   247  125  126 1    
   248  126  246 1    
   249  126  247 1    
@<TRIPOS>SUBSTRUCTURE
     1 UNK         1 GROUP             0       ****    0 ROOT    
