@<TRIPOS>MOLECULE
3R540
247   249    1
SMALL
USER_CHARGES


@<TRIPOS>ATOM
      1 CA          4.8858  -18.0465  -48.0767 C.3       0 UNK        -0.1800 
      2 C           5.4256  -17.0877  -49.1369 C.2       0 UNK         0.5000 
      3 O           6.3453  -17.4634  -49.8600 O.2       0 UNK        -0.5000 
      4 N           4.9204  -15.8517  -49.2799 N.am      1 UNK        -0.5000 
      5 CA          3.8502  -15.1958  -48.5133 C.3       1 UNK         0.1400 
      6 C6          3.4907  -13.8286  -49.1505 C.3       23 UNK        -0.0398 
      7 S7          1.8810  -13.1409  -48.6160 S.3       23 UNK        -0.2404 
      8 C8          0.9292  -13.0947  -50.1714 C.3       23 UNK        -0.0205 
      9 C9          0.0692  -14.3370  -50.3441 C.ar      23 UNK        -0.0193 
     10 C10        -1.3198  -14.2547  -50.2051 C.ar      23 UNK        -0.1150 
     11 C11        -2.1163  -15.3946  -50.3415 C.ar      23 UNK        -0.0193 
     12 C12        -1.5112  -16.6297  -50.5892 C.ar      23 UNK        -0.1150 
     13 C13        -0.1262  -16.7221  -50.7496 C.ar      23 UNK        -0.0193 
     14 C14         0.6567  -15.5690  -50.6435 C.ar      23 UNK        -0.1150 
     15 C15         0.5211  -18.0740  -51.0150 C.3       23 UNK        -0.0205 
     16 S16         1.7544  -18.5247  -49.7501 S.3       23 UNK        -0.2404 
     17 C17         0.8052  -18.3680  -48.1987 C.3       23 UNK        -0.0398 
     18 CA          0.3228  -19.7244  -47.6426 C.3       11 UNK         0.1400 
     19 N           0.0503  -19.6371  -46.2087 N.am      11 UNK        -0.5000 
     20 C          -0.2408  -20.6769  -45.4182 C.2       10 UNK         0.5000 
     21 O          -0.2411  -21.8469  -45.7971 O.2       10 UNK        -0.5000 
     22 CA         -0.6594  -20.3464  -43.9777 C.3       10 UNK         0.1400 
     23 CB          0.5631  -20.2110  -43.0603 C.3       10 UNK        -0.1800 
     24 N          -1.4773  -19.1338  -43.9119 N.am      10 UNK        -0.5000 
     25 C          -2.7410  -19.0631  -44.3532 C.2       9 UNK         0.5000 
     26 O          -3.3565  -20.0251  -44.8136 O.2       9 UNK        -0.5000 
     27 CA         -3.4134  -17.6792  -44.3098 C.3       9 UNK         0.1400 
     28 CB         -3.9290  -17.3693  -42.8966 C.3       9 UNK        -0.1800 
     29 N          -2.5204  -16.6080  -44.7567 N.am      9 UNK        -0.5000 
     30 C          -2.1186  -16.4520  -46.0278 C.2       8 UNK         0.5000 
     31 O          -2.4716  -17.1897  -46.9453 O.2       8 UNK        -0.5000 
     32 CA         -1.1224  -15.3151  -46.3291 C.3       8 UNK         0.1400 
     33 CB         -1.8713  -14.0208  -46.6757 C.3       8 UNK        -0.1800 
     34 N          -0.1815  -15.0376  -45.2455 N.am      8 UNK        -0.5000 
     35 C           0.6293  -15.9283  -44.6608 C.2       7 UNK         0.5000 
     36 O           0.6599  -17.1227  -44.9612 O.2       7 UNK        -0.5000 
     37 CA          1.5302  -15.4139  -43.5214 C.3       7 UNK         0.1400 
     38 CB          1.5899  -13.8752  -43.4021 C.3       7 UNK        -0.1800 
     39 N           1.1749  -15.9986  -42.2303 N.am      7 UNK        -0.5000 
     40 C          -0.0258  -16.0019  -41.6334 C.2       6 UNK         0.5000 
     41 O          -1.0611  -15.5794  -42.1508 O.2       6 UNK        -0.5000 
     42 CA         -0.0643  -16.5482  -40.1947 C.3       6 UNK         0.1400 
     43 CB         -0.2318  -18.0731  -40.1930 C.3       6 UNK        -0.1800 
     44 N           1.1383  -16.1990  -39.4356 N.am      6 UNK        -0.5000 
     45 C           1.4450  -14.9613  -39.0200 C.2       5 UNK         0.5000 
     46 O           0.7027  -13.9889  -39.1617 O.2       5 UNK        -0.5000 
     47 CA          2.8106  -14.7741  -38.3299 C.3       5 UNK         0.1400 
     48 CB          2.6533  -14.8321  -36.8026 C.3       5 UNK        -0.1800 
     49 N           3.8108  -15.7620  -38.7435 N.am      5 UNK        -0.5000 
     50 C           4.3991  -15.7962  -39.9469 C.2       4 UNK         0.5000 
     51 O           4.1784  -14.9663  -40.8319 O.2       4 UNK        -0.5000 
     52 CA          5.4164  -16.9326  -40.1992 C.3       4 UNK         0.1400 
     53 CB          5.2002  -18.1729  -39.3022 C.3       4 UNK        -0.1800 
     54 N           5.4747  -17.3280  -41.6098 N.am      4 UNK        -0.5000 
     55 C           4.4767  -17.8177  -42.3570 C.2       3 UNK         0.5000 
     56 O           3.3337  -18.0111  -41.9365 O.2       3 UNK        -0.5000 
     57 CA          4.8248  -18.0937  -43.8341 C.3       3 UNK         0.1400 
     58 CB          3.7686  -18.9565  -44.5459 C.3       3 UNK        -0.1800 
     59 N           4.9976  -16.8420  -44.5721 N.am      3 UNK        -0.5000 
     60 C           6.0802  -16.0557  -44.5356 C.2       2 UNK         0.5000 
     61 O           7.0977  -16.3499  -43.9044 O.2       2 UNK        -0.5000 
     62 CA          6.0117  -14.7290  -45.3291 C.3       2 UNK         0.1400 
     63 CB          7.3755  -14.0200  -45.4126 C.3       2 UNK        -0.1800 
     64 N           5.4865  -14.8885  -46.6893 N.am      2 UNK        -0.5000 
     65 C           4.1958  -15.0412  -47.0151 C.2       1 UNK         0.5000 
     66 O           3.3012  -15.1201  -46.1770 O.2       1 UNK        -0.5000 
     67 C          -0.8933  -20.2727  -48.4223 C.2       11 UNK         0.5000 
     68 O          -0.7277  -21.1600  -49.2585 O.2       11 UNK        -0.5000 
     69 N          -2.0997  -19.7799  -48.1031 N.am      12 UNK        -0.5000 
     70 CA         -3.3596  -20.2626  -48.6668 C.3       12 UNK         0.1400 
     71 CB         -4.5120  -19.3363  -48.2542 C.3       12 UNK        -0.1800 
     72 C          -3.6708  -21.7197  -48.2893 C.2       12 UNK         0.5000 
     73 O          -4.1201  -22.4785  -49.1491 O.2       12 UNK        -0.5000 
     74 N          -3.3943  -22.0955  -47.0323 N.am      13 UNK        -0.5000 
     75 CA         -3.4983  -23.4708  -46.5432 C.3       13 UNK         0.1400 
     76 CB         -3.2820  -23.5072  -45.0232 C.3       13 UNK        -0.1800 
     77 C          -2.5284  -24.4207  -47.2698 C.2       13 UNK         0.5000 
     78 O          -2.9505  -25.4913  -47.7091 O.2       13 UNK        -0.5000 
     79 N          -1.2699  -23.9838  -47.4333 N.am      14 UNK        -0.5000 
     80 CA         -0.2210  -24.6827  -48.1806 C.3       14 UNK         0.1400 
     81 CB          1.1182  -23.9525  -48.0010 C.3       14 UNK        -0.1800 
     82 C          -0.5525  -24.8611  -49.6747 C.2       14 UNK         0.5000 
     83 O          -0.2163  -25.8977  -50.2471 O.2       14 UNK        -0.5000 
     84 N          -1.2746  -23.8971  -50.2629 N.am      15 UNK        -0.5000 
     85 CA         -1.8528  -23.9456  -51.6108 C.3       15 UNK         0.1400 
     86 CB         -2.1071  -22.5057  -52.0958 C.3       15 UNK        -0.1800 
     87 C          -3.1246  -24.8261  -51.6949 C.2       15 UNK         0.5000 
     88 O          -4.0616  -24.4842  -52.4196 O.2       15 UNK        -0.5000 
     89 N          -3.1364  -25.9366  -50.9418 N.am      16 UNK        -0.5000 
     90 CA         -4.1875  -26.9504  -50.8184 C.3       16 UNK         0.1400 
     91 CB         -4.2116  -27.8439  -52.0738 C.3       16 UNK        -0.1800 
     92 C          -5.5653  -26.3614  -50.4516 C.2       16 UNK         0.5000 
     93 O          -6.5791  -26.7469  -51.0358 O.2       16 UNK        -0.5000 
     94 N          -5.5590  -25.4261  -49.4898 N.am      17 UNK        -0.5000 
     95 CA         -6.7018  -24.6339  -49.0234 C.3       17 UNK         0.1400 
     96 CB         -7.7346  -25.5241  -48.3008 C.3       17 UNK        -0.1800 
     97 C          -7.3096  -23.7759  -50.1532 C.2       17 UNK         0.5000 
     98 O          -8.5127  -23.8452  -50.4119 O.2       17 UNK        -0.5000 
     99 N          -6.4409  -22.9825  -50.7964 N.am      18 UNK        -0.5000 
    100 CA        -6.7222  -22.0492  -51.8911 C.3       18 UNK         0.1400 
    101 CB        -7.5968  -20.8834  -51.3843 C.3       18 UNK        -0.1800 
    102 C         -7.3027  -22.7395  -53.1433 C.2       18 UNK         0.5000 
    103 O         -8.3143  -22.2931  -53.6892 O.2       18 UNK        -0.5000 
    104 N         -6.6549  -23.8283  -53.5774 N.am      19 UNK        -0.5000 
    105 CA        -7.0352  -24.6123  -54.7521 C.3       19 UNK         0.1400 
    106 CB        -6.3521  -25.9867  -54.6808 C.3       19 UNK        -0.1800 
    107 C         -6.6857  -23.8666  -56.0543 C.2       19 UNK         0.5000 
    108 O         -5.5739  -24.0152  -56.5650 O.2       19 UNK        -0.5000 
    109 N         -7.6387  -23.0590  -56.5445 N.am      20 UNK        -0.5000 
    110 CA        -7.5465  -22.1936  -57.7291 C.3       20 UNK         0.1400 
    111 CB        -7.4626  -23.0374  -59.0186 C.3       20 UNK        -0.1800 
    112 C         -6.4133  -21.1511  -57.6093 C.2       20 UNK         0.5000 
    113 O         -5.6703  -20.9157  -58.5644 O.2       20 UNK        -0.5000 
    114 N         -6.2954  -20.5626  -56.4156 N.am      21 UNK        -0.5000 
    115 CA        -5.2555  -19.6226  -56.0162 C.3       21 UNK         0.1400 
    116 CB        -3.9996  -20.4128  -55.5935 C.3       21 UNK        -0.1800 
    117 C         -5.7891  -18.7531  -54.8666 C.2       21 UNK         0.5000 
    118 O         -6.9347  -18.9297  -54.4439 O.2       21 UNK        -0.5000 
    119 N         -4.9410  -17.8468  -54.3640 N.am      22 UNK        -0.5000 
    120 CA        -5.1834  -17.0582  -53.1426 C.3       22 UNK         0.1400 
    121 C         -5.3622  -17.9387  -51.8706 C.2       22 UNK         0.5000 
    122 N         -4.6544  -19.0564  -51.7551 N.am      22 UNK        -0.7600 
    123 O         -6.1621  -17.6205  -50.9964 O.2       22 UNK        -0.5000 
    124 C124       -4.0605  -16.0060  -52.9502 C.3       23 UNK        -0.0398 
    125 S125       -4.4330  -14.6912  -51.7340 S.3       23 UNK        -0.2404 
    126 C126       -3.6288  -15.2952  -50.2088 C.3       23 UNK        -0.0205 
    127 H127        3.8942  -17.7813  -47.7178 H         1 UNK         0.0600 
    128 H128        5.5639  -18.0740  -47.2242 H         1 UNK         0.0600 
    129 H129        4.8210  -19.0545  -48.4863 H         1 UNK         0.0600 
    130 H130        5.3276  -15.2757  -50.0028 H         1 UNK         0.3000 
    131 H131        2.9691  -15.8365  -48.5811 H         1 UNK         0.0600 
    132 H132        4.2657  -13.0889  -48.9411 H         1 UNK         0.0800 
    133 H133        3.4779  -13.9286  -50.2361 H         1 UNK         0.0800 
    134 H134        0.2988  -12.2044  -50.1540 H         1 UNK         0.0800 
    135 H135        1.5874  -12.9724  -51.0322 H         1 UNK         0.0800 
    136 H136       -1.7855  -13.3029  -49.9915 H         1 UNK         0.1150 
    137 H137       -2.1228  -17.5181  -50.6660 H         1 UNK         0.1150 
    138 H138        1.7280  -15.6393  -50.7643 H         1 UNK         0.1150 
    139 H139       -0.2309  -18.8626  -51.0706 H         1 UNK         0.0800 
    140 H140        1.0094  -18.0473  -51.9898 H         1 UNK         0.0800 
    141 H141       -0.0262  -17.6726  -48.3065 H         1 UNK         0.0800 
    142 H142        1.4776  -17.8974  -47.4804 H         1 UNK         0.0800 
    143 H143        1.1351  -20.4456  -47.7562 H         1 UNK         0.0600 
    144 H144        0.0849  -18.7102  -45.7912 H         1 UNK         0.3000 
    145 H145       -1.2552  -21.1864  -43.6143 H         1 UNK         0.0600 
    146 H146        0.2677  -20.2950  -42.0160 H         1 UNK         0.0600 
    147 H147        1.2900  -21.0025  -43.2471 H         1 UNK         0.0600 
    148 H148        1.0715  -19.2562  -43.1943 H         1 UNK         0.0600 
    149 H149       -1.0127  -18.2832  -43.6277 H         1 UNK         0.3000 
    150 H150       -4.2729  -17.7061  -44.9833 H         1 UNK         0.0600 
    151 H151       -4.6415  -18.1272  -42.5683 H         1 UNK         0.0600 
    152 H152       -4.4403  -16.4071  -42.8651 H         1 UNK         0.0600 
    153 H153       -3.1204  -17.3432  -42.1659 H         1 UNK         0.0600 
    154 H154       -2.1437  -15.9954  -44.0424 H         1 UNK         0.3000 
    155 H155       -0.5373  -15.6118  -47.2016 H         1 UNK         0.0600 
    156 H156       -2.4030  -13.6193  -45.8123 H         1 UNK         0.0600 
    157 H157       -1.1852  -13.2546  -47.0380 H         1 UNK         0.0600 
    158 H158       -2.6069  -14.1925  -47.4606 H         1 UNK         0.0600 
    159 H159       -0.1487  -14.0845  -44.9161 H         1 UNK         0.3000 
    160 H160        2.5362  -15.7664  -43.7424 H         1 UNK         0.0600 
    161 H161        0.6283  -13.4445  -43.1205 H         1 UNK         0.0600 
    162 H162        1.9046  -13.4185  -44.3416 H         1 UNK         0.0600 
    163 H163        2.3156  -13.5771  -42.6451 H         1 UNK         0.0600 
    164 H164        1.9405  -16.4625  -41.7545 H         1 UNK         0.3000 
    165 H165       -0.9308  -16.1080  -39.6966 H         1 UNK         0.0600 
    166 H166       -0.4190  -18.4462  -39.1860 H         1 UNK         0.0600 
    167 H167       -1.0727  -18.3810  -40.8161 H         1 UNK         0.0600 
    168 H168        0.6641  -18.5667  -40.5695 H         1 UNK         0.0600 
    169 H169        1.8101  -16.9362  -39.2814 H         1 UNK         0.3000 
    170 H170        3.1796  -13.7814  -38.5968 H         1 UNK         0.0600 
    171 H171        2.3008  -15.8094  -36.4705 H         1 UNK         0.0600 
    172 H172        3.5987  -14.6265  -36.3002 H         1 UNK         0.0600 
    173 H173        1.9344  -14.0887  -36.4555 H         1 UNK         0.0600 
    174 H174        4.0527  -16.4701  -38.0655 H         1 UNK         0.3000 
    175 H175        6.3969  -16.5179  -39.9618 H         1 UNK         0.0600 
    176 H176        5.9048  -18.9650  -39.5559 H         1 UNK         0.0600 
    177 H177        4.1942  -18.5814  -39.4059 H         1 UNK         0.0600 
    178 H178        5.3585  -17.9378  -38.2493 H         1 UNK         0.0600 
    179 H179        6.3423  -17.1148  -42.0899 H         1 UNK         0.3000 
    180 H180        5.7642  -18.6505  -43.8504 H         1 UNK         0.0600 
    181 H181        4.0999  -19.2478  -45.5416 H         1 UNK         0.0600 
    182 H182        2.8230  -18.4290  -44.6514 H         1 UNK         0.0600 
    183 H183        3.5742  -19.8749  -43.9911 H         1 UNK         0.0600 
    184 H184        4.1937  -16.4979  -45.0862 H         1 UNK         0.3000 
    185 H185        5.3364  -14.0728  -44.7757 H         1 UNK         0.0600 
    186 H186        7.7730  -13.8122  -44.4183 H         1 UNK         0.0600 
    187 H187        8.1116  -14.6262  -45.9421 H         1 UNK         0.0600 
    188 H188        7.2923  -13.0642  -45.9303 H         1 UNK         0.0600 
    189 H189        6.1692  -14.8867  -47.4335 H         1 UNK         0.3000 
    190 H190       -2.1668  -18.9989  -47.4560 H         1 UNK         0.3000 
    191 H191       -3.2594  -20.2250  -49.7516 H         1 UNK         0.0600 
    192 H192       -4.3552  -18.3243  -48.6268 H         1 UNK         0.0600 
    193 H193       -5.4637  -19.6855  -48.6566 H         1 UNK         0.0600 
    194 H194       -4.6151  -19.2797  -47.1704 H         1 UNK         0.0600 
    195 H195       -3.0813  -21.3949  -46.3693 H         1 UNK         0.3000 
    196 H196       -4.5137  -23.8175  -46.7410 H         1 UNK         0.0600 
    197 H197       -3.4141  -24.5183  -44.6364 H         1 UNK         0.0600 
    198 H198       -3.9969  -22.8654  -44.5080 H         1 UNK         0.0600 
    199 H199       -2.2804  -23.1804  -44.7463 H         1 UNK         0.0600 
    200 H200       -1.0003  -23.1049  -46.9982 H         1 UNK         0.3000 
    201 H201       -0.1221  -25.6799  -47.7472 H         1 UNK         0.0600 
    202 H202        1.3950  -23.8897  -46.9485 H         1 UNK         0.0600 
    203 H203        1.0816  -22.9382  -48.3977 H         1 UNK         0.0600 
    204 H204        1.9220  -24.4780  -48.5180 H         1 UNK         0.0600 
    205 H205       -1.4650  -23.0567  -49.7283 H         1 UNK         0.3000 
    206 H206       -1.1173  -24.3935  -52.2816 H         1 UNK         0.0600 
    207 H207       -1.2005  -21.9030  -52.0368 H         1 UNK         0.0600 
    208 H208       -2.4369  -22.4925  -53.1353 H         1 UNK         0.0600 
    209 H209       -2.8753  -22.0118  -51.5016 H         1 UNK         0.0600 
    210 H210       -2.3050  -26.1121  -50.3910 H         1 UNK         0.3000 
    211 H211       -3.9031  -27.5817  -49.9753 H         1 UNK         0.0600 
    212 H212       -4.4405  -27.2713  -52.9702 H         1 UNK         0.0600 
    213 H213       -4.9582  -28.6339  -51.9849 H         1 UNK         0.0600 
    214 H214       -3.2471  -28.3276  -52.2276 H         1 UNK         0.0600 
    215 H215       -4.6619  -25.1862  -49.0841 H         1 UNK         0.3000 
    216 H216       -6.3126  -23.9308  -48.2869 H         1 UNK         0.0600 
    217 H217       -8.5268  -24.9187  -47.8591 H         1 UNK         0.0600 
    218 H218       -7.2698  -26.0894  -47.4932 H         1 UNK         0.0600 
    219 H219       -8.2082  -26.2347  -48.9786 H         1 UNK         0.0600 
    220 H220       -5.4773  -23.0011  -50.4746 H         1 UNK         0.3000 
    221 H221       -5.7598  -21.6361  -52.1946 H         1 UNK         0.0600 
    222 H222       -8.5979  -21.2152  -51.1082 H         1 UNK         0.0600 
    223 H223       -7.1517  -20.4037  -50.5130 H         1 UNK         0.0600 
    224 H224       -7.7092  -20.1172  -52.1514 H         1 UNK         0.0600 
    225 H225       -5.8024  -24.1142  -53.1001 H         1 UNK         0.3000 
    226 H226       -8.1140  -24.7802  -54.7277 H         1 UNK         0.0600 
    227 H227       -6.6606  -26.5322  -53.7892 H         1 UNK         0.0600 
    228 H228       -6.6144  -26.5991  -55.5442 H         1 UNK         0.0600 
    229 H229       -5.2658  -25.8930  -54.6612 H         1 UNK         0.0600 
    230 H230       -8.4856  -22.9591  -55.9996 H         1 UNK         0.3000 
    231 H231       -8.4774  -21.6261  -57.7689 H         1 UNK         0.0600 
    232 H232       -6.5295  -23.5984  -59.0774 H         1 UNK         0.0600 
    233 H233       -7.5186  -22.4034  -59.9041 H         1 UNK         0.0600 
    234 H234       -8.2860  -23.7491  -59.0780 H         1 UNK         0.0600 
    235 H235       -6.9861  -20.7470  -55.6980 H         1 UNK         0.3000 
    236 H236       -5.0160  -18.9637  -56.8531 H         1 UNK         0.0600 
    237 H237       -3.6441  -21.0515  -56.4023 H         1 UNK         0.0600 
    238 H238       -3.1762  -19.7493  -55.3285 H         1 UNK         0.0600 
    239 H239       -4.2008  -21.0528  -54.7331 H         1 UNK         0.0600 
    240 H240       -4.0261  -17.7532  -54.7797 H         1 UNK         0.3000 
    241 H241       -6.1228  -16.5229  -53.2937 H         1 UNK         0.0600 
    242 H242       -3.9990  -19.3309  -52.4678 H         1 UNK         0.3800 
    243 H243       -4.8034  -19.6314  -50.9461 H         1 UNK         0.3800 
    244 H244       -3.1138  -16.4907  -52.7181 H         1 UNK         0.0800 
    245 H245       -3.8904  -15.4924  -53.8974 H         1 UNK         0.0800 
    246 H246       -3.8776  -14.6106  -49.3979 H         1 UNK         0.0800 
    247 H247       -4.0487  -16.2583  -49.9195 H         1 UNK         0.0800 
@<TRIPOS>BOND
     1    1    2 1    
     2    1  127 1    
     3    1  128 1    
     4    1  129 1    
     5    2    3 2    
     6    2    4 am   BACKBONE|DICT|INTERRES
     7    4    5 1    
     8    4  130 1    
     9    5    6 1    
    10    5   65 1    
    11    5  131 1    
    12    6    7 1    
    13    6  132 1    
    14    6  133 1    
    15    7    8 1    
    16    8    9 1    
    17    8  134 1    
    18    8  135 1    
    19    9   10 ar   
    20    9   14 ar   
    21   10   11 ar   
    22   10  136 1    
    23   11   12 ar   
    24   11  126 1    
    25   12   13 ar   
    26   12  137 1    
    27   13   14 ar   
    28   13   15 1    
    29   14  138 1    
    30   15   16 1    
    31   15  139 1    
    32   15  140 1    
    33   16   17 1    
    34   17   18 1    
    35   17  141 1    
    36   17  142 1    
    37   18   19 1    
    38   18   67 1    
    39   18  143 1    
    40   19   20 am   BACKBONE|DICT|INTERRES
    41   19  144 1    
    42   20   21 2    
    43   20   22 1    
    44   22   23 1    
    45   22   24 1    
    46   22  145 1    
    47   23  146 1    
    48   23  147 1    
    49   23  148 1    
    50   24   25 am   BACKBONE|DICT|INTERRES
    51   24  149 1    
    52   25   26 2    
    53   25   27 1    
    54   27   28 1    
    55   27   29 1    
    56   27  150 1    
    57   28  151 1    
    58   28  152 1    
    59   28  153 1    
    60   29   30 am   BACKBONE|DICT|INTERRES
    61   29  154 1    
    62   30   31 2    
    63   30   32 1    
    64   32   33 1    
    65   32   34 1    
    66   32  155 1    
    67   33  156 1    
    68   33  157 1    
    69   33  158 1    
    70   34   35 am   BACKBONE|DICT|INTERRES
    71   34  159 1    
    72   35   36 2    
    73   35   37 1    
    74   37   38 1    
    75   37   39 1    
    76   37  160 1    
    77   38  161 1    
    78   38  162 1    
    79   38  163 1    
    80   39   40 am   BACKBONE|DICT|INTERRES
    81   39  164 1    
    82   40   41 2    
    83   40   42 1    
    84   42   43 1    
    85   42   44 1    
    86   42  165 1    
    87   43  166 1    
    88   43  167 1    
    89   43  168 1    
    90   44   45 am   BACKBONE|DICT|INTERRES
    91   44  169 1    
    92   45   46 2    
    93   45   47 1    
    94   47   48 1    
    95   47   49 1    
    96   47  170 1    
    97   48  171 1    
    98   48  172 1    
    99   48  173 1    
   100   49   50 am   BACKBONE|DICT|INTERRES
   101   49  174 1    
   102   50   51 2    
   103   50   52 1    
   104   52   53 1    
   105   52   54 1    
   106   52  175 1    
   107   53  176 1    
   108   53  177 1    
   109   53  178 1    
   110   54   55 am   BACKBONE|DICT|INTERRES
   111   54  179 1    
   112   55   56 2    
   113   55   57 1    
   114   57   58 1    
   115   57   59 1    
   116   57  180 1    
   117   58  181 1    
   118   58  182 1    
   119   58  183 1    
   120   59   60 am   BACKBONE|DICT|INTERRES
   121   59  184 1    
   122   60   61 2    
   123   60   62 1    
   124   62   63 1    
   125   62   64 1    
   126   62  185 1    
   127   63  186 1    
   128   63  187 1    
   129   63  188 1    
   130   64   65 am   BACKBONE|DICT|INTERRES
   131   64  189 1    
   132   65   66 2    
   133   67   68 2    
   134   67   69 am   BACKBONE|DICT|INTERRES
   135   69   70 1    
   136   69  190 1    
   137   70   71 1    
   138   70   72 1    
   139   70  191 1    
   140   71  192 1    
   141   71  193 1    
   142   71  194 1    
   143   72   73 2    
   144   72   74 am   BACKBONE|DICT|INTERRES
   145   74   75 1    
   146   74  195 1    
   147   75   76 1    
   148   75   77 1    
   149   75  196 1    
   150   76  197 1    
   151   76  198 1    
   152   76  199 1    
   153   77   78 2    
   154   77   79 am   BACKBONE|DICT|INTERRES
   155   79   80 1    
   156   79  200 1    
   157   80   81 1    
   158   80   82 1    
   159   80  201 1    
   160   81  202 1    
   161   81  203 1    
   162   81  204 1    
   163   82   83 2    
   164   82   84 am   BACKBONE|DICT|INTERRES
   165   84   85 1    
   166   84  205 1    
   167   85   86 1    
   168   85   87 1    
   169   85  206 1    
   170   86  207 1    
   171   86  208 1    
   172   86  209 1    
   173   87   88 2    
   174   87   89 am   BACKBONE|DICT|INTERRES
   175   89   90 1    
   176   89  210 1    
   177   90   91 1    
   178   90   92 1    
   179   90  211 1    
   180   91  212 1    
   181   91  213 1    
   182   91  214 1    
   183   92   93 2    
   184   92   94 am   BACKBONE|DICT|INTERRES
   185   94   95 1    
   186   94  215 1    
   187   95   96 1    
   188   95   97 1    
   189   95  216 1    
   190   96  217 1    
   191   96  218 1    
   192   96  219 1    
   193   97   98 2    
   194   97   99 am   BACKBONE|DICT|INTERRES
   195   99  100 1    
   196   99  220 1    
   197  100  101 1    
   198  100  102 1    
   199  100  221 1    
   200  101  222 1    
   201  101  223 1    
   202  101  224 1    
   203  102  103 2    
   204  102  104 am   BACKBONE|DICT|INTERRES
   205  104  105 1    
   206  104  225 1    
   207  105  106 1    
   208  105  107 1    
   209  105  226 1    
   210  106  227 1    
   211  106  228 1    
   212  106  229 1    
   213  107  108 2    
   214  107  109 am   BACKBONE|DICT|INTERRES
   215  109  110 1    
   216  109  230 1    
   217  110  111 1    
   218  110  112 1    
   219  110  231 1    
   220  111  232 1    
   221  111  233 1    
   222  111  234 1    
   223  112  113 2    
   224  112  114 am   BACKBONE|DICT|INTERRES
   225  114  115 1    
   226  114  235 1    
   227  115  116 1    
   228  115  117 1    
   229  115  236 1    
   230  116  237 1    
   231  116  238 1    
   232  116  239 1    
   233  117  118 2    
   234  117  119 am   BACKBONE|DICT|INTERRES
   235  119  120 1    
   236  119  240 1    
   237  120  121 1    
   238  120  124 1    
   239  120  241 1    
   240  121  122 am   BACKBONE|DICT|INTERRES
   241  121  123 2    
   242  122  242 1    
   243  122  243 1    
   244  124  125 1    
   245  124  244 1    
   246  124  245 1    
   247  125  126 1    
   248  126  246 1    
   249  126  247 1    
@<TRIPOS>SUBSTRUCTURE
     1 UNK         1 GROUP             0       ****    0 ROOT    
