@<TRIPOS>MOLECULE
3R540
247   249    1
SMALL
USER_CHARGES


@<TRIPOS>ATOM
      1 CA          2.9908   -9.6687  -52.6578 C.3       0 UNK        -0.1800 
      2 C           2.9692  -10.3370  -51.2902 C.2       0 UNK         0.5000 
      3 O           2.9073   -9.6471  -50.2723 O.2       0 UNK        -0.5000 
      4 N           3.0273  -11.6743  -51.2627 N.am      1 UNK        -0.5000 
      5 CA          2.9491  -12.4952  -50.0518 C.3       1 UNK         0.1400 
      6 C6          3.4651  -13.9319  -50.3195 C.3       23 UNK        -0.0398 
      7 S7          4.1633  -14.7289  -48.8344 S.3       23 UNK        -0.2404 
      8 C8          2.7752  -15.7453  -48.2469 C.3       23 UNK        -0.0205 
      9 C9          2.5166  -16.9647  -49.1173 C.ar      23 UNK        -0.0193 
     10 C10         1.5387  -16.9250  -50.1155 C.ar      23 UNK        -0.1150 
     11 C11         1.2724  -18.0525  -50.8961 C.ar      23 UNK        -0.0193 
     12 C12         1.9806  -19.2335  -50.6602 C.ar      23 UNK        -0.1150 
     13 C13         2.9523  -19.2901  -49.6553 C.ar      23 UNK        -0.0193 
     14 C14         3.2221  -18.1498  -48.8931 C.ar      23 UNK        -0.1150 
     15 C15         3.6950  -20.5904  -49.3791 C.3       23 UNK        -0.0205 
     16 S16         3.1640  -21.3659  -47.8167 S.3       23 UNK        -0.2404 
     17 C17         1.3556  -21.4057  -48.0392 C.3       23 UNK        -0.0398 
     18 CA          0.6589  -22.5376  -47.2542 C.3       11 UNK         0.1400 
     19 N           0.9200  -22.4752  -45.8152 N.am      11 UNK        -0.5000 
     20 C           0.5679  -23.4034  -44.9172 C.2       10 UNK         0.5000 
     21 O           0.0098  -24.4571  -45.2260 O.2       10 UNK        -0.5000 
     22 CA          0.8066  -23.0712  -43.4290 C.3       10 UNK         0.1400 
     23 CB          1.2518  -24.3009  -42.6120 C.3       10 UNK        -0.1800 
     24 N           1.6941  -21.9223  -43.2097 N.am      10 UNK        -0.5000 
     25 C           3.0090  -21.8288  -43.4620 C.2       9 UNK         0.5000 
     26 O           3.6940  -22.7609  -43.8835 O.2       9 UNK        -0.5000 
     27 CA          3.6755  -20.4553  -43.2339 C.3       9 UNK         0.1400 
     28 CB          4.0861  -19.8322  -44.5777 C.3       9 UNK        -0.1800 
     29 N           2.8253  -19.4995  -42.5210 N.am      9 UNK        -0.5000 
     30 C           2.5690  -19.5215  -41.2067 C.2       8 UNK         0.5000 
     31 O           3.0675  -20.3329  -40.4261 O.2       8 UNK        -0.5000 
     32 CA          1.5539  -18.4851  -40.6853 C.3       8 UNK         0.1400 
     33 CB          2.2434  -17.1418  -40.4036 C.3       8 UNK        -0.1800 
     34 N           0.4236  -18.2742  -41.5955 N.am      8 UNK        -0.5000 
     35 C          -0.4751  -19.2141  -41.9244 C.2       7 UNK         0.5000 
     36 O          -0.4504  -20.3657  -41.4908 O.2       7 UNK        -0.5000 
     37 CA         -1.5545  -18.8221  -42.9471 C.3       7 UNK         0.1400 
     38 CB         -2.6640  -17.9834  -42.2964 C.3       7 UNK        -0.1800 
     39 N          -0.9948  -18.1044  -44.0899 N.am      7 UNK        -0.5000 
     40 C          -0.1866  -18.6522  -45.0068 C.2       6 UNK         0.5000 
     41 O           0.0862  -19.8512  -45.0444 O.2       6 UNK        -0.5000 
     42 CA          0.4358  -17.7037  -46.0455 C.3       6 UNK         0.1400 
     43 CB         -0.5212  -17.5094  -47.2290 C.3       6 UNK        -0.1800 
     44 N           0.7925  -16.4035  -45.4769 N.am      6 UNK        -0.5000 
     45 C           1.7158  -16.2184  -44.5224 C.2       5 UNK         0.5000 
     46 O           2.3948  -17.1246  -44.0444 O.2       5 UNK        -0.5000 
     47 CA          1.8665  -14.7922  -43.9688 C.3       5 UNK         0.1400 
     48 CB          2.7870  -13.9413  -44.8581 C.3       5 UNK        -0.1800 
     49 N           0.5686  -14.1365  -43.8146 N.am      5 UNK        -0.5000 
     50 C          -0.3454  -14.4868  -42.8980 C.2       4 UNK         0.5000 
     51 O          -0.1622  -15.3615  -42.0510 O.2       4 UNK        -0.5000 
     52 CA         -1.7079  -13.7729  -42.9742 C.3       4 UNK         0.1400 
     53 CB         -1.6515  -12.4191  -42.2512 C.3       4 UNK        -0.1800 
     54 N          -2.1547  -13.5686  -44.3536 N.am      4 UNK        -0.5000 
     55 C          -2.4978  -14.5573  -45.1921 C.2       3 UNK         0.5000 
     56 O          -2.5324  -15.7430  -44.8669 O.2       3 UNK        -0.5000 
     57 CA         -2.7990  -14.1604  -46.6513 C.3       3 UNK         0.1400 
     58 CB         -4.2889  -13.8327  -46.8255 C.3       3 UNK        -0.1800 
     59 N          -1.9911  -13.0310  -47.1260 N.am      3 UNK        -0.5000 
     60 C          -0.6549  -13.0464  -47.2190 C.2       2 UNK         0.5000 
     61 O           0.0332  -14.0152  -46.8969 O.2       2 UNK        -0.5000 
     62 CA          0.0212  -11.7349  -47.6543 C.3       2 UNK         0.1400 
     63 CB          0.2227  -10.8233  -46.4331 C.3       2 UNK        -0.1800 
     64 N           1.3214  -11.9447  -48.2941 N.am      2 UNK        -0.5000 
     65 C           1.5021  -12.4747  -49.5103 C.2       1 UNK         0.5000 
     66 O           0.5840  -12.8918  -50.2205 O.2       1 UNK        -0.5000 
     67 C          -0.8518  -22.4962  -47.5432 C.2       11 UNK         0.5000 
     68 O          -1.3187  -23.2076  -48.4310 O.2       11 UNK        -0.5000 
     69 N          -1.5930  -21.6930  -46.7642 N.am      12 UNK        -0.5000 
     70 CA         -3.0498  -21.5846  -46.8505 C.3       12 UNK         0.1400 
     71 CB         -3.5367  -20.4210  -45.9751 C.3       12 UNK        -0.1800 
     72 C          -3.7694  -22.8898  -46.4687 C.2       12 UNK         0.5000 
     73 O          -4.7941  -23.2099  -47.0693 O.2       12 UNK        -0.5000 
     74 N          -3.2005  -23.6284  -45.5057 N.am      13 UNK        -0.5000 
     75 CA         -3.6723  -24.9462  -45.0858 C.3       13 UNK         0.1400 
     76 CB         -3.1055  -25.2784  -43.6968 C.3       13 UNK        -0.1800 
     77 C          -3.3049  -26.0358  -46.1079 C.2       13 UNK         0.5000 
     78 O          -4.1385  -26.8934  -46.3973 O.2       13 UNK        -0.5000 
     79 N          -2.0823  -25.9667  -46.6560 N.am      14 UNK        -0.5000 
     80 CA         -1.5734  -26.8788  -47.6831 C.3       14 UNK         0.1400 
     81 CB         -0.0707  -26.6352  -47.8884 C.3       14 UNK        -0.1800 
     82 C          -2.3339  -26.7618  -49.0173 C.2       14 UNK         0.5000 
     83 O          -2.6808  -27.7837  -49.6108 O.2       14 UNK        -0.5000 
     84 N          -2.6062  -25.5217  -49.4478 N.am      15 UNK        -0.5000 
     85 CA         -3.4265  -25.2102  -50.6210 C.3       15 UNK         0.1400 
     86 CB         -3.1951  -23.7439  -51.0203 C.3       15 UNK        -0.1800 
     87 C          -4.9284  -25.4545  -50.3815 C.2       15 UNK         0.5000 
     88 O          -5.6739  -25.6221  -51.3470 O.2       15 UNK        -0.5000 
     89 N          -5.3445  -25.4285  -49.1071 N.am      16 UNK        -0.5000 
     90 CA         -6.6945  -25.5703  -48.5484 C.3       16 UNK         0.1400 
     91 CB         -7.3206  -26.9277  -48.9174 C.3       16 UNK        -0.1800 
     92 C          -7.6410  -24.4032  -48.8869 C.2       16 UNK         0.5000 
     93 O          -8.3331  -23.9023  -48.0001 O.2       16 UNK        -0.5000 
     94 N          -7.6392  -23.9645  -50.1493 N.am      17 UNK        -0.5000 
     95 CA         -8.4489  -22.8793  -50.6990 C.3       17 UNK         0.1400 
     96 CB         -8.6077  -23.1147  -52.2125 C.3       17 UNK        -0.1800 
     97 C          -7.8750  -21.4830  -50.3749 C.2       17 UNK         0.5000 
     98 O          -7.7467  -20.6528  -51.2732 O.2       17 UNK        -0.5000 
     99 N          -7.5229  -21.2459  -49.1029 N.am      18 UNK        -0.5000 
    100 CA        -7.0905  -19.9644  -48.5257 C.3       18 UNK         0.1400 
    101 CB        -8.3038  -19.0226  -48.3835 C.3       18 UNK        -0.1800 
    102 C         -5.9045  -19.2962  -49.2611 C.2       18 UNK         0.5000 
    103 O         -5.8795  -18.0738  -49.4115 O.2       18 UNK        -0.5000 
    104 N         -4.9492  -20.1243  -49.7088 N.am      19 UNK        -0.5000 
    105 CA        -3.7289  -19.7574  -50.4405 C.3       19 UNK         0.1400 
    106 CB        -2.8408  -18.7995  -49.6190 C.3       19 UNK        -0.1800 
    107 C         -3.9757  -19.2495  -51.8783 C.2       19 UNK         0.5000 
    108 O         -3.1073  -18.5802  -52.4425 O.2       19 UNK        -0.5000 
    109 N         -5.1122  -19.6299  -52.4865 N.am      20 UNK        -0.5000 
    110 CA        -5.4715  -19.3191  -53.8790 C.3       20 UNK         0.1400 
    111 CB        -6.9114  -19.7758  -54.1572 C.3       20 UNK        -0.1800 
    112 C         -4.5136  -19.8981  -54.9431 C.2       20 UNK         0.5000 
    113 O         -4.5718  -19.4737  -56.0976 O.2       20 UNK        -0.5000 
    114 N         -3.6208  -20.8146  -54.5402 N.am      21 UNK        -0.5000 
    115 CA        -2.5205  -21.3635  -55.3381 C.3       21 UNK         0.1400 
    116 CB        -1.7578  -22.3888  -54.4843 C.3       21 UNK        -0.1800 
    117 C         -1.5505  -20.2982  -55.8966 C.2       21 UNK         0.5000 
    118 O         -0.9308  -20.5374  -56.9338 O.2       21 UNK        -0.5000 
    119 N         -1.4611  -19.1389  -55.2288 N.am      22 UNK        -0.5000 
    120 CA        -0.7699  -17.9394  -55.7302 C.3       22 UNK         0.1400 
    121 C         -1.5304  -17.1773  -56.8597 C.2       22 UNK         0.5000 
    122 N         -2.7698  -17.5121  -57.1990 N.am      22 UNK        -0.7600 
    123 O         -0.9735  -16.2604  -57.4576 O.2       22 UNK        -0.5000 
    124 C124       -0.3893  -16.9782  -54.5750 C.3       23 UNK        -0.0398 
    125 S125        1.0149  -17.5965  -53.5898 S.3       23 UNK        -0.2404 
    126 C126        0.2284  -17.9854  -51.9988 C.3       23 UNK        -0.0205 
    127 H127        2.0835   -9.0823  -52.8029 H         1 UNK         0.0600 
    128 H128        3.8471   -8.9986  -52.7346 H         1 UNK         0.0600 
    129 H129        3.0567  -10.3983  -53.4653 H         1 UNK         0.0600 
    130 H130        3.0432  -12.1823  -52.1355 H         1 UNK         0.3000 
    131 H131        3.6073  -12.0326  -49.3125 H         1 UNK         0.0600 
    132 H132        4.2846  -13.8960  -51.0388 H         1 UNK         0.0800 
    133 H133        2.7063  -14.5564  -50.7892 H         1 UNK         0.0800 
    134 H134        1.8778  -15.1335  -48.1820 H         1 UNK         0.0800 
    135 H135        2.9978  -16.0703  -47.2307 H         1 UNK         0.0800 
    136 H136        0.9797  -16.0151  -50.2843 H         1 UNK         0.1150 
    137 H137        1.7723  -20.1081  -51.2604 H         1 UNK         0.1150 
    138 H138        3.9675  -18.1924  -48.1111 H         1 UNK         0.1150 
    139 H139        3.5496  -21.2987  -50.1961 H         1 UNK         0.0800 
    140 H140        4.7668  -20.3931  -49.3320 H         1 UNK         0.0800 
    141 H141        1.1436  -21.5188  -49.1040 H         1 UNK         0.0800 
    142 H142        0.9626  -20.4301  -47.7480 H         1 UNK         0.0800 
    143 H143        1.0423  -23.4924  -47.6185 H         1 UNK         0.0600 
    144 H144        1.2867  -21.5986  -45.4677 H         1 UNK         0.3000 
    145 H145       -0.1652  -22.7628  -43.0414 H         1 UNK         0.0600 
    146 H146        1.4100  -24.0422  -41.5650 H         1 UNK         0.0600 
    147 H147        0.4927  -25.0834  -42.6405 H         1 UNK         0.0600 
    148 H148        2.1756  -24.7332  -42.9964 H         1 UNK         0.0600 
    149 H149        1.2306  -21.0919  -42.8633 H         1 UNK         0.3000 
    150 H150        4.5790  -20.6242  -42.6447 H         1 UNK         0.0600 
    151 H151        4.7448  -20.4976  -45.1373 H         1 UNK         0.0600 
    152 H152        4.6221  -18.8944  -44.4308 H         1 UNK         0.0600 
    153 H153        3.2178  -19.6253  -45.2046 H         1 UNK         0.0600 
    154 H154        2.4374  -18.7417  -43.0783 H         1 UNK         0.3000 
    155 H155        1.1522  -18.8629  -39.7429 H         1 UNK         0.0600 
    156 H156        2.6548  -16.7022  -41.3123 H         1 UNK         0.0600 
    157 H157        3.0653  -17.2652  -39.6973 H         1 UNK         0.0600 
    158 H158        1.5468  -16.4239  -39.9704 H         1 UNK         0.0600 
    159 H159        0.3122  -17.3378  -41.9710 H         1 UNK         0.3000 
    160 H160       -2.0039  -19.7457  -43.3135 H         1 UNK         0.0600 
    161 H161       -3.4628  -17.7714  -43.0075 H         1 UNK         0.0600 
    162 H162       -2.2875  -17.0306  -41.9247 H         1 UNK         0.0600 
    163 H163       -3.1099  -18.5125  -41.4534 H         1 UNK         0.0600 
    164 H164       -1.2503  -17.1272  -44.1875 H         1 UNK         0.3000 
    165 H165        1.3539  -18.1632  -46.4172 H         1 UNK         0.0600 
    166 H166       -0.1837  -16.7168  -47.8950 H         1 UNK         0.0600 
    167 H167       -0.5837  -18.4244  -47.8171 H         1 UNK         0.0600 
    168 H168       -1.5300  -17.2565  -46.9025 H         1 UNK         0.0600 
    169 H169        0.3210  -15.5880  -45.8586 H         1 UNK         0.3000 
    170 H170        2.3296  -14.8653  -42.9826 H         1 UNK         0.0600 
    171 H171        3.7704  -14.4036  -44.9517 H         1 UNK         0.0600 
    172 H172        2.3903  -13.8196  -45.8652 H         1 UNK         0.0600 
    173 H173        2.9343  -12.9477  -44.4349 H         1 UNK         0.0600 
    174 H174        0.3183  -13.4572  -44.5169 H         1 UNK         0.3000 
    175 H175       -2.4427  -14.4019  -42.4670 H         1 UNK         0.0600 
    176 H176       -2.6307  -11.9400  -42.2350 H         1 UNK         0.0600 
    177 H177       -1.3348  -12.5438  -41.2148 H         1 UNK         0.0600 
    178 H178       -0.9500  -11.7340  -42.7290 H         1 UNK         0.0600 
    179 H179       -2.1611  -12.6204  -44.6983 H         1 UNK         0.3000 
    180 H180       -2.5653  -15.0220  -47.2799 H         1 UNK         0.0600 
    181 H181       -4.5810  -12.9583  -46.2427 H         1 UNK         0.0600 
    182 H182       -4.9120  -14.6674  -46.5010 H         1 UNK         0.0600 
    183 H183       -4.5302  -13.6372  -47.8705 H         1 UNK         0.0600 
    184 H184       -2.4945  -12.1963  -47.3903 H         1 UNK         0.3000 
    185 H185       -0.6318  -11.2280  -48.3677 H         1 UNK         0.0600 
    186 H186        0.8836  -11.2789  -45.6943 H         1 UNK         0.0600 
    187 H187        0.6560   -9.8661  -46.7239 H         1 UNK         0.0600 
    188 H188       -0.7254  -10.6092  -45.9382 H         1 UNK         0.0600 
    189 H189        2.1277  -11.6303  -47.7752 H         1 UNK         0.3000 
    190 H190       -1.1217  -21.1334  -46.0608 H         1 UNK         0.3000 
    191 H191       -3.3013  -21.3668  -47.8882 H         1 UNK         0.0600 
    192 H192       -3.3820  -20.6266  -44.9165 H         1 UNK         0.0600 
    193 H193       -4.6034  -20.2473  -46.1190 H         1 UNK         0.0600 
    194 H194       -3.0214  -19.4914  -46.2163 H         1 UNK         0.0600 
    195 H195       -2.3397  -23.3023  -45.0938 H         1 UNK         0.3000 
    196 H196       -4.7613  -24.9148  -45.0063 H         1 UNK         0.0600 
    197 H197       -3.4776  -26.2419  -43.3464 H         1 UNK         0.0600 
    198 H198       -3.4006  -24.5298  -42.9613 H         1 UNK         0.0600 
    199 H199       -2.0167  -25.3319  -43.7021 H         1 UNK         0.0600 
    200 H200       -1.4318  -25.2679  -46.3108 H         1 UNK         0.3000 
    201 H201       -1.7029  -27.8985  -47.3146 H         1 UNK         0.0600 
    202 H202        0.4808  -26.7599  -46.9563 H         1 UNK         0.0600 
    203 H203        0.1269  -25.6309  -48.2625 H         1 UNK         0.0600 
    204 H204        0.3436  -27.3408  -48.6094 H         1 UNK         0.0600 
    205 H205       -2.2219  -24.7273  -48.9399 H         1 UNK         0.3000 
    206 H206       -3.1109  -25.8483  -51.4489 H         1 UNK         0.0600 
    207 H207       -2.1453  -23.5573  -51.2477 H         1 UNK         0.0600 
    208 H208       -3.7732  -23.4810  -51.9071 H         1 UNK         0.0600 
    209 H209       -3.4904  -23.0651  -50.2198 H         1 UNK         0.0600 
    210 H210       -4.6387  -25.2249  -48.4131 H         1 UNK         0.3000 
    211 H211       -6.5611  -25.5569  -47.4654 H         1 UNK         0.0600 
    212 H212       -7.5083  -27.0159  -49.9877 H         1 UNK         0.0600 
    213 H213       -8.2749  -27.0655  -48.4078 H         1 UNK         0.0600 
    214 H214       -6.6713  -27.7517  -48.6209 H         1 UNK         0.0600 
    215 H215       -7.0195  -24.4433  -50.7977 H         1 UNK         0.3000 
    216 H216       -9.4433  -22.9238  -50.2504 H         1 UNK         0.0600 
    217 H217       -9.2507  -22.3585  -52.6648 H         1 UNK         0.0600 
    218 H218       -9.0610  -24.0853  -52.4145 H         1 UNK         0.0600 
    219 H219       -7.6461  -23.0814  -52.7264 H         1 UNK         0.0600 
    220 H220       -7.6527  -22.0077  -48.4451 H         1 UNK         0.3000 
    221 H221       -6.7309  -20.1905  -47.5211 H         1 UNK         0.0600 
    222 H222       -8.6967  -18.7241  -49.3562 H         1 UNK         0.0600 
    223 H223       -9.1111  -19.5006  -47.8285 H         1 UNK         0.0600 
    224 H224       -8.0364  -18.1134  -47.8436 H         1 UNK         0.0600 
    225 H225       -5.0953  -21.1127  -49.5608 H         1 UNK         0.3000 
    226 H226       -3.1665  -20.6844  -50.5548 H         1 UNK         0.0600 
    227 H227       -2.7213  -19.1495  -48.5960 H         1 UNK         0.0600 
    228 H228       -1.8432  -18.7246  -50.0510 H         1 UNK         0.0600 
    229 H229       -3.2530  -17.7910  -49.5808 H         1 UNK         0.0600 
    230 H230       -5.8133  -20.1292  -51.9503 H         1 UNK         0.3000 
    231 H231       -5.4373  -18.2334  -53.9884 H         1 UNK         0.0600 
    232 H232       -7.6204  -19.2495  -53.5182 H         1 UNK         0.0600 
    233 H233       -7.0329  -20.8464  -53.9892 H         1 UNK         0.0600 
    234 H234       -7.2002  -19.5702  -55.1888 H         1 UNK         0.0600 
    235 H235       -3.6577  -21.1019  -53.5748 H         1 UNK         0.3000 
    236 H236       -2.9605  -21.8829  -56.1917 H         1 UNK         0.0600 
    237 H237       -0.9377  -22.8350  -55.0484 H         1 UNK         0.0600 
    238 H238       -1.3306  -21.9302  -53.5915 H         1 UNK         0.0600 
    239 H239       -2.4102  -23.2022  -54.1662 H         1 UNK         0.0600 
    240 H240       -2.0016  -19.0215  -54.3808 H         1 UNK         0.3000 
    241 H241        0.1596  -18.2692  -56.1985 H         1 UNK         0.0600 
    242 H242       -3.2264  -17.0022  -57.9383 H         1 UNK         0.3800 
    243 H243       -3.2689  -18.2696  -56.7417 H         1 UNK         0.3800 
    244 H244       -0.0785  -16.0054  -54.9603 H         1 UNK         0.0800 
    245 H245       -1.2535  -16.7820  -53.9384 H         1 UNK         0.0800 
    246 H246       -0.5192  -17.2290  -51.7543 H         1 UNK         0.0800 
    247 H247       -0.3039  -18.9343  -52.0799 H         1 UNK         0.0800 
@<TRIPOS>BOND
     1    1    2 1    
     2    1  127 1    
     3    1  128 1    
     4    1  129 1    
     5    2    3 2    
     6    2    4 am   BACKBONE|DICT|INTERRES
     7    4    5 1    
     8    4  130 1    
     9    5    6 1    
    10    5   65 1    
    11    5  131 1    
    12    6    7 1    
    13    6  132 1    
    14    6  133 1    
    15    7    8 1    
    16    8    9 1    
    17    8  134 1    
    18    8  135 1    
    19    9   10 ar   
    20    9   14 ar   
    21   10   11 ar   
    22   10  136 1    
    23   11   12 ar   
    24   11  126 1    
    25   12   13 ar   
    26   12  137 1    
    27   13   14 ar   
    28   13   15 1    
    29   14  138 1    
    30   15   16 1    
    31   15  139 1    
    32   15  140 1    
    33   16   17 1    
    34   17   18 1    
    35   17  141 1    
    36   17  142 1    
    37   18   19 1    
    38   18   67 1    
    39   18  143 1    
    40   19   20 am   BACKBONE|DICT|INTERRES
    41   19  144 1    
    42   20   21 2    
    43   20   22 1    
    44   22   23 1    
    45   22   24 1    
    46   22  145 1    
    47   23  146 1    
    48   23  147 1    
    49   23  148 1    
    50   24   25 am   BACKBONE|DICT|INTERRES
    51   24  149 1    
    52   25   26 2    
    53   25   27 1    
    54   27   28 1    
    55   27   29 1    
    56   27  150 1    
    57   28  151 1    
    58   28  152 1    
    59   28  153 1    
    60   29   30 am   BACKBONE|DICT|INTERRES
    61   29  154 1    
    62   30   31 2    
    63   30   32 1    
    64   32   33 1    
    65   32   34 1    
    66   32  155 1    
    67   33  156 1    
    68   33  157 1    
    69   33  158 1    
    70   34   35 am   BACKBONE|DICT|INTERRES
    71   34  159 1    
    72   35   36 2    
    73   35   37 1    
    74   37   38 1    
    75   37   39 1    
    76   37  160 1    
    77   38  161 1    
    78   38  162 1    
    79   38  163 1    
    80   39   40 am   BACKBONE|DICT|INTERRES
    81   39  164 1    
    82   40   41 2    
    83   40   42 1    
    84   42   43 1    
    85   42   44 1    
    86   42  165 1    
    87   43  166 1    
    88   43  167 1    
    89   43  168 1    
    90   44   45 am   BACKBONE|DICT|INTERRES
    91   44  169 1    
    92   45   46 2    
    93   45   47 1    
    94   47   48 1    
    95   47   49 1    
    96   47  170 1    
    97   48  171 1    
    98   48  172 1    
    99   48  173 1    
   100   49   50 am   BACKBONE|DICT|INTERRES
   101   49  174 1    
   102   50   51 2    
   103   50   52 1    
   104   52   53 1    
   105   52   54 1    
   106   52  175 1    
   107   53  176 1    
   108   53  177 1    
   109   53  178 1    
   110   54   55 am   BACKBONE|DICT|INTERRES
   111   54  179 1    
   112   55   56 2    
   113   55   57 1    
   114   57   58 1    
   115   57   59 1    
   116   57  180 1    
   117   58  181 1    
   118   58  182 1    
   119   58  183 1    
   120   59   60 am   BACKBONE|DICT|INTERRES
   121   59  184 1    
   122   60   61 2    
   123   60   62 1    
   124   62   63 1    
   125   62   64 1    
   126   62  185 1    
   127   63  186 1    
   128   63  187 1    
   129   63  188 1    
   130   64   65 am   BACKBONE|DICT|INTERRES
   131   64  189 1    
   132   65   66 2    
   133   67   68 2    
   134   67   69 am   BACKBONE|DICT|INTERRES
   135   69   70 1    
   136   69  190 1    
   137   70   71 1    
   138   70   72 1    
   139   70  191 1    
   140   71  192 1    
   141   71  193 1    
   142   71  194 1    
   143   72   73 2    
   144   72   74 am   BACKBONE|DICT|INTERRES
   145   74   75 1    
   146   74  195 1    
   147   75   76 1    
   148   75   77 1    
   149   75  196 1    
   150   76  197 1    
   151   76  198 1    
   152   76  199 1    
   153   77   78 2    
   154   77   79 am   BACKBONE|DICT|INTERRES
   155   79   80 1    
   156   79  200 1    
   157   80   81 1    
   158   80   82 1    
   159   80  201 1    
   160   81  202 1    
   161   81  203 1    
   162   81  204 1    
   163   82   83 2    
   164   82   84 am   BACKBONE|DICT|INTERRES
   165   84   85 1    
   166   84  205 1    
   167   85   86 1    
   168   85   87 1    
   169   85  206 1    
   170   86  207 1    
   171   86  208 1    
   172   86  209 1    
   173   87   88 2    
   174   87   89 am   BACKBONE|DICT|INTERRES
   175   89   90 1    
   176   89  210 1    
   177   90   91 1    
   178   90   92 1    
   179   90  211 1    
   180   91  212 1    
   181   91  213 1    
   182   91  214 1    
   183   92   93 2    
   184   92   94 am   BACKBONE|DICT|INTERRES
   185   94   95 1    
   186   94  215 1    
   187   95   96 1    
   188   95   97 1    
   189   95  216 1    
   190   96  217 1    
   191   96  218 1    
   192   96  219 1    
   193   97   98 2    
   194   97   99 am   BACKBONE|DICT|INTERRES
   195   99  100 1    
   196   99  220 1    
   197  100  101 1    
   198  100  102 1    
   199  100  221 1    
   200  101  222 1    
   201  101  223 1    
   202  101  224 1    
   203  102  103 2    
   204  102  104 am   BACKBONE|DICT|INTERRES
   205  104  105 1    
   206  104  225 1    
   207  105  106 1    
   208  105  107 1    
   209  105  226 1    
   210  106  227 1    
   211  106  228 1    
   212  106  229 1    
   213  107  108 2    
   214  107  109 am   BACKBONE|DICT|INTERRES
   215  109  110 1    
   216  109  230 1    
   217  110  111 1    
   218  110  112 1    
   219  110  231 1    
   220  111  232 1    
   221  111  233 1    
   222  111  234 1    
   223  112  113 2    
   224  112  114 am   BACKBONE|DICT|INTERRES
   225  114  115 1    
   226  114  235 1    
   227  115  116 1    
   228  115  117 1    
   229  115  236 1    
   230  116  237 1    
   231  116  238 1    
   232  116  239 1    
   233  117  118 2    
   234  117  119 am   BACKBONE|DICT|INTERRES
   235  119  120 1    
   236  119  240 1    
   237  120  121 1    
   238  120  124 1    
   239  120  241 1    
   240  121  122 am   BACKBONE|DICT|INTERRES
   241  121  123 2    
   242  122  242 1    
   243  122  243 1    
   244  124  125 1    
   245  124  244 1    
   246  124  245 1    
   247  125  126 1    
   248  126  246 1    
   249  126  247 1    
@<TRIPOS>SUBSTRUCTURE
     1 UNK         1 GROUP             0       ****    0 ROOT    
