@<TRIPOS>MOLECULE
3R540
247   249    1
SMALL
USER_CHARGES


@<TRIPOS>ATOM
      1 CA          4.3362  -17.3886  -46.7580 C.3       0 UNK        -0.1800 
      2 C           3.4547  -16.1492  -46.7399 C.2       0 UNK         0.5000 
      3 O           3.6039  -15.3014  -45.8598 O.2       0 UNK        -0.5000 
      4 N           2.5362  -16.0324  -47.7080 N.am      1 UNK        -0.5000 
      5 CA          1.5433  -14.9512  -47.8049 C.3       1 UNK         0.1400 
      6 C6          0.4628  -15.2444  -48.8726 C.3       23 UNK        -0.0398 
      7 S7         -0.5104  -16.7273  -48.4509 S.3       23 UNK        -0.2404 
      8 C8         -2.1796  -16.2287  -48.9759 C.3       23 UNK        -0.0205 
      9 C9         -3.1894  -17.3154  -48.6477 C.ar      23 UNK        -0.0193 
     10 C10        -3.5084  -18.2946  -49.5925 C.ar      23 UNK        -0.1150 
     11 C11        -4.3812  -19.3376  -49.2689 C.ar      23 UNK        -0.0193 
     12 C12        -4.9594  -19.3791  -47.9967 C.ar      23 UNK        -0.1150 
     13 C13        -4.6606  -18.3950  -47.0491 C.ar      23 UNK        -0.0193 
     14 C14        -3.7796  -17.3629  -47.3826 C.ar      23 UNK        -0.1150 
     15 C15        -5.2513  -18.4677  -45.6495 C.3       23 UNK        -0.0205 
     16 S16        -4.0063  -18.9617  -44.4139 S.3       23 UNK        -0.2404 
     17 C17        -3.5559  -20.6356  -44.9775 C.3       23 UNK        -0.0398 
     18 CA         -2.2888  -20.6637  -45.8689 C.3       11 UNK         0.1400 
     19 N          -1.0956  -20.1262  -45.2092 N.am      11 UNK        -0.5000 
     20 C           0.0951  -19.9683  -45.8076 C.2       10 UNK         0.5000 
     21 O           0.3185  -20.2319  -46.9883 O.2       10 UNK        -0.5000 
     22 CA          1.2548  -19.5051  -44.9160 C.3       10 UNK         0.1400 
     23 CB          1.1914  -17.9894  -44.6849 C.3       10 UNK        -0.1800 
     24 N           1.2692  -20.2189  -43.6387 N.am      10 UNK        -0.5000 
     25 C           1.5343  -21.5286  -43.5133 C.2       9 UNK         0.5000 
     26 O           1.8517  -22.2558  -44.4539 O.2       9 UNK        -0.5000 
     27 CA          1.3747  -22.1419  -42.1103 C.3       9 UNK         0.1400 
     28 CB          2.6463  -21.9252  -41.2768 C.3       9 UNK        -0.1800 
     29 N           0.2235  -21.6031  -41.3870 N.am      9 UNK        -0.5000 
     30 C          -1.0556  -21.7659  -41.7550 C.2       8 UNK         0.5000 
     31 O          -1.4096  -22.4419  -42.7207 O.2       8 UNK        -0.5000 
     32 CA         -2.1107  -20.9997  -40.9339 C.3       8 UNK         0.1400 
     33 CB         -2.6090  -21.8564  -39.7610 C.3       8 UNK        -0.1800 
     34 N          -1.6216  -19.7134  -40.4254 N.am      8 UNK        -0.5000 
     35 C          -1.2389  -18.6945  -41.2061 C.2       7 UNK         0.5000 
     36 O          -1.2463  -18.7437  -42.4366 O.2       7 UNK        -0.5000 
     37 CA         -0.6848  -17.4485  -40.4968 C.3       7 UNK         0.1400 
     38 CB          0.8505  -17.4342  -40.5668 C.3       7 UNK        -0.1800 
     39 N          -1.2071  -16.2227  -41.0969 N.am      7 UNK        -0.5000 
     40 C          -2.4472  -15.7560  -40.8856 C.2       6 UNK         0.5000 
     41 O          -3.2574  -16.3061  -40.1377 O.2       6 UNK        -0.5000 
     42 CA         -2.8572  -14.4442  -41.5876 C.3       6 UNK         0.1400 
     43 CB         -2.8207  -13.2720  -40.5943 C.3       6 UNK        -0.1800 
     44 N          -2.0150  -14.1086  -42.7340 N.am      6 UNK        -0.5000 
     45 C          -2.0746  -14.7127  -43.9276 C.2       5 UNK         0.5000 
     46 O          -2.9219  -15.5551  -44.2177 O.2       5 UNK        -0.5000 
     47 CA         -1.0212  -14.3075  -44.9810 C.3       5 UNK         0.1400 
     48 CB         -1.6750  -13.4482  -46.0745 C.3       5 UNK        -0.1800 
     49 N           0.1479  -13.5882  -44.4502 N.am      5 UNK        -0.5000 
     50 C           1.0168  -14.0804  -43.5571 C.2       4 UNK         0.5000 
     51 O           0.9420  -15.2200  -43.0998 O.2       4 UNK        -0.5000 
     52 CA          2.1159  -13.1285  -43.0656 C.3       4 UNK         0.1400 
     53 CB          2.6137  -13.5084  -41.6543 C.3       4 UNK        -0.1800 
     54 N           3.2313  -13.1144  -44.0086 N.am      4 UNK        -0.5000 
     55 C           4.1645  -12.1534  -44.0546 C.2       3 UNK         0.5000 
     56 O           4.1276  -11.1321  -43.3666 O.2       3 UNK        -0.5000 
     57 CA          5.3383  -12.3586  -45.0242 C.3       3 UNK         0.1400 
     58 CB          6.2693  -13.4797  -44.5326 C.3       3 UNK        -0.1800 
     59 N           4.8612  -12.6742  -46.3672 N.am      3 UNK        -0.5000 
     60 C           4.7348  -11.7832  -47.3610 C.2       2 UNK         0.5000 
     61 O           5.0335  -10.5930  -47.2545 O.2       2 UNK        -0.5000 
     62 CA          4.1922  -12.3000  -48.7101 C.3       2 UNK         0.1400 
     63 CB          5.3490  -12.5773  -49.6826 C.3       2 UNK        -0.1800 
     64 N           3.3848  -13.5127  -48.5786 N.am      2 UNK        -0.5000 
     65 C           2.1676  -13.5567  -48.0204 C.2       1 UNK         0.5000 
     66 O           1.5552  -12.5568  -47.6452 O.2       1 UNK        -0.5000 
     67 C          -2.0516  -22.0871  -46.4065 C.2       11 UNK         0.5000 
     68 O          -2.3668  -22.3515  -47.5651 O.2       11 UNK        -0.5000 
     69 N          -1.4688  -22.9612  -45.5729 N.am      12 UNK        -0.5000 
     70 CA         -1.1121  -24.3353  -45.9246 C.3       12 UNK         0.1400 
     71 CB         -0.6262  -25.0775  -44.6707 C.3       12 UNK        -0.1800 
     72 C          -0.0646  -24.4138  -47.0491 C.2       12 UNK         0.5000 
     73 O          -0.2537  -25.1769  -47.9970 O.2       12 UNK        -0.5000 
     74 N           1.0005  -23.6055  -46.9421 N.am      13 UNK        -0.5000 
     75 CA          2.0662  -23.5039  -47.9413 C.3       13 UNK         0.1400 
     76 CB          3.1936  -22.6076  -47.4071 C.3       13 UNK        -0.1800 
     77 C           1.5640  -22.9906  -49.3020 C.2       13 UNK         0.5000 
     78 O           1.9800  -23.5111  -50.3375 O.2       13 UNK        -0.5000 
     79 N           0.6621  -22.0011  -49.2742 N.am      14 UNK        -0.5000 
     80 CA         -0.0049  -21.4645  -50.4550 C.3       14 UNK         0.1400 
     81 CB         -0.7165  -20.1577  -50.0909 C.3       14 UNK        -0.1800 
     82 C          -0.9766  -22.4779  -51.0809 C.2       14 UNK         0.5000 
     83 O          -0.8896  -22.7231  -52.2822 O.2       14 UNK        -0.5000 
     84 N          -1.8467  -23.0856  -50.2596 N.am      15 UNK        -0.5000 
     85 CA         -2.8373  -24.0830  -50.6769 C.3       15 UNK         0.1400 
     86 CB         -3.7232  -24.4700  -49.4840 C.3       15 UNK        -0.1800 
     87 C          -2.2195  -25.3411  -51.3137 C.2       15 UNK         0.5000 
     88 O          -2.8029  -25.8915  -52.2477 O.2       15 UNK        -0.5000 
     89 N          -1.0260  -25.7396  -50.8505 N.am      16 UNK        -0.5000 
     90 CA         -0.2224  -26.8240  -51.4235 C.3       16 UNK         0.1400 
     91 CB          0.9849  -27.0907  -50.5120 C.3       16 UNK        -0.1800 
     92 C           0.2405  -26.5657  -52.8748 C.2       16 UNK         0.5000 
     93 O           0.5283  -27.5243  -53.5923 O.2       16 UNK        -0.5000 
     94 N           0.2809  -25.2921  -53.2869 N.am      17 UNK        -0.5000 
     95 CA          0.5808  -24.8370  -54.6448 C.3       17 UNK         0.1400 
     96 CB          1.7273  -23.8137  -54.5645 C.3       17 UNK        -0.1800 
     97 C          -0.6660  -24.2284  -55.3228 C.2       17 UNK         0.5000 
     98 O          -0.5274  -23.5399  -56.3359 O.2       17 UNK        -0.5000 
     99 N          -1.8547  -24.4599  -54.7431 N.am      18 UNK        -0.5000 
    100 CA        -3.1646  -23.8697  -55.0414 C.3       18 UNK         0.1400 
    101 CB        -3.6259  -24.1702  -56.4811 C.3       18 UNK        -0.1800 
    102 C         -3.2372  -22.3662  -54.7127 C.2       18 UNK         0.5000 
    103 O         -4.0568  -21.9718  -53.8850 O.2       18 UNK        -0.5000 
    104 N         -2.3705  -21.5705  -55.3530 N.am      19 UNK        -0.5000 
    105 CA        -2.1616  -20.1229  -55.2352 C.3       19 UNK         0.1400 
    106 CB        -1.7468  -19.7250  -53.8059 C.3       19 UNK        -0.1800 
    107 C         -3.3284  -19.2507  -55.7371 C.2       19 UNK         0.5000 
    108 O         -3.0965  -18.3474  -56.5422 O.2       19 UNK        -0.5000 
    109 N         -4.5475  -19.5160  -55.2617 N.am      20 UNK        -0.5000 
    110 CA        -5.7639  -18.7602  -55.5477 C.3       20 UNK         0.1400 
    111 CB        -5.7502  -17.4341  -54.7545 C.3       20 UNK        -0.1800 
    112 C         -6.9933  -19.6246  -55.2158 C.2       20 UNK         0.5000 
    113 O         -6.8604  -20.8312  -54.9983 O.2       20 UNK        -0.5000 
    114 N         -8.1762  -18.9955  -55.1739 N.am      21 UNK        -0.5000 
    115 CA        -9.4127  -19.6082  -54.6795 C.3       21 UNK         0.1400 
    116 CB       -10.6105  -18.7331  -55.0799 C.3       21 UNK        -0.1800 
    117 C         -9.3818  -19.8251  -53.1526 C.2       21 UNK         0.5000 
    118 O         -9.9184  -20.8236  -52.6715 O.2       21 UNK        -0.5000 
    119 N         -8.7331  -18.8948  -52.4347 N.am      22 UNK        -0.5000 
    120 CA        -8.4368  -18.9442  -50.9892 C.3       22 UNK         0.1400 
    121 C         -9.6858  -18.9005  -50.0539 C.2       22 UNK         0.5000 
    122 N        -10.8469  -18.4618  -50.5247 N.am      22 UNK        -0.7600 
    123 O         -9.6013  -19.2354  -48.8753 O.2       22 UNK        -0.5000 
    124 C124       -7.4479  -20.0878  -50.6239 C.3       23 UNK        -0.0398 
    125 S125       -5.8690  -19.9545  -51.5351 S.3       23 UNK        -0.2404 
    126 C126       -4.6523  -20.4452  -50.2767 C.3       23 UNK        -0.0205 
    127 H127        5.3780  -17.1052  -46.9067 H         1 UNK         0.0600 
    128 H128        4.0505  -18.0776  -47.5533 H         1 UNK         0.0600 
    129 H129        4.2575  -17.9162  -45.8075 H         1 UNK         0.0600 
    130 H130        2.4479  -16.7644  -48.3987 H         1 UNK         0.3000 
    131 H131        1.0511  -14.9028  -46.8351 H         1 UNK         0.0600 
    132 H132       -0.2179  -14.3969  -48.9712 H         1 UNK         0.0800 
    133 H133        0.9160  -15.3887  -49.8547 H         1 UNK         0.0800 
    134 H134       -2.1778  -16.0246  -50.0477 H         1 UNK         0.0800 
    135 H135       -2.4623  -15.2990  -48.4816 H         1 UNK         0.0800 
    136 H136       -3.0528  -18.2635  -50.5719 H         1 UNK         0.1150 
    137 H137       -5.6221  -20.1917  -47.7350 H         1 UNK         0.1150 
    138 H138       -3.5258  -16.6173  -46.6418 H         1 UNK         0.1150 
    139 H139       -5.6469  -17.4884  -45.3763 H         1 UNK         0.0800 
    140 H140       -6.0939  -19.1599  -45.6158 H         1 UNK         0.0800 
    141 H141       -4.4081  -21.0653  -45.5070 H         1 UNK         0.0800 
    142 H142       -3.4126  -21.2555  -44.0919 H         1 UNK         0.0800 
    143 H143       -2.4665  -20.0299  -46.7387 H         1 UNK         0.0600 
    144 H144       -1.2011  -19.8336  -44.2436 H         1 UNK         0.3000 
    145 H145        2.1870  -19.7261  -45.4402 H         1 UNK         0.0600 
    146 H146        2.0733  -17.6288  -44.1555 H         1 UNK         0.0600 
    147 H147        1.1349  -17.4560  -45.6332 H         1 UNK         0.0600 
    148 H148        0.3133  -17.6952  -44.1129 H         1 UNK         0.0600 
    149 H149        0.9435  -19.7063  -42.8326 H         1 UNK         0.3000 
    150 H150        1.2237  -23.2166  -42.2319 H         1 UNK         0.0600 
    151 H151        3.5203  -22.3334  -41.7862 H         1 UNK         0.0600 
    152 H152        2.5735  -22.4231  -40.3097 H         1 UNK         0.0600 
    153 H153        2.8359  -20.8662  -41.0966 H         1 UNK         0.0600 
    154 H154        0.4192  -21.0350  -40.5764 H         1 UNK         0.3000 
    155 H155       -2.9570  -20.7972  -41.5938 H         1 UNK         0.0600 
    156 H156       -1.8107  -22.0698  -39.0491 H         1 UNK         0.0600 
    157 H157       -2.9983  -22.8123  -40.1143 H         1 UNK         0.0600 
    158 H158       -3.4156  -21.3579  -39.2230 H         1 UNK         0.0600 
    159 H159       -1.5835  -19.6088  -39.4216 H         1 UNK         0.3000 
    160 H160       -0.9771  -17.4739  -39.4448 H         1 UNK         0.0600 
    161 H161        1.2601  -16.5494  -40.0791 H         1 UNK         0.0600 
    162 H162        1.2082  -17.4410  -41.5970 H         1 UNK         0.0600 
    163 H163        1.2735  -18.3068  -40.0678 H         1 UNK         0.0600 
    164 H164       -0.6093  -15.7659  -41.7764 H         1 UNK         0.3000 
    165 H165       -3.8857  -14.5654  -41.9344 H         1 UNK         0.0600 
    166 H166       -3.1710  -12.3498  -41.0583 H         1 UNK         0.0600 
    167 H167       -3.4649  -13.4665  -39.7357 H         1 UNK         0.0600 
    168 H168       -1.8130  -13.0970  -40.2152 H         1 UNK         0.0600 
    169 H169       -1.2996  -13.4136  -42.5847 H         1 UNK         0.3000 
    170 H170       -0.6718  -15.2383  -45.4313 H         1 UNK         0.0600 
    171 H171       -2.5462  -13.9485  -46.4987 H         1 UNK         0.0600 
    172 H172       -2.0108  -12.4882  -45.6811 H         1 UNK         0.0600 
    173 H173       -0.9851  -13.2507  -46.8934 H         1 UNK         0.0600 
    174 H174        0.2835  -12.6465  -44.7904 H         1 UNK         0.3000 
    175 H175        1.6798  -12.1285  -43.0141 H         1 UNK         0.0600 
    176 H176        1.7815  -13.5887  -40.9538 H         1 UNK         0.0600 
    177 H177        3.2976  -12.7595  -41.2552 H         1 UNK         0.0600 
    178 H178        3.1338  -14.4672  -41.6575 H         1 UNK         0.0600 
    179 H179        3.3168  -13.9276  -44.6162 H         1 UNK         0.3000 
    180 H180        5.9219  -11.4356  -45.0418 H         1 UNK         0.0600 
    181 H181        5.7625  -14.4440  -44.4871 H         1 UNK         0.0600 
    182 H182        6.6466  -13.2611  -43.5329 H         1 UNK         0.0600 
    183 H183        7.1327  -13.5880  -45.1892 H         1 UNK         0.0600 
    184 H184        4.5333  -13.6223  -46.5097 H         1 UNK         0.3000 
    185 H185        3.5663  -11.5138  -49.1377 H         1 UNK         0.0600 
    186 H186        5.9585  -11.6846  -49.8293 H         1 UNK         0.0600 
    187 H187        6.0056  -13.3659  -49.3129 H         1 UNK         0.0600 
    188 H188        4.9777  -12.8797  -50.6620 H         1 UNK         0.0600 
    189 H189        3.8171  -14.3815  -48.8576 H         1 UNK         0.3000 
    190 H190       -1.2751  -22.6741  -44.6171 H         1 UNK         0.3000 
    191 H191       -2.0175  -24.8304  -46.2814 H         1 UNK         0.0600 
    192 H192        0.2570  -24.6053  -44.2395 H         1 UNK         0.0600 
    193 H193       -0.3670  -26.1110  -44.9038 H         1 UNK         0.0600 
    194 H194       -1.3998  -25.1010  -43.9029 H         1 UNK         0.0600 
    195 H195        1.1001  -23.0245  -46.1149 H         1 UNK         0.3000 
    196 H196        2.4721  -24.5057  -48.0960 H         1 UNK         0.0600 
    197 H197        4.0013  -22.5185  -48.1345 H         1 UNK         0.0600 
    198 H198        3.6232  -23.0180  -46.4932 H         1 UNK         0.0600 
    199 H199        2.8363  -21.6011  -47.1862 H         1 UNK         0.0600 
    200 H200        0.4102  -21.5849  -48.3814 H         1 UNK         0.3000 
    201 H201        0.7586  -21.2322  -51.2004 H         1 UNK         0.0600 
    202 H202       -0.0047  -19.4122  -49.7379 H         1 UNK         0.0600 
    203 H203       -1.4566  -20.3075  -49.3042 H         1 UNK         0.0600 
    204 H204       -1.2266  -19.7354  -50.9553 H         1 UNK         0.0600 
    205 H205       -1.8651  -22.8228  -49.2759 H         1 UNK         0.3000 
    206 H206       -3.4707  -23.6128  -51.4322 H         1 UNK         0.0600 
    207 H207       -4.2575  -23.6056  -49.0909 H         1 UNK         0.0600 
    208 H208       -4.4719  -25.2081  -49.7744 H         1 UNK         0.0600 
    209 H209       -3.1350  -24.8985  -48.6717 H         1 UNK         0.0600 
    210 H210       -0.6394  -25.2683  -50.0390 H         1 UNK         0.3000 
    211 H211       -0.8427  -27.7224  -51.4374 H         1 UNK         0.0600 
    212 H212        1.6277  -26.2140  -50.4306 H         1 UNK         0.0600 
    213 H213        1.5934  -27.9103  -50.8962 H         1 UNK         0.0600 
    214 H214        0.6667  -27.3672  -49.5067 H         1 UNK         0.0600 
    215 H215        0.0035  -24.5592  -52.6415 H         1 UNK         0.3000 
    216 H216        0.9082  -25.6710  -55.2682 H         1 UNK         0.0600 
    217 H217        2.0343  -23.4840  -55.5577 H         1 UNK         0.0600 
    218 H218        2.6048  -24.2433  -54.0811 H         1 UNK         0.0600 
    219 H219        1.4338  -22.9286  -53.9982 H         1 UNK         0.0600 
    220 H220       -1.8494  -25.0314  -53.9064 H         1 UNK         0.3000 
    221 H221       -3.8663  -24.3683  -54.3709 H         1 UNK         0.0600 
    222 H222       -4.6418  -23.8077  -56.6425 H         1 UNK         0.0600 
    223 H223       -3.6284  -25.2424  -56.6766 H         1 UNK         0.0600 
    224 H224       -2.9917  -23.6950  -57.2293 H         1 UNK         0.0600 
    225 H225       -1.7267  -22.0448  -55.9799 H         1 UNK         0.3000 
    226 H226       -1.3129  -19.9043  -55.8851 H         1 UNK         0.0600 
    227 H227       -1.5337  -18.6573  -53.7436 H         1 UNK         0.0600 
    228 H228       -2.5285  -19.9428  -53.0776 H         1 UNK         0.0600 
    229 H229       -0.8445  -20.2538  -53.4997 H         1 UNK         0.0600 
    230 H230       -4.6696  -20.3233  -54.6512 H         1 UNK         0.3000 
    231 H231       -5.8003  -18.5422  -56.6168 H         1 UNK         0.0600 
    232 H232       -4.8586  -16.8466  -54.9731 H         1 UNK         0.0600 
    233 H233       -5.7710  -17.6133  -53.6788 H         1 UNK         0.0600 
    234 H234       -6.6048  -16.8052  -55.0039 H         1 UNK         0.0600 
    235 H235       -8.2169  -18.0124  -55.3998 H         1 UNK         0.3000 
    236 H236       -9.5303  -20.5848  -55.1544 H         1 UNK         0.0600 
    237 H237      -10.6776  -18.6292  -56.1631 H         1 UNK         0.0600 
    238 H238      -11.5473  -19.1755  -54.7385 H         1 UNK         0.0600 
    239 H239      -10.5433  -17.7331  -54.6499 H         1 UNK         0.0600 
    240 H240       -8.3361  -18.1104  -52.9288 H         1 UNK         0.3000 
    241 H241       -7.9210  -18.0077  -50.7741 H         1 UNK         0.0600 
    242 H242      -11.6486  -18.4255  -49.9147 H         1 UNK         0.3800 
    243 H243      -10.9346  -18.1769  -51.4870 H         1 UNK         0.3800 
    244 H244       -7.8901  -21.0628  -50.8315 H         1 UNK         0.0800 
    245 H245       -7.2349  -20.0749  -49.5552 H         1 UNK         0.0800 
    246 H246       -3.7219  -20.7098  -50.7812 H         1 UNK         0.0800 
    247 H247       -4.9892  -21.3531  -49.7750 H         1 UNK         0.0800 
@<TRIPOS>BOND
     1    1    2 1    
     2    1  127 1    
     3    1  128 1    
     4    1  129 1    
     5    2    3 2    
     6    2    4 am   BACKBONE|DICT|INTERRES
     7    4    5 1    
     8    4  130 1    
     9    5    6 1    
    10    5   65 1    
    11    5  131 1    
    12    6    7 1    
    13    6  132 1    
    14    6  133 1    
    15    7    8 1    
    16    8    9 1    
    17    8  134 1    
    18    8  135 1    
    19    9   10 ar   
    20    9   14 ar   
    21   10   11 ar   
    22   10  136 1    
    23   11   12 ar   
    24   11  126 1    
    25   12   13 ar   
    26   12  137 1    
    27   13   14 ar   
    28   13   15 1    
    29   14  138 1    
    30   15   16 1    
    31   15  139 1    
    32   15  140 1    
    33   16   17 1    
    34   17   18 1    
    35   17  141 1    
    36   17  142 1    
    37   18   19 1    
    38   18   67 1    
    39   18  143 1    
    40   19   20 am   BACKBONE|DICT|INTERRES
    41   19  144 1    
    42   20   21 2    
    43   20   22 1    
    44   22   23 1    
    45   22   24 1    
    46   22  145 1    
    47   23  146 1    
    48   23  147 1    
    49   23  148 1    
    50   24   25 am   BACKBONE|DICT|INTERRES
    51   24  149 1    
    52   25   26 2    
    53   25   27 1    
    54   27   28 1    
    55   27   29 1    
    56   27  150 1    
    57   28  151 1    
    58   28  152 1    
    59   28  153 1    
    60   29   30 am   BACKBONE|DICT|INTERRES
    61   29  154 1    
    62   30   31 2    
    63   30   32 1    
    64   32   33 1    
    65   32   34 1    
    66   32  155 1    
    67   33  156 1    
    68   33  157 1    
    69   33  158 1    
    70   34   35 am   BACKBONE|DICT|INTERRES
    71   34  159 1    
    72   35   36 2    
    73   35   37 1    
    74   37   38 1    
    75   37   39 1    
    76   37  160 1    
    77   38  161 1    
    78   38  162 1    
    79   38  163 1    
    80   39   40 am   BACKBONE|DICT|INTERRES
    81   39  164 1    
    82   40   41 2    
    83   40   42 1    
    84   42   43 1    
    85   42   44 1    
    86   42  165 1    
    87   43  166 1    
    88   43  167 1    
    89   43  168 1    
    90   44   45 am   BACKBONE|DICT|INTERRES
    91   44  169 1    
    92   45   46 2    
    93   45   47 1    
    94   47   48 1    
    95   47   49 1    
    96   47  170 1    
    97   48  171 1    
    98   48  172 1    
    99   48  173 1    
   100   49   50 am   BACKBONE|DICT|INTERRES
   101   49  174 1    
   102   50   51 2    
   103   50   52 1    
   104   52   53 1    
   105   52   54 1    
   106   52  175 1    
   107   53  176 1    
   108   53  177 1    
   109   53  178 1    
   110   54   55 am   BACKBONE|DICT|INTERRES
   111   54  179 1    
   112   55   56 2    
   113   55   57 1    
   114   57   58 1    
   115   57   59 1    
   116   57  180 1    
   117   58  181 1    
   118   58  182 1    
   119   58  183 1    
   120   59   60 am   BACKBONE|DICT|INTERRES
   121   59  184 1    
   122   60   61 2    
   123   60   62 1    
   124   62   63 1    
   125   62   64 1    
   126   62  185 1    
   127   63  186 1    
   128   63  187 1    
   129   63  188 1    
   130   64   65 am   BACKBONE|DICT|INTERRES
   131   64  189 1    
   132   65   66 2    
   133   67   68 2    
   134   67   69 am   BACKBONE|DICT|INTERRES
   135   69   70 1    
   136   69  190 1    
   137   70   71 1    
   138   70   72 1    
   139   70  191 1    
   140   71  192 1    
   141   71  193 1    
   142   71  194 1    
   143   72   73 2    
   144   72   74 am   BACKBONE|DICT|INTERRES
   145   74   75 1    
   146   74  195 1    
   147   75   76 1    
   148   75   77 1    
   149   75  196 1    
   150   76  197 1    
   151   76  198 1    
   152   76  199 1    
   153   77   78 2    
   154   77   79 am   BACKBONE|DICT|INTERRES
   155   79   80 1    
   156   79  200 1    
   157   80   81 1    
   158   80   82 1    
   159   80  201 1    
   160   81  202 1    
   161   81  203 1    
   162   81  204 1    
   163   82   83 2    
   164   82   84 am   BACKBONE|DICT|INTERRES
   165   84   85 1    
   166   84  205 1    
   167   85   86 1    
   168   85   87 1    
   169   85  206 1    
   170   86  207 1    
   171   86  208 1    
   172   86  209 1    
   173   87   88 2    
   174   87   89 am   BACKBONE|DICT|INTERRES
   175   89   90 1    
   176   89  210 1    
   177   90   91 1    
   178   90   92 1    
   179   90  211 1    
   180   91  212 1    
   181   91  213 1    
   182   91  214 1    
   183   92   93 2    
   184   92   94 am   BACKBONE|DICT|INTERRES
   185   94   95 1    
   186   94  215 1    
   187   95   96 1    
   188   95   97 1    
   189   95  216 1    
   190   96  217 1    
   191   96  218 1    
   192   96  219 1    
   193   97   98 2    
   194   97   99 am   BACKBONE|DICT|INTERRES
   195   99  100 1    
   196   99  220 1    
   197  100  101 1    
   198  100  102 1    
   199  100  221 1    
   200  101  222 1    
   201  101  223 1    
   202  101  224 1    
   203  102  103 2    
   204  102  104 am   BACKBONE|DICT|INTERRES
   205  104  105 1    
   206  104  225 1    
   207  105  106 1    
   208  105  107 1    
   209  105  226 1    
   210  106  227 1    
   211  106  228 1    
   212  106  229 1    
   213  107  108 2    
   214  107  109 am   BACKBONE|DICT|INTERRES
   215  109  110 1    
   216  109  230 1    
   217  110  111 1    
   218  110  112 1    
   219  110  231 1    
   220  111  232 1    
   221  111  233 1    
   222  111  234 1    
   223  112  113 2    
   224  112  114 am   BACKBONE|DICT|INTERRES
   225  114  115 1    
   226  114  235 1    
   227  115  116 1    
   228  115  117 1    
   229  115  236 1    
   230  116  237 1    
   231  116  238 1    
   232  116  239 1    
   233  117  118 2    
   234  117  119 am   BACKBONE|DICT|INTERRES
   235  119  120 1    
   236  119  240 1    
   237  120  121 1    
   238  120  124 1    
   239  120  241 1    
   240  121  122 am   BACKBONE|DICT|INTERRES
   241  121  123 2    
   242  122  242 1    
   243  122  243 1    
   244  124  125 1    
   245  124  244 1    
   246  124  245 1    
   247  125  126 1    
   248  126  246 1    
   249  126  247 1    
@<TRIPOS>SUBSTRUCTURE
     1 UNK         1 GROUP             0       ****    0 ROOT    
