@<TRIPOS>MOLECULE
3R540
247   249    1
SMALL
USER_CHARGES


@<TRIPOS>ATOM
      1 CA          4.9941  -11.2716  -52.0534 C.3       0 UNK        -0.1800 
      2 C           4.5877  -11.8225  -50.6936 C.2       0 UNK         0.5000 
      3 O           5.3512  -11.7099  -49.7338 O.2       0 UNK        -0.5000 
      4 N           3.3954  -12.4245  -50.6111 N.am      1 UNK        -0.5000 
      5 CA          2.8122  -12.9744  -49.3827 C.3       1 UNK         0.1400 
      6 C6          1.5818  -13.8662  -49.6763 C.3       23 UNK        -0.0398 
      7 S7          2.0090  -15.3239  -50.6804 S.3       23 UNK        -0.2404 
      8 C8          0.3489  -15.9821  -51.0146 C.3       23 UNK        -0.0205 
      9 C9          0.4347  -17.2849  -51.7908 C.ar      23 UNK        -0.0193 
     10 C10         0.5264  -17.2688  -53.1858 C.ar      23 UNK        -0.1150 
     11 C11         0.6542  -18.4625  -53.9016 C.ar      23 UNK        -0.0193 
     12 C12         0.7106  -19.6746  -53.2074 C.ar      23 UNK        -0.1150 
     13 C13         0.5714  -19.7068  -51.8177 C.ar      23 UNK        -0.0193 
     14 C14         0.4334  -18.5074  -51.1136 C.ar      23 UNK        -0.1150 
     15 C15         0.5524  -21.0414  -51.0905 C.3       23 UNK        -0.0205 
     16 S16         2.1452  -21.3846  -50.2806 S.3       23 UNK        -0.2404 
     17 C17         1.8135  -20.8331  -48.5711 C.3       23 UNK        -0.0398 
     18 CA          1.5641  -22.0238  -47.6135 C.3       11 UNK         0.1400 
     19 N           1.7357  -21.6384  -46.2133 N.am      11 UNK        -0.5000 
     20 C           2.3208  -22.4199  -45.2951 C.2       10 UNK         0.5000 
     21 O           2.6065  -23.6025  -45.4835 O.2       10 UNK        -0.5000 
     22 CA          2.6958  -21.7588  -43.9576 C.3       10 UNK         0.1400 
     23 CB          3.7145  -20.6256  -44.1654 C.3       10 UNK        -0.1800 
     24 N           1.5268  -21.2437  -43.2557 N.am      10 UNK        -0.5000 
     25 C           0.6574  -22.0022  -42.5758 C.2       9 UNK         0.5000 
     26 O           0.7962  -23.2124  -42.3987 O.2       9 UNK        -0.5000 
     27 CA         -0.5860  -21.2917  -42.0067 C.3       9 UNK         0.1400 
     28 CB         -0.3000  -20.7399  -40.6024 C.3       9 UNK        -0.1800 
     29 N          -1.0690  -20.2075  -42.8636 N.am      9 UNK        -0.5000 
     30 C          -1.5271  -20.3743  -44.1110 C.2       8 UNK         0.5000 
     31 O          -1.6213  -21.4701  -44.6616 O.2       8 UNK        -0.5000 
     32 CA         -1.8923  -19.1009  -44.8923 C.3       8 UNK         0.1400 
     33 CB         -3.2939  -18.5984  -44.5163 C.3       8 UNK        -0.1800 
     34 N          -0.9103  -18.0382  -44.6916 N.am      8 UNK        -0.5000 
     35 C           0.3270  -18.0502  -45.2056 C.2       7 UNK         0.5000 
     36 O           0.7566  -18.9462  -45.9346 O.2       7 UNK        -0.5000 
     37 CA          1.2486  -16.8859  -44.7997 C.3       7 UNK         0.1400 
     38 CB          1.0007  -15.6600  -45.6916 C.3       7 UNK        -0.1800 
     39 N           1.0872  -16.5139  -43.3916 N.am      7 UNK        -0.5000 
     40 C           1.4554  -17.2984  -42.3661 C.2       6 UNK         0.5000 
     41 O           1.9959  -18.3939  -42.5096 O.2       6 UNK        -0.5000 
     42 CA          1.1275  -16.8063  -40.9427 C.3       6 UNK         0.1400 
     43 CB          2.2648  -15.9249  -40.4054 C.3       6 UNK        -0.1800 
     44 N          -0.1316  -16.0672  -40.8537 N.am      6 UNK        -0.5000 
     45 C          -1.3370  -16.5280  -41.2167 C.2       5 UNK         0.5000 
     46 O          -1.5334  -17.6771  -41.6102 O.2       5 UNK        -0.5000 
     47 CA         -2.5160  -15.5347  -41.1756 C.3       5 UNK         0.1400 
     48 CB         -3.4324  -15.8432  -39.9822 C.3       5 UNK        -0.1800 
     49 N          -2.1203  -14.1222  -41.1216 N.am      5 UNK        -0.5000 
     50 C          -1.4262  -13.4710  -42.0649 C.2       4 UNK         0.5000 
     51 O          -0.9916  -14.0050  -43.0891 O.2       4 UNK        -0.5000 
     52 CA         -1.0986  -11.9987  -41.7575 C.3       4 UNK         0.1400 
     53 CB          0.1884  -11.9090  -40.9214 C.3       4 UNK        -0.1800 
     54 N          -0.9192  -11.2062  -42.9706 N.am      4 UNK        -0.5000 
     55 C          -1.8884  -10.8733  -43.8339 C.2       3 UNK         0.5000 
     56 O          -3.0780  -11.1447  -43.6643 O.2       3 UNK        -0.5000 
     57 CA         -1.4597  -10.0871  -45.0907 C.3       3 UNK         0.1400 
     58 CB         -1.8124   -8.5988  -44.9402 C.3       3 UNK        -0.1800 
     59 N          -0.0268  -10.2072  -45.3783 N.am      3 UNK        -0.5000 
     60 C           0.5427  -11.2909  -45.9194 C.2       2 UNK         0.5000 
     61 O          -0.0871  -12.2845  -46.2896 O.2       2 UNK        -0.5000 
     62 CA          2.0798  -11.2707  -46.0182 C.3       2 UNK         0.1400 
     63 CB          2.7040  -11.7425  -44.6942 C.3       2 UNK        -0.1800 
     64 N           2.5571  -12.1312  -47.0995 N.am      2 UNK        -0.5000 
     65 C           2.4196  -11.8518  -48.4012 C.2       1 UNK         0.5000 
     66 O           1.9716  -10.7847  -48.8310 O.2       1 UNK        -0.5000 
     67 C           0.2031  -22.6958  -47.8656 C.2       11 UNK         0.5000 
     68 O           0.1757  -23.8375  -48.3227 O.2       11 UNK        -0.5000 
     69 N          -0.9017  -21.9852  -47.5950 N.am      12 UNK        -0.5000 
     70 CA         -2.2622  -22.4118  -47.9542 C.3       12 UNK         0.1400 
     71 CB         -3.2639  -21.2864  -47.6530 C.3       12 UNK        -0.1800 
     72 C          -2.6939  -23.7277  -47.2805 C.2       12 UNK         0.5000 
     73 O          -3.3156  -24.5742  -47.9235 O.2       12 UNK        -0.5000 
     74 N          -2.3047  -23.8996  -46.0117 N.am      13 UNK        -0.5000 
     75 CA         -2.5225  -25.1164  -45.2306 C.3       13 UNK         0.1400 
     76 CB         -2.1390  -24.8467  -43.7691 C.3       13 UNK        -0.1800 
     77 C          -1.7562  -26.3391  -45.7752 C.2       13 UNK         0.5000 
     78 O          -2.2535  -27.4595  -45.6592 O.2       13 UNK        -0.5000 
     79 N          -0.5763  -26.1081  -46.3685 N.am      14 UNK        -0.5000 
     80 CA          0.2390  -27.1391  -47.0120 C.3       14 UNK         0.1400 
     81 CB          1.7105  -26.6971  -47.0267 C.3       14 UNK        -0.1800 
     82 C          -0.2574  -27.4499  -48.4352 C.2       14 UNK         0.5000 
     83 O          -0.2756  -28.6158  -48.8314 O.2       14 UNK        -0.5000 
     84 N          -0.6680  -26.4058  -49.1691 N.am      15 UNK        -0.5000 
     85 CA         -1.2415  -26.4887  -50.5141 C.3       15 UNK         0.1400 
     86 CB         -1.3170  -25.0741  -51.1124 C.3       15 UNK        -0.1800 
     87 C          -2.6322  -27.1527  -50.5452 C.2       15 UNK         0.5000 
     88 O          -3.0051  -27.7187  -51.5733 O.2       15 UNK        -0.5000 
     89 N          -3.3649  -27.0585  -49.4253 N.am      16 UNK        -0.5000 
     90 CA         -4.7415  -27.5148  -49.2104 C.3       16 UNK         0.1400 
     91 CB         -4.8549  -29.0475  -49.3482 C.3       16 UNK        -0.1800 
     92 C          -5.7578  -26.7413  -50.0771 C.2       16 UNK         0.5000 
     93 O          -6.7578  -27.3066  -50.5238 O.2       16 UNK        -0.5000 
     94 N          -5.4807  -25.4511  -50.2872 N.am      17 UNK        -0.5000 
     95 CA         -6.2872  -24.4988  -51.0384 C.3       17 UNK         0.1400 
     96 CB         -6.0525  -24.6756  -52.5491 C.3       17 UNK        -0.1800 
     97 C          -5.8843  -23.0942  -50.5780 C.2       17 UNK         0.5000 
     98 O          -4.7301  -22.8984  -50.1922 O.2       17 UNK        -0.5000 
     99 N          -6.8318  -22.1495  -50.6268 N.am      18 UNK        -0.5000 
    100 CA        -6.6614  -20.7597  -50.1950 C.3       18 UNK         0.1400 
    101 CB        -7.9912  -20.0149  -50.3878 C.3       18 UNK        -0.1800 
    102 C         -5.5379  -20.0262  -50.9485 C.2       18 UNK         0.5000 
    103 O         -5.3396  -20.2738  -52.1400 O.2       18 UNK        -0.5000 
    104 N         -4.8559  -19.1037  -50.2566 N.am      19 UNK        -0.5000 
    105 CA        -3.7291  -18.3191  -50.7755 C.3       19 UNK         0.1400 
    106 CB        -3.1756  -17.4319  -49.6507 C.3       19 UNK        -0.1800 
    107 C         -4.0719  -17.4689  -52.0150 C.2       19 UNK         0.5000 
    108 O         -3.2177  -17.2883  -52.8808 O.2       19 UNK        -0.5000 
    109 N         -5.3309  -17.0181  -52.1107 N.am      20 UNK        -0.5000 
    110 CA        -5.8841  -16.3035  -53.2650 C.3       20 UNK         0.1400 
    111 CB        -7.2729  -15.7623  -52.8925 C.3       20 UNK        -0.1800 
    112 C         -5.9675  -17.1618  -54.5458 C.2       20 UNK         0.5000 
    113 O         -5.9605  -16.6071  -55.6450 O.2       20 UNK        -0.5000 
    114 N         -6.0313  -18.4894  -54.3819 N.am      21 UNK        -0.5000 
    115 CA        -6.0090  -19.4865  -55.4526 C.3       21 UNK         0.1400 
    116 CB        -7.1365  -20.4997  -55.1868 C.3       21 UNK        -0.1800 
    117 C         -4.6415  -20.1973  -55.5398 C.2       21 UNK         0.5000 
    118 O         -4.5063  -21.1475  -56.3121 O.2       21 UNK        -0.5000 
    119 N         -3.6641  -19.7443  -54.7423 N.am      22 UNK        -0.5000 
    120 CA        -2.3400  -20.3506  -54.5403 C.3       22 UNK         0.1400 
    121 C         -2.3704  -21.7651  -53.8832 C.2       22 UNK         0.5000 
    122 N         -3.3699  -22.0822  -53.0713 N.am      22 UNK        -0.7600 
    123 O         -1.4668  -22.5743  -54.0736 O.2       22 UNK        -0.5000 
    124 C124       -1.4230  -20.2604  -55.7951 C.3       23 UNK        -0.0398 
    125 S125       -0.9428  -18.5393  -56.1755 S.3       23 UNK        -0.2404 
    126 C126        0.7179  -18.4442  -55.4227 C.3       23 UNK        -0.0205 
    127 H127        4.2298  -11.4533  -52.8095 H         1 UNK         0.0600 
    128 H128        5.9200  -11.7401  -52.3868 H         1 UNK         0.0600 
    129 H129        5.1587  -10.1960  -51.9882 H         1 UNK         0.0600 
    130 H130        2.8105  -12.4794  -51.4321 H         1 UNK         0.3000 
    131 H131        3.5748  -13.5919  -48.9024 H         1 UNK         0.0600 
    132 H132        0.8075  -13.2942  -50.1914 H         1 UNK         0.0800 
    133 H133        1.1336  -14.2233  -48.7468 H         1 UNK         0.0800 
    134 H134       -0.2362  -15.2500  -51.5735 H         1 UNK         0.0800 
    135 H135       -0.1655  -16.1392  -50.0662 H         1 UNK         0.0800 
    136 H136        0.5016  -16.3260  -53.7139 H         1 UNK         0.1150 
    137 H137        0.8223  -20.6010  -53.7527 H         1 UNK         0.1150 
    138 H138        0.3402  -18.5200  -50.0379 H         1 UNK         0.1150 
    139 H139       -0.2656  -21.0599  -50.3696 H         1 UNK         0.0800 
    140 H140        0.3429  -21.8496  -51.7935 H         1 UNK         0.0800 
    141 H141        0.9944  -20.1145  -48.5395 H         1 UNK         0.0800 
    142 H142        2.6964  -20.2817  -48.2446 H         1 UNK         0.0800 
    143 H143        2.3260  -22.7712  -47.8489 H         1 UNK         0.0600 
    144 H144        1.4841  -20.6821  -45.9755 H         1 UNK         0.3000 
    145 H145        3.1719  -22.5177  -43.3328 H         1 UNK         0.0600 
    146 H146        4.0652  -20.2356  -43.2097 H         1 UNK         0.0600 
    147 H147        4.5892  -20.9803  -44.7119 H         1 UNK         0.0600 
    148 H148        3.2902  -19.7923  -44.7267 H         1 UNK         0.0600 
    149 H149        1.3815  -20.2413  -43.2852 H         1 UNK         0.3000 
    150 H150       -1.3841  -22.0328  -41.9278 H         1 UNK         0.0600 
    151 H151        0.0014  -21.5385  -39.9236 H         1 UNK         0.0600 
    152 H152       -1.1838  -20.2647  -40.1761 H         1 UNK         0.0600 
    153 H153        0.5026  -20.0028  -40.6187 H         1 UNK         0.0600 
    154 H154       -1.0759  -19.2730  -42.4619 H         1 UNK         0.3000 
    155 H155       -1.8990  -19.3485  -45.9548 H         1 UNK         0.0600 
    156 H156       -3.3585  -18.3190  -43.4646 H         1 UNK         0.0600 
    157 H157       -4.0441  -19.3695  -44.6959 H         1 UNK         0.0600 
    158 H158       -3.5731  -17.7292  -45.1120 H         1 UNK         0.0600 
    159 H159       -1.1654  -17.2940  -44.0590 H         1 UNK         0.3000 
    160 H160        2.2797  -17.2125  -44.9512 H         1 UNK         0.0600 
    161 H161       -0.0030  -15.2550  -45.5545 H         1 UNK         0.0600 
    162 H162        1.1119  -15.9143  -46.7466 H         1 UNK         0.0600 
    163 H163        1.7120  -14.8644  -45.4730 H         1 UNK         0.0600 
    164 H164        0.6112  -15.6408  -43.1992 H         1 UNK         0.3000 
    165 H165        1.0409  -17.6836  -40.2995 H         1 UNK         0.0600 
    166 H166        2.0890  -15.6426  -39.3673 H         1 UNK         0.0600 
    167 H167        3.2182  -16.4540  -40.4399 H         1 UNK         0.0600 
    168 H168        2.3753  -15.0098  -40.9889 H         1 UNK         0.0600 
    169 H169       -0.0707  -15.1107  -40.5399 H         1 UNK         0.3000 
    170 H170       -3.0886  -15.6826  -42.0935 H         1 UNK         0.0600 
    171 H171       -3.7727  -16.8795  -40.0074 H         1 UNK         0.0600 
    172 H172       -2.9203  -15.6891  -39.0316 H         1 UNK         0.0600 
    173 H173       -4.3211  -15.2120  -39.9926 H         1 UNK         0.0600 
    174 H174       -2.4160  -13.6133  -40.3006 H         1 UNK         0.3000 
    175 H175       -1.9226  -11.5665  -41.1858 H         1 UNK         0.0600 
    176 H176        1.0443  -12.3276  -41.4531 H         1 UNK         0.0600 
    177 H177        0.4238  -10.8748  -40.6692 H         1 UNK         0.0600 
    178 H178        0.0872  -12.4538  -39.9819 H         1 UNK         0.0600 
    179 H179        0.0286  -10.9620  -43.2105 H         1 UNK         0.3000 
    180 H180       -2.0231  -10.4868  -45.9367 H         1 UNK         0.0600 
    181 H181       -1.2765   -8.1395  -44.1086 H         1 UNK         0.0600 
    182 H182       -2.8794   -8.4667  -44.7559 H         1 UNK         0.0600 
    183 H183       -1.5698   -8.0423  -45.8457 H         1 UNK         0.0600 
    184 H184        0.5536   -9.4260  -45.1074 H         1 UNK         0.3000 
    185 H185        2.4088  -10.2483  -46.2170 H         1 UNK         0.0600 
    186 H186        3.7927  -11.7478  -44.7502 H         1 UNK         0.0600 
    187 H187        2.4277  -11.0808  -43.8725 H         1 UNK         0.0600 
    188 H188        2.3763  -12.7480  -44.4271 H         1 UNK         0.0600 
    189 H189        2.9079  -13.0365  -46.8250 H         1 UNK         0.3000 
    190 H190       -0.8072  -21.0873  -47.1449 H         1 UNK         0.3000 
    191 H191       -2.2697  -22.5801  -49.0326 H         1 UNK         0.0600 
    192 H192       -3.3592  -21.1002  -46.5849 H         1 UNK         0.0600 
    193 H193       -4.2583  -21.5468  -48.0137 H         1 UNK         0.0600 
    194 H194       -2.9750  -20.3570  -48.1418 H         1 UNK         0.0600 
    195 H195       -1.8497  -23.1204  -45.5407 H         1 UNK         0.3000 
    196 H196       -3.5885  -25.3502  -45.2672 H         1 UNK         0.0600 
    197 H197       -2.3385  -25.7179  -43.1440 H         1 UNK         0.0600 
    198 H198       -2.7066  -24.0117  -43.3578 H         1 UNK         0.0600 
    199 H199       -1.0793  -24.6099  -43.6752 H         1 UNK         0.0600 
    200 H200       -0.2606  -25.1531  -46.4707 H         1 UNK         0.3000 
    201 H201        0.1742  -28.0588  -46.4264 H         1 UNK         0.0600 
    202 H202        2.0774  -26.5175  -46.0160 H         1 UNK         0.0600 
    203 H203        1.8562  -25.7813  -47.6001 H         1 UNK         0.0600 
    204 H204        2.3435  -27.4658  -47.4713 H         1 UNK         0.0600 
    205 H205       -0.5419  -25.4703  -48.7890 H         1 UNK         0.3000 
    206 H206       -0.5706  -27.0892  -51.1316 H         1 UNK         0.0600 
    207 H207       -0.3373  -24.5959  -51.1280 H         1 UNK         0.0600 
    208 H208       -1.6811  -25.1020  -52.1403 H         1 UNK         0.0600 
    209 H209       -1.9925  -24.4340  -50.5443 H         1 UNK         0.0600 
    210 H210       -2.9870  -26.4837  -48.6804 H         1 UNK         0.3000 
    211 H211       -4.9783  -27.2629  -48.1757 H         1 UNK         0.0600 
    212 H212       -4.7115  -29.3762  -50.3777 H         1 UNK         0.0600 
    213 H213       -5.8383  -29.3951  -49.0302 H         1 UNK         0.0600 
    214 H214       -4.1158  -29.5540  -48.7273 H         1 UNK         0.0600 
    215 H215       -4.6685  -25.0384  -49.8383 H         1 UNK         0.3000 
    216 H216       -7.3423  -24.6571  -50.8062 H         1 UNK         0.0600 
    217 H217       -6.5970  -23.9241  -53.1223 H         1 UNK         0.0600 
    218 H218       -6.3918  -25.6536  -52.8902 H         1 UNK         0.0600 
    219 H219       -4.9964  -24.5827  -52.8041 H         1 UNK         0.0600 
    220 H220       -7.7405  -22.3914  -50.9930 H         1 UNK         0.3000 
    221 H221       -6.4166  -20.7728  -49.1312 H         1 UNK         0.0600 
    222 H222       -8.2905  -19.9928  -51.4368 H         1 UNK         0.0600 
    223 H223       -8.7939  -20.4852  -49.8194 H         1 UNK         0.0600 
    224 H224       -7.9173  -18.9816  -50.0461 H         1 UNK         0.0600 
    225 H225       -5.0993  -18.9435  -49.2901 H         1 UNK         0.3000 
    226 H226       -2.9469  -19.0212  -51.0735 H         1 UNK         0.0600 
    227 H227       -2.7684  -18.0292  -48.8352 H         1 UNK         0.0600 
    228 H228       -2.3715  -16.7958  -50.0182 H         1 UNK         0.0600 
    229 H229       -3.9444  -16.7772  -49.2389 H         1 UNK         0.0600 
    230 H230       -5.9679  -17.2169  -51.3537 H         1 UNK         0.3000 
    231 H231       -5.2309  -15.4554  -53.4808 H         1 UNK         0.0600 
    232 H232       -7.2184  -15.0899  -52.0362 H         1 UNK         0.0600 
    233 H233       -7.9653  -16.5680  -52.6450 H         1 UNK         0.0600 
    234 H234       -7.7075  -15.1985  -53.7191 H         1 UNK         0.0600 
    235 H235       -5.9878  -18.8712  -53.4433 H         1 UNK         0.3000 
    236 H236       -6.1923  -19.0147  -56.4197 H         1 UNK         0.0600 
    237 H237       -7.2012  -21.2364  -55.9883 H         1 UNK         0.0600 
    238 H238       -6.9777  -21.0424  -54.2540 H         1 UNK         0.0600 
    239 H239       -8.1052  -20.0037  -55.1249 H         1 UNK         0.0600 
    240 H240       -3.8535  -18.9355  -54.1656 H         1 UNK         0.3000 
    241 H241       -1.8918  -19.7311  -53.7659 H         1 UNK         0.0600 
    242 H242       -3.3691  -22.9777  -52.6141 H         1 UNK         0.3800 
    243 H243       -4.1053  -21.4121  -52.8577 H         1 UNK         0.3800 
    244 H244       -1.9195  -20.6870  -56.6667 H         1 UNK         0.0800 
    245 H245       -0.5115  -20.8448  -55.6697 H         1 UNK         0.0800 
    246 H246        1.2019  -17.5258  -55.7581 H         1 UNK         0.0800 
    247 H247        1.3391  -19.2629  -55.7892 H         1 UNK         0.0800 
@<TRIPOS>BOND
     1    1    2 1    
     2    1  127 1    
     3    1  128 1    
     4    1  129 1    
     5    2    3 2    
     6    2    4 am   BACKBONE|DICT|INTERRES
     7    4    5 1    
     8    4  130 1    
     9    5    6 1    
    10    5   65 1    
    11    5  131 1    
    12    6    7 1    
    13    6  132 1    
    14    6  133 1    
    15    7    8 1    
    16    8    9 1    
    17    8  134 1    
    18    8  135 1    
    19    9   10 ar   
    20    9   14 ar   
    21   10   11 ar   
    22   10  136 1    
    23   11   12 ar   
    24   11  126 1    
    25   12   13 ar   
    26   12  137 1    
    27   13   14 ar   
    28   13   15 1    
    29   14  138 1    
    30   15   16 1    
    31   15  139 1    
    32   15  140 1    
    33   16   17 1    
    34   17   18 1    
    35   17  141 1    
    36   17  142 1    
    37   18   19 1    
    38   18   67 1    
    39   18  143 1    
    40   19   20 am   BACKBONE|DICT|INTERRES
    41   19  144 1    
    42   20   21 2    
    43   20   22 1    
    44   22   23 1    
    45   22   24 1    
    46   22  145 1    
    47   23  146 1    
    48   23  147 1    
    49   23  148 1    
    50   24   25 am   BACKBONE|DICT|INTERRES
    51   24  149 1    
    52   25   26 2    
    53   25   27 1    
    54   27   28 1    
    55   27   29 1    
    56   27  150 1    
    57   28  151 1    
    58   28  152 1    
    59   28  153 1    
    60   29   30 am   BACKBONE|DICT|INTERRES
    61   29  154 1    
    62   30   31 2    
    63   30   32 1    
    64   32   33 1    
    65   32   34 1    
    66   32  155 1    
    67   33  156 1    
    68   33  157 1    
    69   33  158 1    
    70   34   35 am   BACKBONE|DICT|INTERRES
    71   34  159 1    
    72   35   36 2    
    73   35   37 1    
    74   37   38 1    
    75   37   39 1    
    76   37  160 1    
    77   38  161 1    
    78   38  162 1    
    79   38  163 1    
    80   39   40 am   BACKBONE|DICT|INTERRES
    81   39  164 1    
    82   40   41 2    
    83   40   42 1    
    84   42   43 1    
    85   42   44 1    
    86   42  165 1    
    87   43  166 1    
    88   43  167 1    
    89   43  168 1    
    90   44   45 am   BACKBONE|DICT|INTERRES
    91   44  169 1    
    92   45   46 2    
    93   45   47 1    
    94   47   48 1    
    95   47   49 1    
    96   47  170 1    
    97   48  171 1    
    98   48  172 1    
    99   48  173 1    
   100   49   50 am   BACKBONE|DICT|INTERRES
   101   49  174 1    
   102   50   51 2    
   103   50   52 1    
   104   52   53 1    
   105   52   54 1    
   106   52  175 1    
   107   53  176 1    
   108   53  177 1    
   109   53  178 1    
   110   54   55 am   BACKBONE|DICT|INTERRES
   111   54  179 1    
   112   55   56 2    
   113   55   57 1    
   114   57   58 1    
   115   57   59 1    
   116   57  180 1    
   117   58  181 1    
   118   58  182 1    
   119   58  183 1    
   120   59   60 am   BACKBONE|DICT|INTERRES
   121   59  184 1    
   122   60   61 2    
   123   60   62 1    
   124   62   63 1    
   125   62   64 1    
   126   62  185 1    
   127   63  186 1    
   128   63  187 1    
   129   63  188 1    
   130   64   65 am   BACKBONE|DICT|INTERRES
   131   64  189 1    
   132   65   66 2    
   133   67   68 2    
   134   67   69 am   BACKBONE|DICT|INTERRES
   135   69   70 1    
   136   69  190 1    
   137   70   71 1    
   138   70   72 1    
   139   70  191 1    
   140   71  192 1    
   141   71  193 1    
   142   71  194 1    
   143   72   73 2    
   144   72   74 am   BACKBONE|DICT|INTERRES
   145   74   75 1    
   146   74  195 1    
   147   75   76 1    
   148   75   77 1    
   149   75  196 1    
   150   76  197 1    
   151   76  198 1    
   152   76  199 1    
   153   77   78 2    
   154   77   79 am   BACKBONE|DICT|INTERRES
   155   79   80 1    
   156   79  200 1    
   157   80   81 1    
   158   80   82 1    
   159   80  201 1    
   160   81  202 1    
   161   81  203 1    
   162   81  204 1    
   163   82   83 2    
   164   82   84 am   BACKBONE|DICT|INTERRES
   165   84   85 1    
   166   84  205 1    
   167   85   86 1    
   168   85   87 1    
   169   85  206 1    
   170   86  207 1    
   171   86  208 1    
   172   86  209 1    
   173   87   88 2    
   174   87   89 am   BACKBONE|DICT|INTERRES
   175   89   90 1    
   176   89  210 1    
   177   90   91 1    
   178   90   92 1    
   179   90  211 1    
   180   91  212 1    
   181   91  213 1    
   182   91  214 1    
   183   92   93 2    
   184   92   94 am   BACKBONE|DICT|INTERRES
   185   94   95 1    
   186   94  215 1    
   187   95   96 1    
   188   95   97 1    
   189   95  216 1    
   190   96  217 1    
   191   96  218 1    
   192   96  219 1    
   193   97   98 2    
   194   97   99 am   BACKBONE|DICT|INTERRES
   195   99  100 1    
   196   99  220 1    
   197  100  101 1    
   198  100  102 1    
   199  100  221 1    
   200  101  222 1    
   201  101  223 1    
   202  101  224 1    
   203  102  103 2    
   204  102  104 am   BACKBONE|DICT|INTERRES
   205  104  105 1    
   206  104  225 1    
   207  105  106 1    
   208  105  107 1    
   209  105  226 1    
   210  106  227 1    
   211  106  228 1    
   212  106  229 1    
   213  107  108 2    
   214  107  109 am   BACKBONE|DICT|INTERRES
   215  109  110 1    
   216  109  230 1    
   217  110  111 1    
   218  110  112 1    
   219  110  231 1    
   220  111  232 1    
   221  111  233 1    
   222  111  234 1    
   223  112  113 2    
   224  112  114 am   BACKBONE|DICT|INTERRES
   225  114  115 1    
   226  114  235 1    
   227  115  116 1    
   228  115  117 1    
   229  115  236 1    
   230  116  237 1    
   231  116  238 1    
   232  116  239 1    
   233  117  118 2    
   234  117  119 am   BACKBONE|DICT|INTERRES
   235  119  120 1    
   236  119  240 1    
   237  120  121 1    
   238  120  124 1    
   239  120  241 1    
   240  121  122 am   BACKBONE|DICT|INTERRES
   241  121  123 2    
   242  122  242 1    
   243  122  243 1    
   244  124  125 1    
   245  124  244 1    
   246  124  245 1    
   247  125  126 1    
   248  126  246 1    
   249  126  247 1    
@<TRIPOS>SUBSTRUCTURE
     1 UNK         1 GROUP             0       ****    0 ROOT    
