@<TRIPOS>MOLECULE
3R540
247   249    1
SMALL
USER_CHARGES


@<TRIPOS>ATOM
      1 CA          1.3774  -13.1717  -50.5142 C.3       0 UNK        -0.1800 
      2 C           1.2996  -13.0044  -49.0048 C.2       0 UNK         0.5000 
      3 O           2.3203  -13.1193  -48.3227 O.2       0 UNK        -0.5000 
      4 N           0.0975  -12.7293  -48.4809 N.am      1 UNK        -0.5000 
      5 CA         -0.2020  -12.6013  -47.0471 C.3       1 UNK         0.1400 
      6 C6         -1.7152  -12.4207  -46.7587 C.3       23 UNK        -0.0398 
      7 S7         -2.7610  -13.6429  -47.6152 S.3       23 UNK        -0.2404 
      8 C8         -2.7990  -14.9964  -46.4044 C.3       23 UNK        -0.0205 
      9 C9         -2.9801  -16.3263  -47.1135 C.ar      23 UNK        -0.0193 
     10 C10        -4.2377  -16.9271  -47.1976 C.ar      23 UNK        -0.1150 
     11 C11        -4.4030  -18.1408  -47.8734 C.ar      23 UNK        -0.0193 
     12 C12        -3.2923  -18.7481  -48.4706 C.ar      23 UNK        -0.1150 
     13 C13        -2.0237  -18.1638  -48.3769 C.ar      23 UNK        -0.0193 
     14 C14        -1.8789  -16.9530  -47.6982 C.ar      23 UNK        -0.1150 
     15 C15        -0.8048  -18.8187  -49.0132 C.3       23 UNK        -0.0205 
     16 S16         0.0082  -19.9990  -47.8947 S.3       23 UNK        -0.2404 
     17 C17        -1.1219  -21.4193  -48.0431 C.3       23 UNK        -0.0398 
     18 CA         -0.5586  -22.7167  -47.4211 C.3       11 UNK         0.1400 
     19 N          -0.1542  -22.5480  -46.0243 N.am      11 UNK        -0.5000 
     20 C           0.5941  -23.4209  -45.3361 C.2       10 UNK         0.5000 
     21 O           1.0423  -24.4621  -45.8149 O.2       10 UNK        -0.5000 
     22 CA          0.8331  -23.0999  -43.8482 C.3       10 UNK         0.1400 
     23 CB          2.0284  -22.1489  -43.6854 C.3       10 UNK        -0.1800 
     24 N          -0.3414  -22.5071  -43.2072 N.am      10 UNK        -0.5000 
     25 C          -1.5276  -23.1167  -43.0720 C.2       9 UNK         0.5000 
     26 O          -1.7351  -24.2829  -43.4045 O.2       9 UNK        -0.5000 
     27 CA         -2.6901  -22.2665  -42.5285 C.3       9 UNK         0.1400 
     28 CB         -2.8244  -22.4485  -41.0101 C.3       9 UNK        -0.1800 
     29 N          -2.5595  -20.8395  -42.8297 N.am      9 UNK        -0.5000 
     30 C          -2.5358  -20.2846  -44.0474 C.2       8 UNK         0.5000 
     31 O          -2.6157  -20.9437  -45.0836 O.2       8 UNK        -0.5000 
     32 CA         -2.3571  -18.7523  -44.1267 C.3       8 UNK         0.1400 
     33 CB         -3.6962  -18.0323  -43.8867 C.3       8 UNK        -0.1800 
     34 N          -1.2965  -18.1988  -43.2671 N.am      8 UNK        -0.5000 
     35 C          -1.1967  -18.2076  -41.9264 C.2       7 UNK         0.5000 
     36 O          -2.0358  -18.7036  -41.1735 O.2       7 UNK        -0.5000 
     37 CA          0.0683  -17.5799  -41.3112 C.3       7 UNK         0.1400 
     38 CB          1.1669  -18.6445  -41.1631 C.3       7 UNK        -0.1800 
     39 N           0.5966  -16.4531  -42.0778 N.am      7 UNK        -0.5000 
     40 C          -0.0315  -15.2828  -42.2555 C.2       6 UNK         0.5000 
     41 O          -1.1163  -15.0039  -41.7436 O.2       6 UNK        -0.5000 
     42 CA          0.6686  -14.2411  -43.1503 C.3       6 UNK         0.1400 
     43 CB          1.4155  -13.2253  -42.2703 C.3       6 UNK        -0.1800 
     44 N           1.6102  -14.7850  -44.1358 N.am      6 UNK        -0.5000 
     45 C           1.3584  -15.7058  -45.0759 C.2       5 UNK         0.5000 
     46 O           0.2883  -16.3089  -45.1598 O.2       5 UNK        -0.5000 
     47 CA          2.4886  -16.0091  -46.0838 C.3       5 UNK         0.1400 
     48 CB          1.9446  -16.4879  -47.4395 C.3       5 UNK        -0.1800 
     49 N           3.4002  -14.8832  -46.3195 N.am      5 UNK        -0.5000 
     50 C           4.4509  -14.5806  -45.5454 C.2       4 UNK         0.5000 
     51 O           4.6538  -15.1171  -44.4561 O.2       4 UNK        -0.5000 
     52 CA          5.4555  -13.5357  -46.0547 C.3       4 UNK         0.1400 
     53 CB          6.6235  -14.2548  -46.7617 C.3       4 UNK        -0.1800 
     54 N           4.8635  -12.5266  -46.9387 N.am      4 UNK        -0.5000 
     55 C           5.4778  -11.3830  -47.2746 C.2       3 UNK         0.5000 
     56 O           6.5765  -11.0383  -46.8364 O.2       3 UNK        -0.5000 
     57 CA          4.7462  -10.4610  -48.2617 C.3       3 UNK         0.1400 
     58 CB          4.7751  -11.0388  -49.6863 C.3       3 UNK        -0.1800 
     59 N           3.3662  -10.2145  -47.8534 N.am      3 UNK        -0.5000 
     60 C           3.0012   -9.3280  -46.9163 C.2       2 UNK         0.5000 
     61 O           3.7990   -8.6285  -46.2910 O.2       2 UNK        -0.5000 
     62 CA          1.4927   -9.1713  -46.6445 C.3       2 UNK         0.1400 
     63 CB          0.9489   -7.9188  -47.3498 C.3       2 UNK        -0.1800 
     64 N           0.7149  -10.3311  -47.0804 N.am      2 UNK        -0.5000 
     65 C           0.5974  -11.4659  -46.3788 C.2       1 UNK         0.5000 
     66 O           1.1042  -11.6423  -45.2729 O.2       1 UNK        -0.5000 
     67 C          -1.5945  -23.8452  -47.5630 C.2       11 UNK         0.5000 
     68 O          -1.5575  -24.5826  -48.5478 O.2       11 UNK        -0.5000 
     69 N          -2.5020  -23.9580  -46.5827 N.am      12 UNK        -0.5000 
     70 CA         -3.5175  -25.0080  -46.5164 C.3       12 UNK         0.1400 
     71 CB         -4.5784  -24.6423  -45.4684 C.3       12 UNK        -0.1800 
     72 C          -2.8959  -26.3857  -46.2331 C.2       12 UNK         0.5000 
     73 O          -3.2652  -27.3594  -46.8883 O.2       12 UNK        -0.5000 
     74 N          -1.9210  -26.4310  -45.3135 N.am      13 UNK        -0.5000 
     75 CA         -1.1243  -27.6175  -44.9904 C.3       13 UNK         0.1400 
     76 CB         -0.2373  -27.3186  -43.7725 C.3       13 UNK        -0.1800 
     77 C          -0.2734  -28.1104  -46.1772 C.2       13 UNK         0.5000 
     78 O          -0.1503  -29.3190  -46.3779 O.2       13 UNK        -0.5000 
     79 N           0.2630  -27.1669  -46.9634 N.am      14 UNK        -0.5000 
     80 CA          0.9906  -27.4259  -48.2080 C.3       14 UNK         0.1400 
     81 CB          1.8201  -26.1800  -48.5590 C.3       14 UNK        -0.1800 
     82 C           0.0769  -27.8047  -49.3934 C.2       14 UNK         0.5000 
     83 O           0.5900  -28.2443  -50.4230 O.2       14 UNK        -0.5000 
     84 N          -1.2417  -27.5993  -49.2445 N.am      15 UNK        -0.5000 
     85 CA         -2.2967  -27.7450  -50.2557 C.3       15 UNK         0.1400 
     86 CB         -2.4388  -29.2141  -50.7042 C.3       15 UNK        -0.1800 
     87 C          -2.1441  -26.7620  -51.4388 C.2       15 UNK         0.5000 
     88 O          -2.6035  -27.0467  -52.5460 O.2       15 UNK        -0.5000 
     89 N          -1.5074  -25.6149  -51.1756 N.am      16 UNK        -0.5000 
     90 CA         -1.2487  -24.5434  -52.1341 C.3       16 UNK         0.1400 
     91 CB          0.1169  -23.9195  -51.8067 C.3       16 UNK        -0.1800 
     92 C          -2.3397  -23.4604  -52.1010 C.2       16 UNK         0.5000 
     93 O          -2.5084  -22.7559  -53.0964 O.2       16 UNK        -0.5000 
     94 N          -3.0547  -23.3530  -50.9679 N.am      17 UNK        -0.5000 
     95 CA         -4.0220  -22.3001  -50.6345 C.3       17 UNK         0.1400 
     96 CB         -4.7138  -22.6432  -49.3058 C.3       17 UNK        -0.1800 
     97 C          -5.0789  -21.9955  -51.7087 C.2       17 UNK         0.5000 
     98 O          -5.4314  -20.8305  -51.8945 O.2       17 UNK        -0.5000 
     99 N          -5.5506  -23.0426  -52.3968 N.am      18 UNK        -0.5000 
    100 CA        -6.5442  -22.9602  -53.4665 C.3       18 UNK         0.1400 
    101 CB        -7.0294  -24.3780  -53.8048 C.3       18 UNK        -0.1800 
    102 C         -6.0349  -22.2483  -54.7350 C.2       18 UNK         0.5000 
    103 O         -6.8445  -21.6625  -55.4552 O.2       18 UNK        -0.5000 
    104 N         -4.7195  -22.3015  -54.9878 N.am      19 UNK        -0.5000 
    105 CA        -4.0777  -21.6191  -56.1100 C.3       19 UNK         0.1400 
    106 CB        -2.7843  -22.3548  -56.4958 C.3       19 UNK        -0.1800 
    107 C         -3.7950  -20.1466  -55.7730 C.2       19 UNK         0.5000 
    108 O         -4.0734  -19.2718  -56.5941 O.2       19 UNK        -0.5000 
    109 N         -3.2673  -19.9010  -54.5686 N.am      20 UNK        -0.5000 
    110 CA        -2.9433  -18.5848  -54.0288 C.3       20 UNK         0.1400 
    111 CB        -1.7062  -18.0069  -54.7458 C.3       20 UNK        -0.1800 
    112 C         -2.6654  -18.7364  -52.5226 C.2       20 UNK         0.5000 
    113 O         -2.2321  -19.8101  -52.1103 O.2       20 UNK        -0.5000 
    114 N         -2.8520  -17.7035  -51.6891 N.am      21 UNK        -0.5000 
    115 CA        -3.4111  -16.3874  -52.0055 C.3       21 UNK         0.1400 
    116 CB        -2.9204  -15.3850  -50.9506 C.3       21 UNK        -0.1800 
    117 C         -4.9505  -16.3945  -52.0536 C.2       21 UNK         0.5000 
    118 O         -5.5323  -15.5182  -52.6932 O.2       21 UNK        -0.5000 
    119 N         -5.5763  -17.3732  -51.3876 N.am      22 UNK        -0.5000 
    120 CA        -7.0343  -17.5511  -51.3471 C.3       22 UNK         0.1400 
    121 C         -7.6225  -18.0460  -52.6974 C.2       22 UNK         0.5000 
    122 N         -7.0253  -19.0452  -53.3324 N.am      22 UNK        -0.7600 
    123 O         -8.6214  -17.5145  -53.1743 O.2       22 UNK        -0.5000 
    124 C124       -7.4691  -18.4716  -50.1809 C.3       23 UNK        -0.0398 
    125 S125       -7.0955  -17.7522  -48.5434 S.3       23 UNK        -0.2404 
    126 C126       -5.7657  -18.8237  -47.8964 C.3       23 UNK        -0.0205 
    127 H127        2.0040  -12.3918  -50.9463 H         1 UNK         0.0600 
    128 H128        0.3927  -13.1172  -50.9792 H         1 UNK         0.0600 
    129 H129        1.8159  -14.1388  -50.7594 H         1 UNK         0.0600 
    130 H130       -0.7045  -12.6654  -49.0920 H         1 UNK         0.3000 
    131 H131        0.1147  -13.5343  -46.5792 H         1 UNK         0.0600 
    132 H132       -1.9117  -12.4723  -45.6861 H         1 UNK         0.0800 
    133 H133       -2.0506  -11.4327  -47.0795 H         1 UNK         0.0800 
    134 H134       -1.8724  -15.0157  -45.8307 H         1 UNK         0.0800 
    135 H135       -3.6033  -14.8233  -45.6881 H         1 UNK         0.0800 
    136 H136       -5.0900  -16.4522  -46.7327 H         1 UNK         0.1150 
    137 H137       -3.4100  -19.6878  -48.9874 H         1 UNK         0.1150 
    138 H138       -0.9076  -16.4878  -47.6262 H         1 UNK         0.1150 
    139 H139       -1.0771  -19.3313  -49.9328 H         1 UNK         0.0800 
    140 H140       -0.0822  -18.0537  -49.3010 H         1 UNK         0.0800 
    141 H141       -1.3309  -21.5783  -49.1026 H         1 UNK         0.0800 
    142 H142       -2.0698  -21.1473  -47.5788 H         1 UNK         0.0800 
    143 H143        0.3252  -23.0082  -47.9927 H         1 UNK         0.0600 
    144 H144       -0.5297  -21.7367  -45.5524 H         1 UNK         0.3000 
    145 H145        1.0626  -24.0365  -43.3359 H         1 UNK         0.0600 
    146 H146        2.9270  -22.5719  -44.1364 H         1 UNK         0.0600 
    147 H147        2.2484  -21.9678  -42.6331 H         1 UNK         0.0600 
    148 H148        1.8451  -21.1843  -44.1610 H         1 UNK         0.0600 
    149 H149       -0.2630  -21.5480  -42.9051 H         1 UNK         0.3000 
    150 H150       -3.6074  -22.6225  -43.0013 H         1 UNK         0.0600 
    151 H151       -1.9456  -22.0766  -40.4816 H         1 UNK         0.0600 
    152 H152       -2.9444  -23.5013  -40.7509 H         1 UNK         0.0600 
    153 H153       -3.6957  -21.9181  -40.6254 H         1 UNK         0.0600 
    154 H154       -2.4762  -20.2057  -42.0368 H         1 UNK         0.3000 
    155 H155       -2.0473  -18.5320  -45.1497 H         1 UNK         0.0600 
    156 H156       -4.0782  -18.2015  -42.8798 H         1 UNK         0.0600 
    157 H157       -4.4558  -18.3827  -44.5865 H         1 UNK         0.0600 
    158 H158       -3.5933  -16.9568  -44.0298 H         1 UNK         0.0600 
    159 H159       -0.5613  -17.7219  -43.7787 H         1 UNK         0.3000 
    160 H160       -0.1939  -17.2161  -40.3155 H         1 UNK         0.0600 
    161 H161        1.4910  -19.0281  -42.1315 H         1 UNK         0.0600 
    162 H162        0.8129  -19.4931  -40.5758 H         1 UNK         0.0600 
    163 H163        2.0412  -18.2408  -40.6521 H         1 UNK         0.0600 
    164 H164        1.4878  -16.5860  -42.5321 H         1 UNK         0.3000 
    165 H165       -0.1103  -13.7141  -43.7045 H         1 UNK         0.0600 
    166 H166        1.8640  -12.4315  -42.8668 H         1 UNK         0.0600 
    167 H167        0.7383  -12.7502  -41.5593 H         1 UNK         0.0600 
    168 H168        2.2123  -13.7016  -41.6977 H         1 UNK         0.0600 
    169 H169        2.5380  -14.3840  -44.1291 H         1 UNK         0.3000 
    170 H170        3.0619  -16.8359  -45.6595 H         1 UNK         0.0600 
    171 H171        2.7531  -16.7123  -48.1352 H         1 UNK         0.0600 
    172 H172        1.3011  -15.7405  -47.9020 H         1 UNK         0.0600 
    173 H173        1.3614  -17.4006  -47.3219 H         1 UNK         0.0600 
    174 H174        3.2292  -14.3577  -47.1705 H         1 UNK         0.3000 
    175 H175        5.8455  -13.0254  -45.1713 H         1 UNK         0.0600 
    176 H176        7.0373  -15.0450  -46.1336 H         1 UNK         0.0600 
    177 H177        6.3004  -14.7143  -47.6966 H         1 UNK         0.0600 
    178 H178        7.4418  -13.5726  -46.9901 H         1 UNK         0.0600 
    179 H179        3.9444  -12.7191  -47.3249 H         1 UNK         0.3000 
    180 H180        5.2775   -9.5068  -48.2855 H         1 UNK         0.0600 
    181 H181        4.2905  -12.0131  -49.7447 H         1 UNK         0.0600 
    182 H182        5.8022  -11.1671  -50.0301 H         1 UNK         0.0600 
    183 H183        4.2775  -10.3737  -50.3921 H         1 UNK         0.0600 
    184 H184        2.6563  -10.7953  -48.2744 H         1 UNK         0.3000 
    185 H185        1.3626   -9.0381  -45.5682 H         1 UNK         0.0600 
    186 H186        1.4852   -7.0251  -47.0279 H         1 UNK         0.0600 
    187 H187        1.0506   -7.9901  -48.4334 H         1 UNK         0.0600 
    188 H188       -0.1054   -7.7633  -47.1201 H         1 UNK         0.0600 
    189 H189        0.2728  -10.2707  -47.9864 H         1 UNK         0.3000 
    190 H190       -2.4715  -23.2990  -45.8166 H         1 UNK         0.3000 
    191 H191       -4.0117  -25.0621  -47.4885 H         1 UNK         0.0600 
    192 H192       -5.0254  -23.6712  -45.6824 H         1 UNK         0.0600 
    193 H193       -5.3842  -25.3772  -45.4609 H         1 UNK         0.0600 
    194 H194       -4.1621  -24.6060  -44.4622 H         1 UNK         0.0600 
    195 H195       -1.7225  -25.5920  -44.7744 H         1 UNK         0.3000 
    196 H196       -1.8151  -28.4192  -44.7215 H         1 UNK         0.0600 
    197 H197        0.3473  -28.1949  -43.4898 H         1 UNK         0.0600 
    198 H198       -0.8377  -27.0346  -42.9081 H         1 UNK         0.0600 
    199 H199        0.4624  -26.5069  -43.9739 H         1 UNK         0.0600 
    200 H200        0.1792  -26.1961  -46.6835 H         1 UNK         0.3000 
    201 H201        1.6771  -28.2588  -48.0435 H         1 UNK         0.0600 
    202 H202        2.4110  -26.3415  -49.4615 H         1 UNK         0.0600 
    203 H203        2.5155  -25.9303  -47.7575 H         1 UNK         0.0600 
    204 H204        1.1852  -25.3111  -48.7344 H         1 UNK         0.0600 
    205 H205       -1.5575  -27.2422  -48.3520 H         1 UNK         0.3000 
    206 H206       -3.2257  -27.4655  -49.7571 H         1 UNK         0.0600 
    207 H207       -2.5436  -29.8785  -49.8465 H         1 UNK         0.0600 
    208 H208       -3.3239  -29.3485  -51.3270 H         1 UNK         0.0600 
    209 H209       -1.5787  -29.5474  -51.2851 H         1 UNK         0.0600 
    210 H210       -1.2299  -25.4366  -50.2145 H         1 UNK         0.3000 
    211 H211       -1.2081  -24.9505  -53.1466 H         1 UNK         0.0600 
    212 H212        0.1337  -23.4887  -50.8045 H         1 UNK         0.0600 
    213 H213        0.3621  -23.1234  -52.5110 H         1 UNK         0.0600 
    214 H214        0.9126  -24.6624  -51.8645 H         1 UNK         0.0600 
    215 H215       -2.8183  -23.9904  -50.2188 H         1 UNK         0.3000 
    216 H216       -3.4525  -21.3836  -50.4901 H         1 UNK         0.0600 
    217 H217       -5.5559  -21.9790  -49.1103 H         1 UNK         0.0600 
    218 H218       -4.0311  -22.5397  -48.4653 H         1 UNK         0.0600 
    219 H219       -5.1025  -23.6620  -49.3063 H         1 UNK         0.0600 
    220 H220       -5.1867  -23.9592  -52.1823 H         1 UNK         0.3000 
    221 H221       -7.3954  -22.3884  -53.0906 H         1 UNK         0.0600 
    222 H222       -6.2137  -25.0072  -54.1634 H         1 UNK         0.0600 
    223 H223       -7.4707  -24.8627  -52.9338 H         1 UNK         0.0600 
    224 H224       -7.7930  -24.3545  -54.5835 H         1 UNK         0.0600 
    225 H225       -4.1011  -22.7326  -54.3083 H         1 UNK         0.3000 
    226 H226       -4.7441  -21.6465  -56.9750 H         1 UNK         0.0600 
    227 H227       -2.3180  -21.8885  -57.3644 H         1 UNK         0.0600 
    228 H228       -2.0519  -22.3445  -55.6883 H         1 UNK         0.0600 
    229 H229       -2.9846  -23.3949  -56.7530 H         1 UNK         0.0600 
    230 H230       -3.0660  -20.6709  -53.9367 H         1 UNK         0.3000 
    231 H231       -3.8061  -17.9371  -54.1866 H         1 UNK         0.0600 
    232 H232       -0.8558  -18.6868  -54.6798 H         1 UNK         0.0600 
    233 H233       -1.3967  -17.0578  -54.3081 H         1 UNK         0.0600 
    234 H234       -1.9036  -17.8220  -55.8015 H         1 UNK         0.0600 
    235 H235       -2.6283  -17.8408  -50.7152 H         1 UNK         0.3000 
    236 H236       -3.0436  -16.0510  -52.9756 H         1 UNK         0.0600 
    237 H237       -1.8317  -15.3604  -50.8979 H         1 UNK         0.0600 
    238 H238       -3.2581  -14.3743  -51.1831 H         1 UNK         0.0600 
    239 H239       -3.2988  -15.6335  -49.9588 H         1 UNK         0.0600 
    240 H240       -5.0262  -18.0630  -50.8994 H         1 UNK         0.3000 
    241 H241       -7.4745  -16.5689  -51.1616 H         1 UNK         0.0600 
    242 H242       -7.3946  -19.3691  -54.2124 H         1 UNK         0.3800 
    243 H243       -6.2809  -19.5685  -52.8763 H         1 UNK         0.3800 
    244 H244       -7.0197  -19.4597  -50.2776 H         1 UNK         0.0800 
    245 H245       -8.5480  -18.6332  -50.2142 H         1 UNK         0.0800 
    246 H246       -5.7226  -19.7563  -48.4566 H         1 UNK         0.0800 
    247 H247       -6.0198  -19.1029  -46.8730 H         1 UNK         0.0800 
@<TRIPOS>BOND
     1    1    2 1    
     2    1  127 1    
     3    1  128 1    
     4    1  129 1    
     5    2    3 2    
     6    2    4 am   BACKBONE|DICT|INTERRES
     7    4    5 1    
     8    4  130 1    
     9    5    6 1    
    10    5   65 1    
    11    5  131 1    
    12    6    7 1    
    13    6  132 1    
    14    6  133 1    
    15    7    8 1    
    16    8    9 1    
    17    8  134 1    
    18    8  135 1    
    19    9   10 ar   
    20    9   14 ar   
    21   10   11 ar   
    22   10  136 1    
    23   11   12 ar   
    24   11  126 1    
    25   12   13 ar   
    26   12  137 1    
    27   13   14 ar   
    28   13   15 1    
    29   14  138 1    
    30   15   16 1    
    31   15  139 1    
    32   15  140 1    
    33   16   17 1    
    34   17   18 1    
    35   17  141 1    
    36   17  142 1    
    37   18   19 1    
    38   18   67 1    
    39   18  143 1    
    40   19   20 am   BACKBONE|DICT|INTERRES
    41   19  144 1    
    42   20   21 2    
    43   20   22 1    
    44   22   23 1    
    45   22   24 1    
    46   22  145 1    
    47   23  146 1    
    48   23  147 1    
    49   23  148 1    
    50   24   25 am   BACKBONE|DICT|INTERRES
    51   24  149 1    
    52   25   26 2    
    53   25   27 1    
    54   27   28 1    
    55   27   29 1    
    56   27  150 1    
    57   28  151 1    
    58   28  152 1    
    59   28  153 1    
    60   29   30 am   BACKBONE|DICT|INTERRES
    61   29  154 1    
    62   30   31 2    
    63   30   32 1    
    64   32   33 1    
    65   32   34 1    
    66   32  155 1    
    67   33  156 1    
    68   33  157 1    
    69   33  158 1    
    70   34   35 am   BACKBONE|DICT|INTERRES
    71   34  159 1    
    72   35   36 2    
    73   35   37 1    
    74   37   38 1    
    75   37   39 1    
    76   37  160 1    
    77   38  161 1    
    78   38  162 1    
    79   38  163 1    
    80   39   40 am   BACKBONE|DICT|INTERRES
    81   39  164 1    
    82   40   41 2    
    83   40   42 1    
    84   42   43 1    
    85   42   44 1    
    86   42  165 1    
    87   43  166 1    
    88   43  167 1    
    89   43  168 1    
    90   44   45 am   BACKBONE|DICT|INTERRES
    91   44  169 1    
    92   45   46 2    
    93   45   47 1    
    94   47   48 1    
    95   47   49 1    
    96   47  170 1    
    97   48  171 1    
    98   48  172 1    
    99   48  173 1    
   100   49   50 am   BACKBONE|DICT|INTERRES
   101   49  174 1    
   102   50   51 2    
   103   50   52 1    
   104   52   53 1    
   105   52   54 1    
   106   52  175 1    
   107   53  176 1    
   108   53  177 1    
   109   53  178 1    
   110   54   55 am   BACKBONE|DICT|INTERRES
   111   54  179 1    
   112   55   56 2    
   113   55   57 1    
   114   57   58 1    
   115   57   59 1    
   116   57  180 1    
   117   58  181 1    
   118   58  182 1    
   119   58  183 1    
   120   59   60 am   BACKBONE|DICT|INTERRES
   121   59  184 1    
   122   60   61 2    
   123   60   62 1    
   124   62   63 1    
   125   62   64 1    
   126   62  185 1    
   127   63  186 1    
   128   63  187 1    
   129   63  188 1    
   130   64   65 am   BACKBONE|DICT|INTERRES
   131   64  189 1    
   132   65   66 2    
   133   67   68 2    
   134   67   69 am   BACKBONE|DICT|INTERRES
   135   69   70 1    
   136   69  190 1    
   137   70   71 1    
   138   70   72 1    
   139   70  191 1    
   140   71  192 1    
   141   71  193 1    
   142   71  194 1    
   143   72   73 2    
   144   72   74 am   BACKBONE|DICT|INTERRES
   145   74   75 1    
   146   74  195 1    
   147   75   76 1    
   148   75   77 1    
   149   75  196 1    
   150   76  197 1    
   151   76  198 1    
   152   76  199 1    
   153   77   78 2    
   154   77   79 am   BACKBONE|DICT|INTERRES
   155   79   80 1    
   156   79  200 1    
   157   80   81 1    
   158   80   82 1    
   159   80  201 1    
   160   81  202 1    
   161   81  203 1    
   162   81  204 1    
   163   82   83 2    
   164   82   84 am   BACKBONE|DICT|INTERRES
   165   84   85 1    
   166   84  205 1    
   167   85   86 1    
   168   85   87 1    
   169   85  206 1    
   170   86  207 1    
   171   86  208 1    
   172   86  209 1    
   173   87   88 2    
   174   87   89 am   BACKBONE|DICT|INTERRES
   175   89   90 1    
   176   89  210 1    
   177   90   91 1    
   178   90   92 1    
   179   90  211 1    
   180   91  212 1    
   181   91  213 1    
   182   91  214 1    
   183   92   93 2    
   184   92   94 am   BACKBONE|DICT|INTERRES
   185   94   95 1    
   186   94  215 1    
   187   95   96 1    
   188   95   97 1    
   189   95  216 1    
   190   96  217 1    
   191   96  218 1    
   192   96  219 1    
   193   97   98 2    
   194   97   99 am   BACKBONE|DICT|INTERRES
   195   99  100 1    
   196   99  220 1    
   197  100  101 1    
   198  100  102 1    
   199  100  221 1    
   200  101  222 1    
   201  101  223 1    
   202  101  224 1    
   203  102  103 2    
   204  102  104 am   BACKBONE|DICT|INTERRES
   205  104  105 1    
   206  104  225 1    
   207  105  106 1    
   208  105  107 1    
   209  105  226 1    
   210  106  227 1    
   211  106  228 1    
   212  106  229 1    
   213  107  108 2    
   214  107  109 am   BACKBONE|DICT|INTERRES
   215  109  110 1    
   216  109  230 1    
   217  110  111 1    
   218  110  112 1    
   219  110  231 1    
   220  111  232 1    
   221  111  233 1    
   222  111  234 1    
   223  112  113 2    
   224  112  114 am   BACKBONE|DICT|INTERRES
   225  114  115 1    
   226  114  235 1    
   227  115  116 1    
   228  115  117 1    
   229  115  236 1    
   230  116  237 1    
   231  116  238 1    
   232  116  239 1    
   233  117  118 2    
   234  117  119 am   BACKBONE|DICT|INTERRES
   235  119  120 1    
   236  119  240 1    
   237  120  121 1    
   238  120  124 1    
   239  120  241 1    
   240  121  122 am   BACKBONE|DICT|INTERRES
   241  121  123 2    
   242  122  242 1    
   243  122  243 1    
   244  124  125 1    
   245  124  244 1    
   246  124  245 1    
   247  125  126 1    
   248  126  246 1    
   249  126  247 1    
@<TRIPOS>SUBSTRUCTURE
     1 UNK         1 GROUP             0       ****    0 ROOT    
