@<TRIPOS>MOLECULE
3R540
247   249    1
SMALL
USER_CHARGES


@<TRIPOS>ATOM
      1 CA         -6.6377  -19.8716  -45.7151 C.3       0 UNK        -0.1800 
      2 C          -5.7254  -18.6565  -45.7742 C.2       0 UNK         0.5000 
      3 O          -5.8381  -17.7596  -44.9375 O.2       0 UNK        -0.5000 
      4 N          -4.8312  -18.6174  -46.7684 N.am      1 UNK        -0.5000 
      5 CA         -3.8905  -17.5283  -47.0386 C.3       1 UNK         0.1400 
      6 C6         -3.4139  -17.5628  -48.5109 C.3       23 UNK        -0.0398 
      7 S7         -2.8926  -15.9251  -49.1136 S.3       23 UNK        -0.2404 
      8 C8         -2.4806  -16.3218  -50.8480 C.3       23 UNK        -0.0205 
      9 C9         -1.2155  -17.1543  -51.0713 C.ar      23 UNK        -0.0193 
     10 C10        -0.9962  -17.6867  -52.3463 C.ar      23 UNK        -0.1150 
     11 C11         0.1559  -18.4256  -52.6277 C.ar      23 UNK        -0.0193 
     12 C12         1.0947  -18.6447  -51.6168 C.ar      23 UNK        -0.1150 
     13 C13         0.8935  -18.1244  -50.3363 C.ar      23 UNK        -0.0193 
     14 C14        -0.2569  -17.3755  -50.0711 C.ar      23 UNK        -0.1150 
     15 C15         1.9357  -18.3504  -49.2499 C.3       23 UNK        -0.0205 
     16 S16         1.8984  -20.0519  -48.6034 S.3       23 UNK        -0.2404 
     17 C17         0.3654  -20.0124  -47.6206 C.3       23 UNK        -0.0398 
     18 CA         -0.0706  -21.4166  -47.1498 C.3       11 UNK         0.1400 
     19 N           0.9252  -22.0680  -46.2938 N.am      11 UNK        -0.5000 
     20 C           0.9320  -23.3748  -45.9969 C.2       10 UNK         0.5000 
     21 O           0.1060  -24.1777  -46.4273 O.2       10 UNK        -0.5000 
     22 CA          2.0116  -23.8551  -45.0104 C.3       10 UNK         0.1400 
     23 CB          3.3515  -24.0659  -45.7308 C.3       10 UNK        -0.1800 
     24 N           2.1969  -22.9245  -43.8971 N.am      10 UNK        -0.5000 
     25 C           1.2619  -22.6506  -42.9762 C.2       9 UNK         0.5000 
     26 O           0.1695  -23.2148  -42.9263 O.2       9 UNK        -0.5000 
     27 CA          1.5785  -21.5190  -41.9806 C.3       9 UNK         0.1400 
     28 CB          2.2479  -22.0773  -40.7171 C.3       9 UNK        -0.1800 
     29 N           2.4241  -20.4666  -42.5491 N.am      9 UNK        -0.5000 
     30 C           2.0900  -19.6775  -43.5781 C.2       8 UNK         0.5000 
     31 O           1.0154  -19.7676  -44.1749 O.2       8 UNK        -0.5000 
     32 CA          3.1342  -18.6186  -43.9900 C.3       8 UNK         0.1400 
     33 CB          2.7160  -17.8335  -45.2428 C.3       8 UNK        -0.1800 
     34 N           3.3805  -17.6787  -42.8972 N.am      8 UNK        -0.5000 
     35 C           4.1661  -17.9205  -41.8365 C.2       7 UNK         0.5000 
     36 O           4.8377  -18.9459  -41.7111 O.2       7 UNK        -0.5000 
     37 CA          4.1560  -16.8803  -40.7016 C.3       7 UNK         0.1400 
     38 CB          5.2701  -15.8444  -40.8995 C.3       7 UNK        -0.1800 
     39 N           2.8582  -16.2118  -40.5889 N.am      7 UNK        -0.5000 
     40 C           1.7536  -16.8124  -40.1212 C.2       6 UNK         0.5000 
     41 O           1.7591  -17.9437  -39.6330 O.2       6 UNK        -0.5000 
     42 CA          0.4142  -16.0637  -40.2691 C.3       6 UNK         0.1400 
     43 CB         -0.5722  -16.3604  -39.1202 C.3       6 UNK        -0.1800 
     44 N           0.5401  -14.6231  -40.5062 N.am      6 UNK        -0.5000 
     45 C           1.0042  -13.6917  -39.6607 C.2       5 UNK         0.5000 
     46 O           1.3957  -13.9310  -38.5172 O.2       5 UNK        -0.5000 
     47 CA          1.0501  -12.2533  -40.2199 C.3       5 UNK         0.1400 
     48 CB          1.7758  -11.2602  -39.2875 C.3       5 UNK        -0.1800 
     49 N           1.6091  -12.1994  -41.5774 N.am      5 UNK        -0.5000 
     50 C           2.8332  -12.5954  -41.9607 C.2       4 UNK         0.5000 
     51 O           3.6819  -13.0436  -41.1904 O.2       4 UNK        -0.5000 
     52 CA          3.1265  -12.5011  -43.4730 C.3       4 UNK         0.1400 
     53 CB          4.4555  -13.1676  -43.8868 C.3       4 UNK        -0.1800 
     54 N           2.0225  -13.0113  -44.2939 N.am      4 UNK        -0.5000 
     55 C           1.4996  -14.2458  -44.2627 C.2       3 UNK         0.5000 
     56 O           1.8879  -15.1480  -43.5126 O.2       3 UNK        -0.5000 
     57 CA          0.3500  -14.4936  -45.2588 C.3       3 UNK         0.1400 
     58 CB          0.8919  -14.7359  -46.6774 C.3       3 UNK        -0.1800 
     59 N          -0.5000  -15.6208  -44.8886 N.am      3 UNK        -0.5000 
     60 C          -1.2663  -15.7086  -43.7970 C.2       2 UNK         0.5000 
     61 O          -1.3515  -14.8162  -42.9500 O.2       2 UNK        -0.5000 
     62 CA         -2.0914  -17.0073  -43.6609 C.3       2 UNK         0.1400 
     63 CB         -2.8904  -17.0777  -42.3469 C.3       2 UNK        -0.1800 
     64 N          -3.0294  -17.1771  -44.7708 N.am      2 UNK        -0.5000 
     65 C          -2.7218  -17.5157  -46.0276 C.2       1 UNK         0.5000 
     66 O          -1.5774  -17.7984  -46.3854 O.2       1 UNK        -0.5000 
     67 C          -1.4480  -21.3550  -46.4648 C.2       11 UNK         0.5000 
     68 O          -2.4594  -21.5037  -47.1454 O.2       11 UNK        -0.5000 
     69 N          -1.4717  -21.1885  -45.1340 N.am      12 UNK        -0.5000 
     70 CA         -2.6873  -21.2782  -44.3252 C.3       12 UNK         0.1400 
     71 CB         -2.3924  -20.8435  -42.8809 C.3       12 UNK        -0.1800 
     72 C          -3.2923  -22.6952  -44.3595 C.2       12 UNK         0.5000 
     73 O          -4.4898  -22.8385  -44.6050 O.2       12 UNK        -0.5000 
     74 N          -2.4456  -23.7134  -44.1470 N.am      13 UNK        -0.5000 
     75 CA         -2.8168  -25.1299  -44.1475 C.3       13 UNK         0.1400 
     76 CB         -1.6343  -25.9654  -43.6340 C.3       13 UNK        -0.1800 
     77 C          -3.2856  -25.6400  -45.5231 C.2       13 UNK         0.5000 
     78 O          -4.2739  -26.3709  -45.5953 O.2       13 UNK        -0.5000 
     79 N          -2.5846  -25.2323  -46.5892 N.am      14 UNK        -0.5000 
     80 CA         -2.8951  -25.5818  -47.9787 C.3       14 UNK         0.1400 
     81 CB         -1.6153  -25.4371  -48.8186 C.3       14 UNK        -0.1800 
     82 C          -4.0285  -24.7344  -48.5918 C.2       14 UNK         0.5000 
     83 O          -4.3961  -24.9692  -49.7440 O.2       14 UNK        -0.5000 
     84 N          -4.5207  -23.7334  -47.8494 N.am      15 UNK        -0.5000 
     85 CA         -5.4622  -22.6722  -48.2233 C.3       15 UNK         0.1400 
     86 CB         -6.8089  -23.2253  -48.7253 C.3       15 UNK        -0.1800 
     87 C          -4.8652  -21.6472  -49.2052 C.2       15 UNK         0.5000 
     88 O          -4.9887  -20.4473  -48.9585 O.2       15 UNK        -0.5000 
     89 N          -4.2112  -22.1365  -50.2682 N.am      16 UNK        -0.5000 
     90 CA         -3.3681  -21.4577  -51.2618 C.3       16 UNK         0.1400 
     91 CB         -2.1064  -20.8839  -50.5983 C.3       16 UNK        -0.1800 
     92 C          -4.0709  -20.4073  -52.1445 C.2       16 UNK         0.5000 
     93 O          -3.8603  -20.4099  -53.3559 O.2       16 UNK        -0.5000 
     94 N          -4.9376  -19.5704  -51.5604 N.am      17 UNK        -0.5000 
     95 CA         -5.7456  -18.5585  -52.2501 C.3       17 UNK         0.1400 
     96 CB         -6.5315  -17.7378  -51.2164 C.3       17 UNK        -0.1800 
     97 C          -6.6993  -19.1535  -53.3036 C.2       17 UNK         0.5000 
     98 O          -6.9654  -18.5089  -54.3178 O.2       17 UNK        -0.5000 
     99 N          -7.1419  -20.3981  -53.0759 N.am      18 UNK        -0.5000 
    100 CA        -7.9308  -21.2028  -54.0107 C.3       18 UNK         0.1400 
    101 CB        -8.4023  -22.4742  -53.2881 C.3       18 UNK        -0.1800 
    102 C         -7.1741  -21.5677  -55.3061 C.2       18 UNK         0.5000 
    103 O         -7.8174  -21.8293  -56.3229 O.2       18 UNK        -0.5000 
    104 N         -5.8343  -21.5633  -55.2553 N.am      19 UNK        -0.5000 
    105 CA        -4.9452  -21.7865  -56.3956 C.3       19 UNK         0.1400 
    106 CB        -3.7791  -22.6820  -55.9444 C.3       19 UNK        -0.1800 
    107 C         -4.4295  -20.4625  -56.9973 C.2       19 UNK         0.5000 
    108 O         -3.6147  -20.5068  -57.9205 O.2       19 UNK        -0.5000 
    109 N         -4.9013  -19.3169  -56.4781 N.am      20 UNK        -0.5000 
    110 CA        -4.5765  -17.9450  -56.8752 C.3       20 UNK         0.1400 
    111 CB        -5.1909  -17.6251  -58.2560 C.3       20 UNK        -0.1800 
    112 C         -3.0650  -17.6533  -56.7843 C.2       20 UNK         0.5000 
    113 O         -2.5638  -17.3946  -55.6904 O.2       20 UNK        -0.5000 
    114 N         -2.3707  -17.7059  -57.9281 N.am      21 UNK        -0.5000 
    115 CA        -0.9231  -17.5292  -58.0494 C.3       21 UNK         0.1400 
    116 CB        -0.6013  -17.1358  -59.5003 C.3       21 UNK        -0.1800 
    117 C         -0.1109  -18.7736  -57.6319 C.2       21 UNK         0.5000 
    118 O          1.1123  -18.6755  -57.5294 O.2       21 UNK        -0.5000 
    119 N         -0.7871  -19.9101  -57.4102 N.am      22 UNK        -0.5000 
    120 CA        -0.2150  -21.2190  -57.0433 C.3       22 UNK         0.1400 
    121 C          0.5423  -21.9349  -58.2047 C.2       22 UNK         0.5000 
    122 N          0.3795  -21.5227  -59.4563 N.am      22 UNK        -0.7600 
    123 O          1.2669  -22.9007  -57.9792 O.2       22 UNK        -0.5000 
    124 C124        0.6060  -21.2071  -55.7202 C.3       23 UNK        -0.0398 
    125 S125       -0.3251  -20.6110  -54.2646 S.3       23 UNK        -0.2404 
    126 C126        0.4057  -18.9610  -54.0281 C.3       23 UNK        -0.0205 
    127 H127       -7.5576  -19.6338  -45.1807 H         1 UNK         0.0600 
    128 H128       -6.1428  -20.6915  -45.1954 H         1 UNK         0.0600 
    129 H129       -6.9103  -20.2035  -46.7169 H         1 UNK         0.0600 
    130 H130       -4.8010  -19.3837  -47.4376 H         1 UNK         0.3000 
    131 H131       -4.4419  -16.5960  -46.8965 H         1 UNK         0.0600 
    132 H132       -2.6120  -18.2855  -48.6541 H         1 UNK         0.0800 
    133 H133       -4.2261  -17.8926  -49.1564 H         1 UNK         0.0800 
    134 H134       -2.3655  -15.3821  -51.3894 H         1 UNK         0.0800 
    135 H135       -3.3325  -16.8324  -51.2985 H         1 UNK         0.0800 
    136 H136       -1.7219  -17.5192  -53.1305 H         1 UNK         0.1150 
    137 H137        1.9870  -19.2178  -51.8266 H         1 UNK         0.1150 
    138 H138       -0.3920  -16.9668  -49.0804 H         1 UNK         0.1150 
    139 H139        2.9272  -18.1522  -49.6591 H         1 UNK         0.0800 
    140 H140        1.7997  -17.6458  -48.4278 H         1 UNK         0.0800 
    141 H141       -0.4203  -19.5649  -48.2309 H         1 UNK         0.0800 
    142 H142        0.5111  -19.3462  -46.7701 H         1 UNK         0.0800 
    143 H143       -0.1912  -22.0383  -48.0397 H         1 UNK         0.0600 
    144 H144        1.6070  -21.4616  -45.8633 H         1 UNK         0.3000 
    145 H145        1.6877  -24.8143  -44.6010 H         1 UNK         0.0600 
    146 H146        3.2425  -24.7699  -46.5569 H         1 UNK         0.0600 
    147 H147        4.1027  -24.4741  -45.0544 H         1 UNK         0.0600 
    148 H148        3.7408  -23.1341  -46.1430 H         1 UNK         0.0600 
    149 H149        3.0697  -22.4192  -43.8604 H         1 UNK         0.3000 
    150 H150        0.6305  -21.0610  -41.6911 H         1 UNK         0.0600 
    151 H151        1.6297  -22.8487  -40.2557 H         1 UNK         0.0600 
    152 H152        2.3979  -21.2939  -39.9735 H         1 UNK         0.0600 
    153 H153        3.2191  -22.5215  -40.9383 H         1 UNK         0.0600 
    154 H154        3.3157  -20.2970  -42.0964 H         1 UNK         0.3000 
    155 H155        4.0634  -19.1420  -44.2247 H         1 UNK         0.0600 
    156 H156        1.7298  -17.3858  -45.1232 H         1 UNK         0.0600 
    157 H157        2.6783  -18.4878  -46.1126 H         1 UNK         0.0600 
    158 H158        3.4233  -17.0352  -45.4679 H         1 UNK         0.0600 
    159 H159        2.8502  -16.8125  -42.9288 H         1 UNK         0.3000 
    160 H160        4.3534  -17.4073  -39.7657 H         1 UNK         0.0600 
    161 H161        5.1503  -15.2981  -41.8336 H         1 UNK         0.0600 
    162 H162        6.2488  -16.3251  -40.9249 H         1 UNK         0.0600 
    163 H163        5.2842  -15.1193  -40.0855 H         1 UNK         0.0600 
    164 H164        2.7846  -15.2809  -40.9788 H         1 UNK         0.3000 
    165 H165       -0.0201  -16.4679  -41.1818 H         1 UNK         0.0600 
    166 H166       -1.5148  -15.8319  -39.2636 H         1 UNK         0.0600 
    167 H167       -0.1668  -16.0690  -38.1511 H         1 UNK         0.0600 
    168 H168       -0.8047  -17.4247  -39.0683 H         1 UNK         0.0600 
    169 H169        0.2439  -14.3253  -41.4282 H         1 UNK         0.3000 
    170 H170        0.0123  -11.9267  -40.3005 H         1 UNK         0.0600 
    171 H171        1.2859  -11.2100  -38.3145 H         1 UNK         0.0600 
    172 H172        2.8136  -11.5470  -39.1153 H         1 UNK         0.0600 
    173 H173        1.7711  -10.2531  -39.7043 H         1 UNK         0.0600 
    174 H174        0.9791  -11.8682  -42.2945 H         1 UNK         0.3000 
    175 H175        3.2145  -11.4362  -43.6931 H         1 UNK         0.0600 
    176 H176        4.4292  -14.2480  -43.7491 H         1 UNK         0.0600 
    177 H177        4.6771  -12.9753  -44.9364 H         1 UNK         0.0600 
    178 H178        5.2919  -12.7796  -43.3043 H         1 UNK         0.0600 
    179 H179        1.6301  -12.3453  -44.9450 H         1 UNK         0.3000 
    180 H180       -0.2808  -13.6026  -45.2762 H         1 UNK         0.0600 
    181 H181        1.5277  -15.6195  -46.7243 H         1 UNK         0.0600 
    182 H182        1.4852  -13.8889  -47.0237 H         1 UNK         0.0600 
    183 H183        0.0791  -14.8735  -47.3914 H         1 UNK         0.0600 
    184 H184       -0.5295  -16.4029  -45.5357 H         1 UNK         0.3000 
    185 H185       -1.3805  -17.8353  -43.6765 H         1 UNK         0.0600 
    186 H186       -2.2340  -17.0433  -41.4792 H         1 UNK         0.0600 
    187 H187       -3.5947  -16.2493  -42.2601 H         1 UNK         0.0600 
    188 H188       -3.4606  -18.0043  -42.2805 H         1 UNK         0.0600 
    189 H189       -4.0100  -17.0184  -44.5628 H         1 UNK         0.3000 
    190 H190       -0.5997  -21.0020  -44.6521 H         1 UNK         0.3000 
    191 H191       -3.4161  -20.5830  -44.7468 H         1 UNK         0.0600 
    192 H192       -3.3195  -20.7152  -42.3212 H         1 UNK         0.0600 
    193 H193       -1.8562  -19.8976  -42.8480 H         1 UNK         0.0600 
    194 H194       -1.7916  -21.5777  -42.3456 H         1 UNK         0.0600 
    195 H195       -1.4795  -23.5018  -43.9131 H         1 UNK         0.3000 
    196 H196       -3.6470  -25.2547  -43.4493 H         1 UNK         0.0600 
    197 H197       -0.7550  -25.8509  -44.2689 H         1 UNK         0.0600 
    198 H198       -1.3548  -25.6715  -42.6221 H         1 UNK         0.0600 
    199 H199       -1.8859  -27.0263  -43.6072 H         1 UNK         0.0600 
    200 H200       -1.7446  -24.6776  -46.4432 H         1 UNK         0.3000 
    201 H201       -3.2110  -26.6262  -48.0178 H         1 UNK         0.0600 
    202 H202       -1.2711  -24.4022  -48.8476 H         1 UNK         0.0600 
    203 H203       -1.7798  -25.7572  -49.8482 H         1 UNK         0.0600 
    204 H204       -0.8071  -26.0480  -48.4158 H         1 UNK         0.0600 
    205 H205       -4.1007  -23.6060  -46.9381 H         1 UNK         0.3000 
    206 H206       -5.6560  -22.1375  -47.2937 H         1 UNK         0.0600 
    207 H207       -7.2385  -23.9247  -48.0081 H         1 UNK         0.0600 
    208 H208       -7.5290  -22.4179  -48.8635 H         1 UNK         0.0600 
    209 H209       -6.7142  -23.7398  -49.6816 H         1 UNK         0.0600 
    210 H210       -4.2269  -23.1493  -50.3506 H         1 UNK         0.3000 
    211 H211       -3.0376  -22.2454  -51.9407 H         1 UNK         0.0600 
    212 H212       -1.4442  -20.4349  -51.3377 H         1 UNK         0.0600 
    213 H213       -1.5414  -21.6643  -50.0896 H         1 UNK         0.0600 
    214 H214       -2.3490  -20.1182  -49.8657 H         1 UNK         0.0600 
    215 H215       -5.0698  -19.6736  -50.5561 H         1 UNK         0.3000 
    216 H216       -5.0623  -17.8889  -52.7764 H         1 UNK         0.0600 
    217 H217       -7.1445  -18.3751  -50.5781 H         1 UNK         0.0600 
    218 H218       -7.1967  -17.0248  -51.7054 H         1 UNK         0.0600 
    219 H219       -5.8651  -17.1608  -50.5772 H         1 UNK         0.0600 
    220 H220       -6.8650  -20.8475  -52.2159 H         1 UNK         0.3000 
    221 H221       -8.8101  -20.6218  -54.2965 H         1 UNK         0.0600 
    222 H222       -9.0047  -22.2310  -52.4127 H         1 UNK         0.0600 
    223 H223       -7.5608  -23.0852  -52.9583 H         1 UNK         0.0600 
    224 H224       -9.0187  -23.0908  -53.9436 H         1 UNK         0.0600 
    225 H225       -5.3706  -21.2898  -54.3954 H         1 UNK         0.3000 
    226 H226       -5.4809  -22.3121  -57.1884 H         1 UNK         0.0600 
    227 H227       -3.1224  -22.1694  -55.2406 H         1 UNK         0.0600 
    228 H228       -4.1411  -23.5913  -55.4646 H         1 UNK         0.0600 
    229 H229       -3.1738  -22.9891  -56.7976 H         1 UNK         0.0600 
    230 H230       -5.5533  -19.3867  -55.7072 H         1 UNK         0.3000 
    231 H231       -5.0573  -17.2919  -56.1453 H         1 UNK         0.0600 
    232 H232       -4.8341  -18.2956  -59.0383 H         1 UNK         0.0600 
    233 H233       -4.9592  -16.6039  -58.5615 H         1 UNK         0.0600 
    234 H234       -6.2771  -17.7108  -58.2235 H         1 UNK         0.0600 
    235 H235       -2.8652  -17.9609  -58.7710 H         1 UNK         0.3000 
    236 H236       -0.6161  -16.7087  -57.3975 H         1 UNK         0.0600 
    237 H237       -1.1204  -16.2204  -59.7851 H         1 UNK         0.0600 
    238 H238        0.4665  -16.9546  -59.6305 H         1 UNK         0.0600 
    239 H239       -0.8894  -17.9186  -60.2031 H         1 UNK         0.0600 
    240 H240       -1.7926  -19.9082  -57.5533 H         1 UNK         0.3000 
    241 H241       -1.0794  -21.8562  -56.8640 H         1 UNK         0.0600 
    242 H242       -0.2280  -20.7468  -59.6642 H         1 UNK         0.3800 
    243 H243        0.8634  -21.9968  -60.2028 H         1 UNK         0.3800 
    244 H244        1.5255  -20.6345  -55.8420 H         1 UNK         0.0800 
    245 H245        0.9288  -22.2203  -55.4759 H         1 UNK         0.0800 
    246 H246        1.4797  -18.9973  -54.2153 H         1 UNK         0.0800 
    247 H247       -0.0117  -18.2742  -54.7647 H         1 UNK         0.0800 
@<TRIPOS>BOND
     1    1    2 1    
     2    1  127 1    
     3    1  128 1    
     4    1  129 1    
     5    2    3 2    
     6    2    4 am   BACKBONE|DICT|INTERRES
     7    4    5 1    
     8    4  130 1    
     9    5    6 1    
    10    5   65 1    
    11    5  131 1    
    12    6    7 1    
    13    6  132 1    
    14    6  133 1    
    15    7    8 1    
    16    8    9 1    
    17    8  134 1    
    18    8  135 1    
    19    9   10 ar   
    20    9   14 ar   
    21   10   11 ar   
    22   10  136 1    
    23   11   12 ar   
    24   11  126 1    
    25   12   13 ar   
    26   12  137 1    
    27   13   14 ar   
    28   13   15 1    
    29   14  138 1    
    30   15   16 1    
    31   15  139 1    
    32   15  140 1    
    33   16   17 1    
    34   17   18 1    
    35   17  141 1    
    36   17  142 1    
    37   18   19 1    
    38   18   67 1    
    39   18  143 1    
    40   19   20 am   BACKBONE|DICT|INTERRES
    41   19  144 1    
    42   20   21 2    
    43   20   22 1    
    44   22   23 1    
    45   22   24 1    
    46   22  145 1    
    47   23  146 1    
    48   23  147 1    
    49   23  148 1    
    50   24   25 am   BACKBONE|DICT|INTERRES
    51   24  149 1    
    52   25   26 2    
    53   25   27 1    
    54   27   28 1    
    55   27   29 1    
    56   27  150 1    
    57   28  151 1    
    58   28  152 1    
    59   28  153 1    
    60   29   30 am   BACKBONE|DICT|INTERRES
    61   29  154 1    
    62   30   31 2    
    63   30   32 1    
    64   32   33 1    
    65   32   34 1    
    66   32  155 1    
    67   33  156 1    
    68   33  157 1    
    69   33  158 1    
    70   34   35 am   BACKBONE|DICT|INTERRES
    71   34  159 1    
    72   35   36 2    
    73   35   37 1    
    74   37   38 1    
    75   37   39 1    
    76   37  160 1    
    77   38  161 1    
    78   38  162 1    
    79   38  163 1    
    80   39   40 am   BACKBONE|DICT|INTERRES
    81   39  164 1    
    82   40   41 2    
    83   40   42 1    
    84   42   43 1    
    85   42   44 1    
    86   42  165 1    
    87   43  166 1    
    88   43  167 1    
    89   43  168 1    
    90   44   45 am   BACKBONE|DICT|INTERRES
    91   44  169 1    
    92   45   46 2    
    93   45   47 1    
    94   47   48 1    
    95   47   49 1    
    96   47  170 1    
    97   48  171 1    
    98   48  172 1    
    99   48  173 1    
   100   49   50 am   BACKBONE|DICT|INTERRES
   101   49  174 1    
   102   50   51 2    
   103   50   52 1    
   104   52   53 1    
   105   52   54 1    
   106   52  175 1    
   107   53  176 1    
   108   53  177 1    
   109   53  178 1    
   110   54   55 am   BACKBONE|DICT|INTERRES
   111   54  179 1    
   112   55   56 2    
   113   55   57 1    
   114   57   58 1    
   115   57   59 1    
   116   57  180 1    
   117   58  181 1    
   118   58  182 1    
   119   58  183 1    
   120   59   60 am   BACKBONE|DICT|INTERRES
   121   59  184 1    
   122   60   61 2    
   123   60   62 1    
   124   62   63 1    
   125   62   64 1    
   126   62  185 1    
   127   63  186 1    
   128   63  187 1    
   129   63  188 1    
   130   64   65 am   BACKBONE|DICT|INTERRES
   131   64  189 1    
   132   65   66 2    
   133   67   68 2    
   134   67   69 am   BACKBONE|DICT|INTERRES
   135   69   70 1    
   136   69  190 1    
   137   70   71 1    
   138   70   72 1    
   139   70  191 1    
   140   71  192 1    
   141   71  193 1    
   142   71  194 1    
   143   72   73 2    
   144   72   74 am   BACKBONE|DICT|INTERRES
   145   74   75 1    
   146   74  195 1    
   147   75   76 1    
   148   75   77 1    
   149   75  196 1    
   150   76  197 1    
   151   76  198 1    
   152   76  199 1    
   153   77   78 2    
   154   77   79 am   BACKBONE|DICT|INTERRES
   155   79   80 1    
   156   79  200 1    
   157   80   81 1    
   158   80   82 1    
   159   80  201 1    
   160   81  202 1    
   161   81  203 1    
   162   81  204 1    
   163   82   83 2    
   164   82   84 am   BACKBONE|DICT|INTERRES
   165   84   85 1    
   166   84  205 1    
   167   85   86 1    
   168   85   87 1    
   169   85  206 1    
   170   86  207 1    
   171   86  208 1    
   172   86  209 1    
   173   87   88 2    
   174   87   89 am   BACKBONE|DICT|INTERRES
   175   89   90 1    
   176   89  210 1    
   177   90   91 1    
   178   90   92 1    
   179   90  211 1    
   180   91  212 1    
   181   91  213 1    
   182   91  214 1    
   183   92   93 2    
   184   92   94 am   BACKBONE|DICT|INTERRES
   185   94   95 1    
   186   94  215 1    
   187   95   96 1    
   188   95   97 1    
   189   95  216 1    
   190   96  217 1    
   191   96  218 1    
   192   96  219 1    
   193   97   98 2    
   194   97   99 am   BACKBONE|DICT|INTERRES
   195   99  100 1    
   196   99  220 1    
   197  100  101 1    
   198  100  102 1    
   199  100  221 1    
   200  101  222 1    
   201  101  223 1    
   202  101  224 1    
   203  102  103 2    
   204  102  104 am   BACKBONE|DICT|INTERRES
   205  104  105 1    
   206  104  225 1    
   207  105  106 1    
   208  105  107 1    
   209  105  226 1    
   210  106  227 1    
   211  106  228 1    
   212  106  229 1    
   213  107  108 2    
   214  107  109 am   BACKBONE|DICT|INTERRES
   215  109  110 1    
   216  109  230 1    
   217  110  111 1    
   218  110  112 1    
   219  110  231 1    
   220  111  232 1    
   221  111  233 1    
   222  111  234 1    
   223  112  113 2    
   224  112  114 am   BACKBONE|DICT|INTERRES
   225  114  115 1    
   226  114  235 1    
   227  115  116 1    
   228  115  117 1    
   229  115  236 1    
   230  116  237 1    
   231  116  238 1    
   232  116  239 1    
   233  117  118 2    
   234  117  119 am   BACKBONE|DICT|INTERRES
   235  119  120 1    
   236  119  240 1    
   237  120  121 1    
   238  120  124 1    
   239  120  241 1    
   240  121  122 am   BACKBONE|DICT|INTERRES
   241  121  123 2    
   242  122  242 1    
   243  122  243 1    
   244  124  125 1    
   245  124  244 1    
   246  124  245 1    
   247  125  126 1    
   248  126  246 1    
   249  126  247 1    
@<TRIPOS>SUBSTRUCTURE
     1 UNK         1 GROUP             0       ****    0 ROOT    
