@<TRIPOS>MOLECULE
3R540
247   249    1
SMALL
USER_CHARGES


@<TRIPOS>ATOM
      1 CA          4.9412  -18.2144  -46.1144 C.3       0 UNK        -0.1800 
      2 C           4.8697  -16.8206  -46.7203 C.2       0 UNK         0.5000 
      3 O           5.8931  -16.2860  -47.1446 O.2       0 UNK        -0.5000 
      4 N           3.6734  -16.2166  -46.7382 N.am      1 UNK        -0.5000 
      5 CA          3.3314  -14.8964  -47.2989 C.3       1 UNK         0.1400 
      6 C6          3.6573  -14.7734  -48.8149 C.3       23 UNK        -0.0398 
      7 S7          2.3420  -13.9185  -49.7524 S.3       23 UNK        -0.2404 
      8 C8          2.1219  -15.0038  -51.2021 C.3       23 UNK        -0.0205 
      9 C9          1.3357  -16.2631  -50.8671 C.ar      23 UNK        -0.0193 
     10 C10        -0.0635  -16.2549  -50.9122 C.ar      23 UNK        -0.1150 
     11 C11        -0.7904  -17.4076  -50.5951 C.ar      23 UNK        -0.0193 
     12 C12        -0.1053  -18.5663  -50.2262 C.ar      23 UNK        -0.1150 
     13 C13         1.2875  -18.5849  -50.1706 C.ar      23 UNK        -0.0193 
     14 C14         2.0055  -17.4381  -50.5120 C.ar      23 UNK        -0.1150 
     15 C15         2.0022  -19.8290  -49.6806 C.3       23 UNK        -0.0205 
     16 S16         2.1671  -19.7477  -47.8752 S.3       23 UNK        -0.2404 
     17 C17         2.5489  -21.4727  -47.4473 C.3       23 UNK        -0.0398 
     18 CA          1.3599  -22.2800  -46.8706 C.3       11 UNK         0.1400 
     19 N           0.7606  -21.7031  -45.6612 N.am      11 UNK        -0.5000 
     20 C           0.0530  -22.4373  -44.7880 C.2       10 UNK         0.5000 
     21 O          -0.1279  -23.6504  -44.9136 O.2       10 UNK        -0.5000 
     22 CA         -0.5946  -21.7032  -43.6001 C.3       10 UNK         0.1400 
     23 CB          0.4541  -21.3018  -42.5517 C.3       10 UNK        -0.1800 
     24 N          -1.3712  -20.5335  -44.0091 N.am      10 UNK        -0.5000 
     25 C          -2.4649  -20.5855  -44.7835 C.2       9 UNK         0.5000 
     26 O          -2.9402  -21.6305  -45.2260 O.2       9 UNK        -0.5000 
     27 CA         -3.1242  -19.2454  -45.1562 C.3       9 UNK         0.1400 
     28 CB         -4.0863  -18.7862  -44.0510 C.3       9 UNK        -0.1800 
     29 N          -2.1507  -18.1897  -45.4297 N.am      9 UNK        -0.5000 
     30 C          -1.2522  -18.2272  -46.4229 C.2       8 UNK         0.5000 
     31 O          -1.1754  -19.1470  -47.2322 O.2       8 UNK        -0.5000 
     32 CA         -0.2306  -17.0790  -46.4788 C.3       8 UNK         0.1400 
     33 CB         -0.8627  -15.7976  -47.0448 C.3       8 UNK        -0.1800 
     34 N           0.3563  -16.8064  -45.1658 N.am      8 UNK        -0.5000 
     35 C           1.0901  -17.6795  -44.4595 C.2       7 UNK         0.5000 
     36 O           1.4030  -18.8001  -44.8559 O.2       7 UNK        -0.5000 
     37 CA          1.5373  -17.2247  -43.0624 C.3       7 UNK         0.1400 
     38 CB          2.8389  -16.4180  -43.1619 C.3       7 UNK        -0.1800 
     39 N           0.5085  -16.4420  -42.3726 N.am      7 UNK        -0.5000 
     40 C          -0.6465  -16.9638  -41.9359 C.2       6 UNK         0.5000 
     41 O          -0.9575  -18.1474  -42.0778 O.2       6 UNK        -0.5000 
     42 CA         -1.6362  -15.9943  -41.2641 C.3       6 UNK         0.1400 
     43 CB         -1.1335  -15.5674  -39.8762 C.3       6 UNK        -0.1800 
     44 N          -1.9396  -14.8036  -42.0642 N.am      6 UNK        -0.5000 
     45 C          -2.4670  -14.8184  -43.2965 C.2       5 UNK         0.5000 
     46 O          -2.6611  -15.8465  -43.9402 O.2       5 UNK        -0.5000 
     47 CA         -2.8350  -13.4693  -43.9422 C.3       5 UNK         0.1400 
     48 CB         -4.3609  -13.2929  -43.9495 C.3       5 UNK        -0.1800 
     49 N          -2.2354  -12.3072  -43.2807 N.am      5 UNK        -0.5000 
     50 C          -0.9814  -11.8487  -43.4013 C.2       4 UNK         0.5000 
     51 O          -0.6209  -10.8315  -42.8075 O.2       4 UNK        -0.5000 
     52 CA          0.0285  -12.5784  -44.3222 C.3       4 UNK         0.1400 
     53 CB         -0.0427  -12.0215  -45.7531 C.3       4 UNK        -0.1800 
     54 N           1.3999  -12.4476  -43.8307 N.am      4 UNK        -0.5000 
     55 C           1.8409  -12.9330  -42.6630 C.2       3 UNK         0.5000 
     56 O           1.1778  -13.6892  -41.9504 O.2       3 UNK        -0.5000 
     57 CA          3.2770  -12.5490  -42.2756 C.3       3 UNK         0.1400 
     58 CB          3.7375  -13.1581  -40.9386 C.3       3 UNK        -0.1800 
     59 N           4.1759  -12.9698  -43.3459 N.am      3 UNK        -0.5000 
     60 C           5.0743  -12.1911  -43.9574 C.2       2 UNK         0.5000 
     61 O           5.3189  -11.0308  -43.6245 O.2       2 UNK        -0.5000 
     62 CA          5.8144  -12.8059  -45.1618 C.3       2 UNK         0.1400 
     63 CB          7.1654  -13.3876  -44.7183 C.3       2 UNK        -0.1800 
     64 N           5.0653  -13.8465  -45.8755 N.am      2 UNK        -0.5000 
     65 C           3.8956  -13.6877  -46.5101 C.2       1 UNK         0.5000 
     66 O           3.2580  -12.6356  -46.4849 O.2       1 UNK        -0.5000 
     67 C           0.3011  -22.6473  -47.9314 C.2       11 UNK         0.5000 
     68 O           0.4849  -23.6492  -48.6218 O.2       11 UNK        -0.5000 
     69 N          -0.8084  -21.8942  -48.0156 N.am      12 UNK        -0.5000 
     70 CA         -1.9478  -22.2235  -48.8753 C.3       12 UNK         0.1400 
     71 CB         -2.9890  -21.0978  -48.8756 C.3       12 UNK        -0.1800 
     72 C          -2.6292  -23.5425  -48.4825 C.2       12 UNK         0.5000 
     73 O          -2.9891  -24.3144  -49.3693 O.2       12 UNK        -0.5000 
     74 N          -2.7800  -23.7907  -47.1745 N.am      13 UNK        -0.5000 
     75 CA         -3.3156  -25.0390  -46.6316 C.3       13 UNK         0.1400 
     76 CB         -3.5574  -24.8903  -45.1223 C.3       13 UNK        -0.1800 
     77 C          -2.4046  -26.2433  -46.9273 C.2       13 UNK         0.5000 
     78 O          -2.9091  -27.3073  -47.2859 O.2       13 UNK        -0.5000 
     79 N          -1.0832  -26.0420  -46.8180 N.am      14 UNK        -0.5000 
     80 CA         -0.0633  -27.0372  -47.1565 C.3       14 UNK         0.1400 
     81 CB          1.3075  -26.5557  -46.6576 C.3       14 UNK        -0.1800 
     82 C          -0.0193  -27.3565  -48.6642 C.2       14 UNK         0.5000 
     83 O           0.1169  -28.5225  -49.0360 O.2       14 UNK        -0.5000 
     84 N          -0.1596  -26.3202  -49.5019 N.am      15 UNK        -0.5000 
     85 CA         -0.2046  -26.4175  -50.9630 C.3       15 UNK         0.1400 
     86 CB          0.0890  -25.0294  -51.5551 C.3       15 UNK        -0.1800 
     87 C          -1.5441  -26.9495  -51.5124 C.2       15 UNK         0.5000 
     88 O          -1.6015  -27.3209  -52.6852 O.2       15 UNK        -0.5000 
     89 N          -2.5923  -26.9446  -50.6751 N.am      16 UNK        -0.5000 
     90 CA         -3.9968  -27.2252  -50.9949 C.3       16 UNK         0.1400 
     91 CB         -4.1901  -28.6857  -51.4531 C.3       16 UNK        -0.1800 
     92 C          -4.5948  -26.1885  -51.9731 C.2       16 UNK         0.5000 
     93 O          -5.4105  -26.5333  -52.8298 O.2       16 UNK        -0.5000 
     94 N          -4.1748  -24.9265  -51.8145 N.am      17 UNK        -0.5000 
     95 CA         -4.6093  -23.7742  -52.6047 C.3       17 UNK         0.1400 
     96 CB         -3.4474  -22.7699  -52.6894 C.3       17 UNK        -0.1800 
     97 C          -5.8621  -23.0908  -52.0248 C.2       17 UNK         0.5000 
     98 O          -6.4276  -22.2150  -52.6838 O.2       17 UNK        -0.5000 
     99 N          -6.2469  -23.4616  -50.7916 N.am      18 UNK        -0.5000 
    100 CA        -7.4416  -23.0265  -50.0482 C.3       18 UNK         0.1400 
    101 CB        -8.7124  -23.5625  -50.7391 C.3       18 UNK        -0.1800 
    102 C         -7.5252  -21.5040  -49.7910 C.2       18 UNK         0.5000 
    103 O         -8.6088  -20.9876  -49.5157 O.2       18 UNK        -0.5000 
    104 N         -6.3804  -20.8168  -49.9162 N.am      19 UNK        -0.5000 
    105 CA        -6.1936  -19.3612  -49.9145 C.3       19 UNK         0.1400 
    106 CB        -6.5325  -18.7595  -48.5351 C.3       19 UNK        -0.1800 
    107 C         -6.9149  -18.6497  -51.0840 C.2       19 UNK         0.5000 
    108 O         -7.1793  -17.4497  -50.9955 O.2       19 UNK        -0.5000 
    109 N         -7.2196  -19.3979  -52.1543 N.am      20 UNK        -0.5000 
    110 CA        -7.9773  -18.9404  -53.3178 C.3       20 UNK         0.1400 
    111 CB        -9.2825  -19.7474  -53.4073 C.3       20 UNK        -0.1800 
    112 C         -7.1676  -19.0877  -54.6146 C.2       20 UNK         0.5000 
    113 O         -7.2371  -18.2051  -55.4701 O.2       20 UNK        -0.5000 
    114 N         -6.4054  -20.1834  -54.7413 N.am      21 UNK        -0.5000 
    115 CA        -5.6012  -20.5037  -55.9261 C.3       21 UNK         0.1400 
    116 CB        -5.5243  -22.0320  -56.0730 C.3       21 UNK        -0.1800 
    117 C         -4.1920  -19.8724  -55.9053 C.2       21 UNK         0.5000 
    118 O         -3.3949  -20.1566  -56.8008 O.2       21 UNK        -0.5000 
    119 N         -3.9005  -19.0527  -54.8870 N.am      22 UNK        -0.5000 
    120 CA        -2.6437  -18.3123  -54.6912 C.3       22 UNK         0.1400 
    121 C         -2.2717  -17.3941  -55.8908 C.2       22 UNK         0.5000 
    122 N         -1.0030  -17.3448  -56.2740 N.am      22 UNK        -0.7600 
    123 O         -3.1146  -16.6911  -56.4441 O.2       22 UNK        -0.5000 
    124 C124       -2.6871  -17.4718  -53.3908 C.3       23 UNK        -0.0398 
    125 S125       -2.9997  -18.4788  -51.9031 S.3       23 UNK        -0.2404 
    126 C126       -2.3126  -17.4018  -50.6040 C.3       23 UNK        -0.0205 
    127 H127        5.2287  -18.9389  -46.8763 H         1 UNK         0.0600 
    128 H128        3.9849  -18.5256  -45.6953 H         1 UNK         0.0600 
    129 H129        5.6843  -18.2410  -45.3176 H         1 UNK         0.0600 
    130 H130        2.8842  -16.7336  -46.3781 H         1 UNK         0.3000 
    131 H131        2.2489  -14.8437  -47.1776 H         1 UNK         0.0600 
    132 H132        4.6055  -14.2603  -48.9867 H         1 UNK         0.0800 
    133 H133        3.8004  -15.7617  -49.2451 H         1 UNK         0.0800 
    134 H134        1.5971  -14.4452  -51.9786 H         1 UNK         0.0800 
    135 H135        3.0958  -15.2594  -51.6225 H         1 UNK         0.0800 
    136 H136       -0.5843  -15.3474  -51.1833 H         1 UNK         0.1150 
    137 H137       -0.6544  -19.4539  -49.9540 H         1 UNK         0.1150 
    138 H138        3.0847  -17.4602  -50.4756 H         1 UNK         0.1150 
    139 H139        1.4396  -20.7184  -49.9683 H         1 UNK         0.0800 
    140 H140        2.9885  -19.9155  -50.1386 H         1 UNK         0.0800 
    141 H141        3.3492  -21.4466  -46.7067 H         1 UNK         0.0800 
    142 H142        2.9743  -21.9810  -48.3145 H         1 UNK         0.0800 
    143 H143        1.7973  -23.2338  -46.5670 H         1 UNK         0.0600 
    144 H144        0.8746  -20.7038  -45.5169 H         1 UNK         0.3000 
    145 H145       -1.2867  -22.4010  -43.1240 H         1 UNK         0.0600 
    146 H146       -0.0142  -20.8376  -41.6836 H         1 UNK         0.0600 
    147 H147        1.0025  -22.1753  -42.1972 H         1 UNK         0.0600 
    148 H148        1.1839  -20.5997  -42.9528 H         1 UNK         0.0600 
    149 H149       -1.0637  -19.6334  -43.6599 H         1 UNK         0.3000 
    150 H150       -3.7066  -19.4024  -46.0658 H         1 UNK         0.0600 
    151 H151       -4.8293  -19.5548  -43.8343 H         1 UNK         0.0600 
    152 H152       -4.6255  -17.8865  -44.3481 H         1 UNK         0.0600 
    153 H153       -3.5570  -18.5669  -43.1229 H         1 UNK         0.0600 
    154 H154       -2.1805  -17.3791  -44.8151 H         1 UNK         0.3000 
    155 H155        0.5732  -17.3796  -47.1531 H         1 UNK         0.0600 
    156 H156       -1.2741  -15.9767  -48.0383 H         1 UNK         0.0600 
    157 H157       -0.1282  -14.9992  -47.1417 H         1 UNK         0.0600 
    158 H158       -1.6759  -15.4325  -46.4186 H         1 UNK         0.0600 
    159 H159        0.1024  -15.9372  -44.7242 H         1 UNK         0.3000 
    160 H160        1.7382  -18.1185  -42.4678 H         1 UNK         0.0600 
    161 H161        2.7151  -15.5289  -43.7792 H         1 UNK         0.0600 
    162 H162        3.6353  -17.0169  -43.6048 H         1 UNK         0.0600 
    163 H163        3.1818  -16.1091  -42.1759 H         1 UNK         0.0600 
    164 H164        0.7023  -15.4578  -42.1976 H         1 UNK         0.3000 
    165 H165       -2.5738  -16.5371  -41.1266 H         1 UNK         0.0600 
    166 H166       -1.8863  -14.9825  -39.3476 H         1 UNK         0.0600 
    167 H167       -0.9066  -16.4371  -39.2581 H         1 UNK         0.0600 
    168 H168       -0.2266  -14.9652  -39.9408 H         1 UNK         0.0600 
    169 H169       -1.7783  -13.9109  -41.6208 H         1 UNK         0.3000 
    170 H170       -2.5074  -13.5026  -44.9819 H         1 UNK         0.0600 
    171 H171       -4.8496  -14.1223  -44.4630 H         1 UNK         0.0600 
    172 H172       -4.7670  -13.2488  -42.9381 H         1 UNK         0.0600 
    173 H173       -4.6501  -12.3784  -44.4680 H         1 UNK         0.0600 
    174 H174       -2.8604  -11.7948  -42.6759 H         1 UNK         0.3000 
    175 H175       -0.1912  -13.6442  -44.3550 H         1 UNK         0.0600 
    176 H176        0.2829  -10.9814  -45.7949 H         1 UNK         0.0600 
    177 H177        0.5861  -12.5964  -46.4324 H         1 UNK         0.0600 
    178 H178       -1.0578  -12.0599  -46.1487 H         1 UNK         0.0600 
    179 H179        2.0212  -11.8729  -44.3834 H         1 UNK         0.3000 
    180 H180        3.2854  -11.4621  -42.1705 H         1 UNK         0.0600 
    181 H181        3.7522  -14.2467  -40.9682 H         1 UNK         0.0600 
    182 H182        3.0747  -12.8601  -40.1253 H         1 UNK         0.0600 
    183 H183        4.7406  -12.8190  -40.6802 H         1 UNK         0.0600 
    184 H184        4.0349  -13.9005  -43.7094 H         1 UNK         0.3000 
    185 H185        6.0062  -11.9974  -45.8702 H         1 UNK         0.0600 
    186 H186        7.7684  -12.6349  -44.2087 H         1 UNK         0.0600 
    187 H187        7.0355  -14.2254  -44.0318 H         1 UNK         0.0600 
    188 H188        7.7428  -13.7407  -45.5730 H         1 UNK         0.0600 
    189 H189        5.5419  -14.7313  -46.0174 H         1 UNK         0.3000 
    190 H190       -0.8766  -21.0349  -47.4757 H         1 UNK         0.3000 
    191 H191       -1.5667  -22.3329  -49.8922 H         1 UNK         0.0600 
    192 H192       -2.5719  -20.1535  -49.2133 H         1 UNK         0.0600 
    193 H193       -3.8020  -21.3423  -49.5550 H         1 UNK         0.0600 
    194 H194       -3.4192  -20.9406  -47.8871 H         1 UNK         0.0600 
    195 H195       -2.5290  -23.0716  -46.5020 H         1 UNK         0.3000 
    196 H196       -4.2787  -25.2264  -47.1110 H         1 UNK         0.0600 
    197 H197       -3.9608  -25.8105  -44.6980 H         1 UNK         0.0600 
    198 H198       -4.2744  -24.0956  -44.9161 H         1 UNK         0.0600 
    199 H199       -2.6372  -24.6561  -44.5866 H         1 UNK         0.0600 
    200 H200       -0.7563  -25.1422  -46.4870 H         1 UNK         0.3000 
    201 H201       -0.3095  -27.9606  -46.6280 H         1 UNK         0.0600 
    202 H202        1.2905  -26.3569  -45.5857 H         1 UNK         0.0600 
    203 H203        1.6238  -25.6429  -47.1620 H         1 UNK         0.0600 
    204 H204        2.0737  -27.3107  -46.8374 H         1 UNK         0.0600 
    205 H205       -0.1858  -25.3810  -49.1138 H         1 UNK         0.3000 
    206 H206        0.5805  -27.1025  -51.2896 H         1 UNK         0.0600 
    207 H207        1.0610  -24.6585  -51.2292 H         1 UNK         0.0600 
    208 H208        0.1026  -25.0607  -52.6453 H         1 UNK         0.0600 
    209 H209       -0.6649  -24.2997  -51.2572 H         1 UNK         0.0600 
    210 H210       -2.4295  -26.5805  -49.7455 H         1 UNK         0.3000 
    211 H211       -4.5435  -27.1033  -50.0587 H         1 UNK         0.0600 
    212 H212       -3.7383  -28.8714  -52.4276 H         1 UNK         0.0600 
    213 H213       -5.2496  -28.9307  -51.5345 H         1 UNK         0.0600 
    214 H214       -3.7504  -29.3830  -50.7400 H         1 UNK         0.0600 
    215 H215       -3.5460  -24.7321  -51.0371 H         1 UNK         0.3000 
    216 H216       -4.8553  -24.1064  -53.6146 H         1 UNK         0.0600 
    217 H217       -3.7195  -21.8911  -53.2754 H         1 UNK         0.0600 
    218 H218       -2.5747  -23.2185  -53.1644 H         1 UNK         0.0600 
    219 H219       -3.1462  -22.4189  -51.7035 H         1 UNK         0.0600 
    220 H220       -5.6808  -24.1597  -50.3300 H         1 UNK         0.3000 
    221 H221       -7.3760  -23.4937  -49.0646 H         1 UNK         0.0600 
    222 H222       -8.8784  -23.0839  -51.7050 H         1 UNK         0.0600 
    223 H223       -8.6475  -24.6378  -50.9049 H         1 UNK         0.0600 
    224 H224       -9.5988  -23.3839  -50.1293 H         1 UNK         0.0600 
    225 H225       -5.5627  -21.3556  -50.1569 H         1 UNK         0.3000 
    226 H226       -5.1296  -19.1973  -50.0781 H         1 UNK         0.0600 
    227 H227       -6.0018  -19.2800  -47.7377 H         1 UNK         0.0600 
    228 H228       -6.2407  -17.7100  -48.4843 H         1 UNK         0.0600 
    229 H229       -7.5999  -18.8120  -48.3201 H         1 UNK         0.0600 
    230 H230       -6.9567  -20.3778  -52.1497 H         1 UNK         0.3000 
    231 H231       -8.2384  -17.8850  -53.2169 H         1 UNK         0.0600 
    232 H232       -9.0895  -20.8166  -53.5066 H         1 UNK         0.0600 
    233 H233       -9.8776  -19.4373  -54.2672 H         1 UNK         0.0600 
    234 H234       -9.8948  -19.6016  -52.5172 H         1 UNK         0.0600 
    235 H235       -6.4105  -20.8821  -54.0031 H         1 UNK         0.3000 
    236 H236       -6.1078  -20.1158  -56.8123 H         1 UNK         0.0600 
    237 H237       -6.5162  -22.4839  -56.0550 H         1 UNK         0.0600 
    238 H238       -5.0584  -22.3116  -57.0187 H         1 UNK         0.0600 
    239 H239       -4.9349  -22.4808  -55.2762 H         1 UNK         0.0600 
    240 H240       -4.6189  -18.8867  -54.1993 H         1 UNK         0.3000 
    241 H241       -1.8564  -19.0609  -54.5841 H         1 UNK         0.0600 
    242 H242       -0.7466  -16.7415  -57.0402 H         1 UNK         0.3800 
    243 H243       -0.2928  -17.9062  -55.8299 H         1 UNK         0.3800 
    244 H244       -1.7409  -16.9445  -53.2589 H         1 UNK         0.0800 
    245 H245       -3.4603  -16.7039  -53.4534 H         1 UNK         0.0800 
    246 H246       -2.6701  -17.7475  -49.6330 H         1 UNK         0.0800 
    247 H247       -2.7005  -16.3896  -50.7278 H         1 UNK         0.0800 
@<TRIPOS>BOND
     1    1    2 1    
     2    1  127 1    
     3    1  128 1    
     4    1  129 1    
     5    2    3 2    
     6    2    4 am   BACKBONE|DICT|INTERRES
     7    4    5 1    
     8    4  130 1    
     9    5    6 1    
    10    5   65 1    
    11    5  131 1    
    12    6    7 1    
    13    6  132 1    
    14    6  133 1    
    15    7    8 1    
    16    8    9 1    
    17    8  134 1    
    18    8  135 1    
    19    9   10 ar   
    20    9   14 ar   
    21   10   11 ar   
    22   10  136 1    
    23   11   12 ar   
    24   11  126 1    
    25   12   13 ar   
    26   12  137 1    
    27   13   14 ar   
    28   13   15 1    
    29   14  138 1    
    30   15   16 1    
    31   15  139 1    
    32   15  140 1    
    33   16   17 1    
    34   17   18 1    
    35   17  141 1    
    36   17  142 1    
    37   18   19 1    
    38   18   67 1    
    39   18  143 1    
    40   19   20 am   BACKBONE|DICT|INTERRES
    41   19  144 1    
    42   20   21 2    
    43   20   22 1    
    44   22   23 1    
    45   22   24 1    
    46   22  145 1    
    47   23  146 1    
    48   23  147 1    
    49   23  148 1    
    50   24   25 am   BACKBONE|DICT|INTERRES
    51   24  149 1    
    52   25   26 2    
    53   25   27 1    
    54   27   28 1    
    55   27   29 1    
    56   27  150 1    
    57   28  151 1    
    58   28  152 1    
    59   28  153 1    
    60   29   30 am   BACKBONE|DICT|INTERRES
    61   29  154 1    
    62   30   31 2    
    63   30   32 1    
    64   32   33 1    
    65   32   34 1    
    66   32  155 1    
    67   33  156 1    
    68   33  157 1    
    69   33  158 1    
    70   34   35 am   BACKBONE|DICT|INTERRES
    71   34  159 1    
    72   35   36 2    
    73   35   37 1    
    74   37   38 1    
    75   37   39 1    
    76   37  160 1    
    77   38  161 1    
    78   38  162 1    
    79   38  163 1    
    80   39   40 am   BACKBONE|DICT|INTERRES
    81   39  164 1    
    82   40   41 2    
    83   40   42 1    
    84   42   43 1    
    85   42   44 1    
    86   42  165 1    
    87   43  166 1    
    88   43  167 1    
    89   43  168 1    
    90   44   45 am   BACKBONE|DICT|INTERRES
    91   44  169 1    
    92   45   46 2    
    93   45   47 1    
    94   47   48 1    
    95   47   49 1    
    96   47  170 1    
    97   48  171 1    
    98   48  172 1    
    99   48  173 1    
   100   49   50 am   BACKBONE|DICT|INTERRES
   101   49  174 1    
   102   50   51 2    
   103   50   52 1    
   104   52   53 1    
   105   52   54 1    
   106   52  175 1    
   107   53  176 1    
   108   53  177 1    
   109   53  178 1    
   110   54   55 am   BACKBONE|DICT|INTERRES
   111   54  179 1    
   112   55   56 2    
   113   55   57 1    
   114   57   58 1    
   115   57   59 1    
   116   57  180 1    
   117   58  181 1    
   118   58  182 1    
   119   58  183 1    
   120   59   60 am   BACKBONE|DICT|INTERRES
   121   59  184 1    
   122   60   61 2    
   123   60   62 1    
   124   62   63 1    
   125   62   64 1    
   126   62  185 1    
   127   63  186 1    
   128   63  187 1    
   129   63  188 1    
   130   64   65 am   BACKBONE|DICT|INTERRES
   131   64  189 1    
   132   65   66 2    
   133   67   68 2    
   134   67   69 am   BACKBONE|DICT|INTERRES
   135   69   70 1    
   136   69  190 1    
   137   70   71 1    
   138   70   72 1    
   139   70  191 1    
   140   71  192 1    
   141   71  193 1    
   142   71  194 1    
   143   72   73 2    
   144   72   74 am   BACKBONE|DICT|INTERRES
   145   74   75 1    
   146   74  195 1    
   147   75   76 1    
   148   75   77 1    
   149   75  196 1    
   150   76  197 1    
   151   76  198 1    
   152   76  199 1    
   153   77   78 2    
   154   77   79 am   BACKBONE|DICT|INTERRES
   155   79   80 1    
   156   79  200 1    
   157   80   81 1    
   158   80   82 1    
   159   80  201 1    
   160   81  202 1    
   161   81  203 1    
   162   81  204 1    
   163   82   83 2    
   164   82   84 am   BACKBONE|DICT|INTERRES
   165   84   85 1    
   166   84  205 1    
   167   85   86 1    
   168   85   87 1    
   169   85  206 1    
   170   86  207 1    
   171   86  208 1    
   172   86  209 1    
   173   87   88 2    
   174   87   89 am   BACKBONE|DICT|INTERRES
   175   89   90 1    
   176   89  210 1    
   177   90   91 1    
   178   90   92 1    
   179   90  211 1    
   180   91  212 1    
   181   91  213 1    
   182   91  214 1    
   183   92   93 2    
   184   92   94 am   BACKBONE|DICT|INTERRES
   185   94   95 1    
   186   94  215 1    
   187   95   96 1    
   188   95   97 1    
   189   95  216 1    
   190   96  217 1    
   191   96  218 1    
   192   96  219 1    
   193   97   98 2    
   194   97   99 am   BACKBONE|DICT|INTERRES
   195   99  100 1    
   196   99  220 1    
   197  100  101 1    
   198  100  102 1    
   199  100  221 1    
   200  101  222 1    
   201  101  223 1    
   202  101  224 1    
   203  102  103 2    
   204  102  104 am   BACKBONE|DICT|INTERRES
   205  104  105 1    
   206  104  225 1    
   207  105  106 1    
   208  105  107 1    
   209  105  226 1    
   210  106  227 1    
   211  106  228 1    
   212  106  229 1    
   213  107  108 2    
   214  107  109 am   BACKBONE|DICT|INTERRES
   215  109  110 1    
   216  109  230 1    
   217  110  111 1    
   218  110  112 1    
   219  110  231 1    
   220  111  232 1    
   221  111  233 1    
   222  111  234 1    
   223  112  113 2    
   224  112  114 am   BACKBONE|DICT|INTERRES
   225  114  115 1    
   226  114  235 1    
   227  115  116 1    
   228  115  117 1    
   229  115  236 1    
   230  116  237 1    
   231  116  238 1    
   232  116  239 1    
   233  117  118 2    
   234  117  119 am   BACKBONE|DICT|INTERRES
   235  119  120 1    
   236  119  240 1    
   237  120  121 1    
   238  120  124 1    
   239  120  241 1    
   240  121  122 am   BACKBONE|DICT|INTERRES
   241  121  123 2    
   242  122  242 1    
   243  122  243 1    
   244  124  125 1    
   245  124  244 1    
   246  124  245 1    
   247  125  126 1    
   248  126  246 1    
   249  126  247 1    
@<TRIPOS>SUBSTRUCTURE
     1 UNK         1 GROUP             0       ****    0 ROOT    
