@<TRIPOS>MOLECULE
3R540
247   249    1
SMALL
USER_CHARGES


@<TRIPOS>ATOM
      1 CA          4.3492  -16.8460  -45.0874 C.3       0 UNK        -0.1800 
      2 C           4.9081  -16.7155  -46.5028 C.2       0 UNK         0.5000 
      3 O           6.0189  -17.1731  -46.7593 O.2       0 UNK        -0.5000 
      4 N           4.1896  -16.1006  -47.4515 N.am      1 UNK        -0.5000 
      5 CA          2.8725  -15.4714  -47.2962 C.3       1 UNK         0.1400 
      6 C6          1.9855  -15.6908  -48.5471 C.3       23 UNK        -0.0398 
      7 S7          2.6269  -14.9862  -50.1137 S.3       23 UNK        -0.2404 
      8 C8          3.5693  -16.3495  -50.8866 C.3       23 UNK        -0.0205 
      9 C9          2.8460  -17.6889  -50.8578 C.ar      23 UNK        -0.0193 
     10 C10         1.6203  -17.8531  -51.5107 C.ar      23 UNK        -0.1150 
     11 C11         0.9312  -19.0678  -51.4309 C.ar      23 UNK        -0.0193 
     12 C12         1.4912  -20.1290  -50.7156 C.ar      23 UNK        -0.1150 
     13 C13         2.7269  -19.9849  -50.0811 C.ar      23 UNK        -0.0193 
     14 C14         3.4002  -18.7633  -50.1564 C.ar      23 UNK        -0.1150 
     15 C15         3.3263  -21.1488  -49.3071 C.3       23 UNK        -0.0205 
     16 S16         3.5179  -20.7924  -47.5309 S.3       23 UNK        -0.2404 
     17 C17         1.8363  -20.2950  -47.0275 C.3       23 UNK        -0.0398 
     18 CA          0.9356  -21.4979  -46.6418 C.3       11 UNK         0.1400 
     19 N           0.1783  -21.2581  -45.4104 N.am      11 UNK        -0.5000 
     20 C          -0.5085  -22.1950  -44.7420 C.2       10 UNK         0.5000 
     21 O          -0.5545  -23.3775  -45.0803 O.2       10 UNK        -0.5000 
     22 CA         -1.3156  -21.7251  -43.5172 C.3       10 UNK         0.1400 
     23 CB         -0.4107  -21.5652  -42.2866 C.3       10 UNK        -0.1800 
     24 N          -2.0357  -20.4759  -43.7674 N.am      10 UNK        -0.5000 
     25 C          -3.0247  -20.3453  -44.6633 C.2       9 UNK         0.5000 
     26 O          -3.4693  -21.2797  -45.3309 O.2       9 UNK        -0.5000 
     27 CA         -3.5744  -18.9246  -44.8894 C.3       9 UNK         0.1400 
     28 CB         -4.5802  -18.5436  -43.7932 C.3       9 UNK        -0.1800 
     29 N          -2.5195  -17.9123  -44.9642 N.am      9 UNK        -0.5000 
     30 C          -1.5511  -17.8939  -45.8911 C.2       8 UNK         0.5000 
     31 O          -1.4559  -18.7136  -46.8011 O.2       8 UNK        -0.5000 
     32 CA         -0.4698  -16.8128  -45.7517 C.3       8 UNK         0.1400 
     33 CB         -0.9940  -15.4595  -46.2530 C.3       8 UNK        -0.1800 
     34 N           0.0301  -16.6845  -44.3824 N.am      8 UNK        -0.5000 
     35 C           0.6147  -17.6693  -43.6840 C.2       7 UNK         0.5000 
     36 O           0.8561  -18.7823  -44.1444 O.2       7 UNK        -0.5000 
     37 CA          0.9252  -17.3890  -42.2052 C.3       7 UNK         0.1400 
     38 CB          2.2335  -16.5999  -42.0472 C.3       7 UNK        -0.1800 
     39 N          -0.1733  -16.6779  -41.5543 N.am      7 UNK        -0.5000 
     40 C          -1.3785  -17.2141  -41.3118 C.2       6 UNK         0.5000 
     41 O          -1.6713  -18.3841  -41.5612 O.2       6 UNK        -0.5000 
     42 CA         -2.4457  -16.2649  -40.7369 C.3       6 UNK         0.1400 
     43 CB         -2.3093  -16.1556  -39.2111 C.3       6 UNK        -0.1800 
     44 N          -2.3722  -14.9272  -41.3287 N.am      6 UNK        -0.5000 
     45 C          -2.6638  -14.6518  -42.6082 C.2       5 UNK         0.5000 
     46 O          -3.0841  -15.4899  -43.4052 O.2       5 UNK        -0.5000 
     47 CA         -2.3913  -13.2121  -43.0870 C.3       5 UNK         0.1400 
     48 CB         -3.6063  -12.3132  -42.8147 C.3       5 UNK        -0.1800 
     49 N          -1.1983  -12.6210  -42.4713 N.am      5 UNK        -0.5000 
     50 C           0.0486  -13.0718  -42.6595 C.2       4 UNK         0.5000 
     51 O           0.3277  -14.0225  -43.3933 O.2       4 UNK        -0.5000 
     52 CA          1.1546  -12.4024  -41.8352 C.3       4 UNK         0.1400 
     53 CB          1.1250  -12.9533  -40.3931 C.3       4 UNK        -0.1800 
     54 N           2.4437  -12.6766  -42.4672 N.am      4 UNK        -0.5000 
     55 C           3.6243  -12.1637  -42.1010 C.2       3 UNK         0.5000 
     56 O           3.7641  -11.3398  -41.1960 O.2       3 UNK        -0.5000 
     57 CA          4.8659  -12.6515  -42.8713 C.3       3 UNK         0.1400 
     58 CB          5.3334  -14.0145  -42.3359 C.3       3 UNK        -0.1800 
     59 N           4.6752  -12.7437  -44.3199 N.am      3 UNK        -0.5000 
     60 C           4.4686  -11.7009  -45.1373 C.2       2 UNK         0.5000 
     61 O           4.3430  -10.5400  -44.7457 O.2       2 UNK        -0.5000 
     62 CA          4.4321  -11.9905  -46.6520 C.3       2 UNK         0.1400 
     63 CB          5.7567  -11.5707  -47.3084 C.3       2 UNK        -0.1800 
     64 N           4.1737  -13.3954  -46.9786 N.am      2 UNK        -0.5000 
     65 C           2.9713  -13.9816  -46.8968 C.2       1 UNK         0.5000 
     66 O           1.9654  -13.3937  -46.5040 O.2       1 UNK        -0.5000 
     67 C           0.0149  -21.9174  -47.8071 C.2       11 UNK         0.5000 
     68 O           0.3391  -22.8614  -48.5254 O.2       11 UNK        -0.5000 
     69 N          -1.1367  -21.2461  -47.9485 N.am      12 UNK        -0.5000 
     70 CA         -2.1756  -21.5591  -48.9300 C.3       12 UNK         0.1400 
     71 CB         -3.2779  -20.4917  -48.8746 C.3       12 UNK        -0.1800 
     72 C          -2.7740  -22.9619  -48.7282 C.2       12 UNK         0.5000 
     73 O          -2.9462  -23.6940  -49.7028 O.2       12 UNK        -0.5000 
     74 N          -3.0342  -23.3286  -47.4650 N.am      13 UNK        -0.5000 
     75 CA         -3.4963  -24.6585  -47.0680 C.3       13 UNK         0.1400 
     76 CB         -3.9068  -24.6422  -45.5880 C.3       13 UNK        -0.1800 
     77 C          -2.4519  -25.7581  -47.3382 C.2       13 UNK         0.5000 
     78 O          -2.8237  -26.8424  -47.7870 O.2       13 UNK        -0.5000 
     79 N          -1.1694  -25.4532  -47.0914 N.am      14 UNK        -0.5000 
     80 CA         -0.0354  -26.3317  -47.3852 C.3       14 UNK         0.1400 
     81 CB          1.2310  -25.7878  -46.7061 C.3       14 UNK        -0.1800 
     82 C           0.1898  -26.5252  -48.8970 C.2       14 UNK         0.5000 
     83 O           0.4658  -27.6453  -49.3288 O.2       14 UNK        -0.5000 
     84 N           0.0460  -25.4415  -49.6740 N.am      15 UNK        -0.5000 
     85 CA          0.0979  -25.4458  -51.1379 C.3       15 UNK         0.1400 
     86 CB          0.1598  -23.9982  -51.6513 C.3       15 UNK        -0.1800 
     87 C          -1.0882  -26.1952  -51.7742 C.2       15 UNK         0.5000 
     88 O          -0.9242  -26.8017  -52.8331 O.2       15 UNK        -0.5000 
     89 N          -2.2553  -26.1328  -51.1175 N.am      16 UNK        -0.5000 
     90 CA         -3.5279  -26.8133  -51.3892 C.3       16 UNK         0.1400 
     91 CB         -3.3573  -28.3436  -51.3769 C.3       16 UNK        -0.1800 
     92 C          -4.2628  -26.3433  -52.6590 C.2       16 UNK         0.5000 
     93 O          -5.4917  -26.2728  -52.6475 O.2       16 UNK        -0.5000 
     94 N          -3.5170  -26.0082  -53.7193 N.am      17 UNK        -0.5000 
     95 CA         -4.0281  -25.4621  -54.9785 C.3       17 UNK         0.1400 
     96 CB         -2.8949  -25.4503  -56.0151 C.3       17 UNK        -0.1800 
     97 C          -4.6298  -24.0527  -54.8192 C.2       17 UNK         0.5000 
     98 O          -5.5677  -23.7020  -55.5357 O.2       17 UNK        -0.5000 
     99 N          -4.1136  -23.2862  -53.8501 N.am      18 UNK        -0.5000 
    100 CA        -4.5782  -21.9541  -53.4613 C.3       18 UNK         0.1400 
    101 CB        -3.3930  -21.1991  -52.8372 C.3       18 UNK        -0.1800 
    102 C         -5.8004  -22.0230  -52.5186 C.2       18 UNK         0.5000 
    103 O         -5.8272  -21.3500  -51.4880 O.2       18 UNK        -0.5000 
    104 N         -6.7847  -22.8597  -52.8741 N.am      19 UNK        -0.5000 
    105 CA        -7.9760  -23.1516  -52.0749 C.3       19 UNK         0.1400 
    106 CB        -8.7282  -24.3344  -52.7036 C.3       19 UNK        -0.1800 
    107 C         -8.9111  -21.9407  -51.9072 C.2       19 UNK         0.5000 
    108 O         -9.4803  -21.7593  -50.8301 O.2       19 UNK        -0.5000 
    109 N         -9.0441  -21.1341  -52.9689 N.am      20 UNK        -0.5000 
    110 CA        -9.7886  -19.8759  -52.9519 C.3       20 UNK         0.1400 
    111 CB       -10.2191  -19.5112  -54.3825 C.3       20 UNK        -0.1800 
    112 C         -8.9494  -18.7544  -52.3167 C.2       20 UNK         0.5000 
    113 O         -9.3983  -18.1181  -51.3627 O.2       20 UNK        -0.5000 
    114 N         -7.7397  -18.5582  -52.8522 N.am      21 UNK        -0.5000 
    115 CA        -6.7364  -17.5801  -52.4457 C.3       21 UNK         0.1400 
    116 CB        -7.2444  -16.1422  -52.6869 C.3       21 UNK        -0.1800 
    117 C         -5.4615  -17.8405  -53.2639 C.2       21 UNK         0.5000 
    118 O         -5.5017  -18.5981  -54.2386 O.2       21 UNK        -0.5000 
    119 N         -4.3625  -17.1873  -52.8712 N.am      22 UNK        -0.5000 
    120 CA        -3.0762  -17.2001  -53.5929 C.3       22 UNK         0.1400 
    121 C         -3.0316  -16.2740  -54.8454 C.2       22 UNK         0.5000 
    122 N         -4.0290  -15.4345  -55.0966 N.am      22 UNK        -0.7600 
    123 O         -2.0742  -16.3255  -55.6125 O.2       22 UNK        -0.5000 
    124 C124       -1.8855  -16.9021  -52.6448 C.3       23 UNK        -0.0398 
    125 S125       -1.6981  -18.1888  -51.3660 S.3       23 UNK        -0.2404 
    126 C126       -0.4164  -19.2459  -52.1119 C.3       23 UNK        -0.0205 
    127 H127        3.9681  -15.8953  -44.7170 H         1 UNK         0.0600 
    128 H128        3.5441  -17.5808  -45.0657 H         1 UNK         0.0600 
    129 H129        5.1257  -17.1800  -44.3990 H         1 UNK         0.0600 
    130 H130        4.5793  -16.0365  -48.3802 H         1 UNK         0.3000 
    131 H131        2.3500  -15.9547  -46.4711 H         1 UNK         0.0600 
    132 H132        1.0023  -15.2486  -48.3822 H         1 UNK         0.0800 
    133 H133        1.7884  -16.7556  -48.6658 H         1 UNK         0.0800 
    134 H134        3.7763  -16.0846  -51.9242 H         1 UNK         0.0800 
    135 H135        4.5415  -16.4268  -50.3985 H         1 UNK         0.0800 
    136 H136        1.1900  -17.0242  -52.0543 H         1 UNK         0.1150 
    137 H137        0.9628  -21.0695  -50.6498 H         1 UNK         0.1150 
    138 H138        4.3485  -18.6485  -49.6498 H         1 UNK         0.1150 
    139 H139        2.7243  -22.0504  -49.4274 H         1 UNK         0.0800 
    140 H140        4.3062  -21.3826  -49.7249 H         1 UNK         0.0800 
    141 H141        1.3745  -19.6460  -47.7734 H         1 UNK         0.0800 
    142 H142        1.9934  -19.6497  -46.1661 H         1 UNK         0.0800 
    143 H143        1.5783  -22.3543  -46.4264 H         1 UNK         0.0600 
    144 H144        0.2054  -20.3134  -45.0353 H         1 UNK         0.3000 
    145 H145       -2.0553  -22.4966  -43.2933 H         1 UNK         0.0600 
    146 H146       -0.9908  -21.2939  -41.4044 H         1 UNK         0.0600 
    147 H147        0.1091  -22.4972  -42.0615 H         1 UNK         0.0600 
    148 H148        0.3462  -20.7955  -42.4367 H         1 UNK         0.0600 
    149 H149       -1.7480  -19.6645  -43.2313 H         1 UNK         0.3000 
    150 H150       -4.1001  -18.9232  -45.8464 H         1 UNK         0.0600 
    151 H151       -5.3901  -19.2719  -43.7362 H         1 UNK         0.0600 
    152 H152       -5.0301  -17.5709  -43.9928 H         1 UNK         0.0600 
    153 H153       -4.1093  -18.4979  -42.8111 H         1 UNK         0.0600 
    154 H154       -2.5536  -17.1652  -44.2769 H         1 UNK         0.3000 
    155 H155        0.3687  -17.1133  -46.3808 H         1 UNK         0.0600 
    156 H156       -1.8877  -15.1454  -45.7161 H         1 UNK         0.0600 
    157 H157       -1.2546  -15.5119  -47.3107 H         1 UNK         0.0600 
    158 H158       -0.2488  -14.6751  -46.1362 H         1 UNK         0.0600 
    159 H159       -0.0740  -15.7729  -43.9443 H         1 UNK         0.3000 
    160 H160        1.0496  -18.3500  -41.7013 H         1 UNK         0.0600 
    161 H161        2.4455  -16.3901  -40.9987 H         1 UNK         0.0600 
    162 H162        2.2060  -15.6508  -42.5803 H         1 UNK         0.0600 
    163 H163        3.0765  -17.1702  -42.4381 H         1 UNK         0.0600 
    164 H164       -0.0312  -15.6991  -41.3608 H         1 UNK         0.3000 
    165 H165       -3.4267  -16.6876  -40.9643 H         1 UNK         0.0600 
    166 H166       -3.1043  -15.5416  -38.7876 H         1 UNK         0.0600 
    167 H167       -2.3750  -17.1387  -38.7428 H         1 UNK         0.0600 
    168 H168       -1.3542  -15.7163  -38.9203 H         1 UNK         0.0600 
    169 H169       -2.0453  -14.1797  -40.7352 H         1 UNK         0.3000 
    170 H170       -2.2295  -13.2474  -44.1662 H         1 UNK         0.0600 
    171 H171       -4.5048  -12.7208  -43.2800 H         1 UNK         0.0600 
    172 H172       -3.8052  -12.2148  -41.7468 H         1 UNK         0.0600 
    173 H173       -3.4562  -11.3133  -43.2224 H         1 UNK         0.0600 
    174 H174       -1.3517  -11.8403  -41.8491 H         1 UNK         0.3000 
    175 H175        0.9846  -11.3241  -41.8289 H         1 UNK         0.0600 
    176 H176        1.3625  -14.0172  -40.3650 H         1 UNK         0.0600 
    177 H177        1.8374  -12.4383  -39.7493 H         1 UNK         0.0600 
    178 H178        0.1426  -12.8235  -39.9377 H         1 UNK         0.0600 
    179 H179        2.3898  -13.3142  -43.2517 H         1 UNK         0.3000 
    180 H180        5.6654  -11.9297  -42.6908 H         1 UNK         0.0600 
    181 H181        4.5940  -14.7951  -42.5140 H         1 UNK         0.0600 
    182 H182        5.5099  -13.9712  -41.2604 H         1 UNK         0.0600 
    183 H183        6.2677  -14.3241  -42.8046 H         1 UNK         0.0600 
    184 H184        4.7823  -13.6551  -44.7361 H         1 UNK         0.3000 
    185 H185        3.6336  -11.3814  -47.0813 H         1 UNK         0.0600 
    186 H186        5.9719  -10.5183  -47.1186 H         1 UNK         0.0600 
    187 H187        6.5973  -12.1516  -46.9266 H         1 UNK         0.0600 
    188 H188        5.7201  -11.7025  -48.3900 H         1 UNK         0.0600 
    189 H189        4.9570  -13.9395  -47.3102 H         1 UNK         0.3000 
    190 H190       -1.3082  -20.4344  -47.3578 H         1 UNK         0.3000 
    191 H191       -1.7132  -21.5249  -49.9178 H         1 UNK         0.0600 
    192 H192       -3.8037  -20.5007  -47.9201 H         1 UNK         0.0600 
    193 H193       -4.0168  -20.6547  -49.6587 H         1 UNK         0.0600 
    194 H194       -2.8700  -19.4920  -49.0166 H         1 UNK         0.0600 
    195 H195       -2.9091  -22.6481  -46.7220 H         1 UNK         0.3000 
    196 H196       -4.3826  -24.8923  -47.6616 H         1 UNK         0.0600 
    197 H197       -3.0690  -24.3875  -44.9389 H         1 UNK         0.0600 
    198 H198       -4.2803  -25.6181  -45.2755 H         1 UNK         0.0600 
    199 H199       -4.7004  -23.9167  -45.4079 H         1 UNK         0.0600 
    200 H200       -0.9543  -24.5592  -46.6613 H         1 UNK         0.3000 
    201 H201       -0.2523  -27.3114  -46.9546 H         1 UNK         0.0600 
    202 H202        1.5045  -24.8039  -47.0867 H         1 UNK         0.0600 
    203 H203        2.0795  -26.4517  -46.8756 H         1 UNK         0.0600 
    204 H204        1.0944  -25.7025  -45.6280 H         1 UNK         0.0600 
    205 H205       -0.0932  -24.5384  -49.2266 H         1 UNK         0.3000 
    206 H206        1.0139  -25.9559  -51.4423 H         1 UNK         0.0600 
    207 H207        1.0432  -23.4855  -51.2707 H         1 UNK         0.0600 
    208 H208        0.2117  -23.9699  -52.7404 H         1 UNK         0.0600 
    209 H209       -0.7162  -23.4240  -51.3485 H         1 UNK         0.0600 
    210 H210       -2.2917  -25.4976  -50.3265 H         1 UNK         0.3000 
    211 H211       -4.1728  -26.5522  -50.5485 H         1 UNK         0.0600 
    212 H212       -2.7368  -28.6925  -52.2027 H         1 UNK         0.0600 
    213 H213       -4.3233  -28.8427  -51.4624 H         1 UNK         0.0600 
    214 H214       -2.8988  -28.6788  -50.4462 H         1 UNK         0.0600 
    215 H215       -2.5145  -26.1574  -53.6469 H         1 UNK         0.3000 
    216 H216       -4.8193  -26.1226  -55.3392 H         1 UNK         0.0600 
    217 H217       -2.5089  -26.4550  -56.1882 H         1 UNK         0.0600 
    218 H218       -2.0627  -24.8221  -55.6943 H         1 UNK         0.0600 
    219 H219       -3.2462  -25.0675  -56.9743 H         1 UNK         0.0600 
    220 H220       -3.3833  -23.6852  -53.2793 H         1 UNK         0.3000 
    221 H221       -4.8911  -21.4076  -54.3533 H         1 UNK         0.0600 
    222 H222       -3.0097  -21.7154  -51.9571 H         1 UNK         0.0600 
    223 H223       -2.5757  -21.0938  -53.5504 H         1 UNK         0.0600 
    224 H224       -3.6830  -20.1952  -52.5282 H         1 UNK         0.0600 
    225 H225       -6.6786  -23.3694  -53.7428 H         1 UNK         0.3000 
    226 H226       -7.6421  -23.4516  -51.0793 H         1 UNK         0.0600 
    227 H227       -9.0565  -24.1100  -53.7192 H         1 UNK         0.0600 
    228 H228       -8.0999  -25.2244  -52.7434 H         1 UNK         0.0600 
    229 H229       -9.6138  -24.5891  -52.1199 H         1 UNK         0.0600 
    230 H230       -8.5396  -21.3624  -53.8126 H         1 UNK         0.3000 
    231 H231      -10.6937  -20.0021  -52.3536 H         1 UNK         0.0600 
    232 H232      -10.8767  -20.2739  -54.8000 H         1 UNK         0.0600 
    233 H233       -9.3654  -19.4037  -55.0526 H         1 UNK         0.0600 
    234 H234      -10.7673  -18.5683  -54.3951 H         1 UNK         0.0600 
    235 H235       -7.4325  -19.1365  -53.6244 H         1 UNK         0.3000 
    236 H236       -6.5090  -17.7271  -51.3882 H         1 UNK         0.0600 
    237 H237       -6.4863  -15.4034  -52.4251 H         1 UNK         0.0600 
    238 H238       -7.5119  -15.9833  -53.7323 H         1 UNK         0.0600 
    239 H239       -8.1214  -15.9158  -52.0814 H         1 UNK         0.0600 
    240 H240       -4.4042  -16.5942  -52.0555 H         1 UNK         0.3000 
    241 H241       -2.9281  -18.2084  -53.9849 H         1 UNK         0.0600 
    242 H242       -3.9865  -14.8465  -55.9145 H         1 UNK         0.3800 
    243 H243       -4.8243  -15.3799  -54.4821 H         1 UNK         0.3800 
    244 H244       -0.9497  -16.8145  -53.1991 H         1 UNK         0.0800 
    245 H245       -2.0268  -15.9408  -52.1487 H         1 UNK         0.0800 
    246 H246       -0.7437  -20.2826  -52.0279 H         1 UNK         0.0800 
    247 H247       -0.3181  -19.0505  -53.1803 H         1 UNK         0.0800 
@<TRIPOS>BOND
     1    1    2 1    
     2    1  127 1    
     3    1  128 1    
     4    1  129 1    
     5    2    3 2    
     6    2    4 am   BACKBONE|DICT|INTERRES
     7    4    5 1    
     8    4  130 1    
     9    5    6 1    
    10    5   65 1    
    11    5  131 1    
    12    6    7 1    
    13    6  132 1    
    14    6  133 1    
    15    7    8 1    
    16    8    9 1    
    17    8  134 1    
    18    8  135 1    
    19    9   10 ar   
    20    9   14 ar   
    21   10   11 ar   
    22   10  136 1    
    23   11   12 ar   
    24   11  126 1    
    25   12   13 ar   
    26   12  137 1    
    27   13   14 ar   
    28   13   15 1    
    29   14  138 1    
    30   15   16 1    
    31   15  139 1    
    32   15  140 1    
    33   16   17 1    
    34   17   18 1    
    35   17  141 1    
    36   17  142 1    
    37   18   19 1    
    38   18   67 1    
    39   18  143 1    
    40   19   20 am   BACKBONE|DICT|INTERRES
    41   19  144 1    
    42   20   21 2    
    43   20   22 1    
    44   22   23 1    
    45   22   24 1    
    46   22  145 1    
    47   23  146 1    
    48   23  147 1    
    49   23  148 1    
    50   24   25 am   BACKBONE|DICT|INTERRES
    51   24  149 1    
    52   25   26 2    
    53   25   27 1    
    54   27   28 1    
    55   27   29 1    
    56   27  150 1    
    57   28  151 1    
    58   28  152 1    
    59   28  153 1    
    60   29   30 am   BACKBONE|DICT|INTERRES
    61   29  154 1    
    62   30   31 2    
    63   30   32 1    
    64   32   33 1    
    65   32   34 1    
    66   32  155 1    
    67   33  156 1    
    68   33  157 1    
    69   33  158 1    
    70   34   35 am   BACKBONE|DICT|INTERRES
    71   34  159 1    
    72   35   36 2    
    73   35   37 1    
    74   37   38 1    
    75   37   39 1    
    76   37  160 1    
    77   38  161 1    
    78   38  162 1    
    79   38  163 1    
    80   39   40 am   BACKBONE|DICT|INTERRES
    81   39  164 1    
    82   40   41 2    
    83   40   42 1    
    84   42   43 1    
    85   42   44 1    
    86   42  165 1    
    87   43  166 1    
    88   43  167 1    
    89   43  168 1    
    90   44   45 am   BACKBONE|DICT|INTERRES
    91   44  169 1    
    92   45   46 2    
    93   45   47 1    
    94   47   48 1    
    95   47   49 1    
    96   47  170 1    
    97   48  171 1    
    98   48  172 1    
    99   48  173 1    
   100   49   50 am   BACKBONE|DICT|INTERRES
   101   49  174 1    
   102   50   51 2    
   103   50   52 1    
   104   52   53 1    
   105   52   54 1    
   106   52  175 1    
   107   53  176 1    
   108   53  177 1    
   109   53  178 1    
   110   54   55 am   BACKBONE|DICT|INTERRES
   111   54  179 1    
   112   55   56 2    
   113   55   57 1    
   114   57   58 1    
   115   57   59 1    
   116   57  180 1    
   117   58  181 1    
   118   58  182 1    
   119   58  183 1    
   120   59   60 am   BACKBONE|DICT|INTERRES
   121   59  184 1    
   122   60   61 2    
   123   60   62 1    
   124   62   63 1    
   125   62   64 1    
   126   62  185 1    
   127   63  186 1    
   128   63  187 1    
   129   63  188 1    
   130   64   65 am   BACKBONE|DICT|INTERRES
   131   64  189 1    
   132   65   66 2    
   133   67   68 2    
   134   67   69 am   BACKBONE|DICT|INTERRES
   135   69   70 1    
   136   69  190 1    
   137   70   71 1    
   138   70   72 1    
   139   70  191 1    
   140   71  192 1    
   141   71  193 1    
   142   71  194 1    
   143   72   73 2    
   144   72   74 am   BACKBONE|DICT|INTERRES
   145   74   75 1    
   146   74  195 1    
   147   75   76 1    
   148   75   77 1    
   149   75  196 1    
   150   76  197 1    
   151   76  198 1    
   152   76  199 1    
   153   77   78 2    
   154   77   79 am   BACKBONE|DICT|INTERRES
   155   79   80 1    
   156   79  200 1    
   157   80   81 1    
   158   80   82 1    
   159   80  201 1    
   160   81  202 1    
   161   81  203 1    
   162   81  204 1    
   163   82   83 2    
   164   82   84 am   BACKBONE|DICT|INTERRES
   165   84   85 1    
   166   84  205 1    
   167   85   86 1    
   168   85   87 1    
   169   85  206 1    
   170   86  207 1    
   171   86  208 1    
   172   86  209 1    
   173   87   88 2    
   174   87   89 am   BACKBONE|DICT|INTERRES
   175   89   90 1    
   176   89  210 1    
   177   90   91 1    
   178   90   92 1    
   179   90  211 1    
   180   91  212 1    
   181   91  213 1    
   182   91  214 1    
   183   92   93 2    
   184   92   94 am   BACKBONE|DICT|INTERRES
   185   94   95 1    
   186   94  215 1    
   187   95   96 1    
   188   95   97 1    
   189   95  216 1    
   190   96  217 1    
   191   96  218 1    
   192   96  219 1    
   193   97   98 2    
   194   97   99 am   BACKBONE|DICT|INTERRES
   195   99  100 1    
   196   99  220 1    
   197  100  101 1    
   198  100  102 1    
   199  100  221 1    
   200  101  222 1    
   201  101  223 1    
   202  101  224 1    
   203  102  103 2    
   204  102  104 am   BACKBONE|DICT|INTERRES
   205  104  105 1    
   206  104  225 1    
   207  105  106 1    
   208  105  107 1    
   209  105  226 1    
   210  106  227 1    
   211  106  228 1    
   212  106  229 1    
   213  107  108 2    
   214  107  109 am   BACKBONE|DICT|INTERRES
   215  109  110 1    
   216  109  230 1    
   217  110  111 1    
   218  110  112 1    
   219  110  231 1    
   220  111  232 1    
   221  111  233 1    
   222  111  234 1    
   223  112  113 2    
   224  112  114 am   BACKBONE|DICT|INTERRES
   225  114  115 1    
   226  114  235 1    
   227  115  116 1    
   228  115  117 1    
   229  115  236 1    
   230  116  237 1    
   231  116  238 1    
   232  116  239 1    
   233  117  118 2    
   234  117  119 am   BACKBONE|DICT|INTERRES
   235  119  120 1    
   236  119  240 1    
   237  120  121 1    
   238  120  124 1    
   239  120  241 1    
   240  121  122 am   BACKBONE|DICT|INTERRES
   241  121  123 2    
   242  122  242 1    
   243  122  243 1    
   244  124  125 1    
   245  124  244 1    
   246  124  245 1    
   247  125  126 1    
   248  126  246 1    
   249  126  247 1    
@<TRIPOS>SUBSTRUCTURE
     1 UNK         1 GROUP             0       ****    0 ROOT    
