@<TRIPOS>MOLECULE
3R540
247   249    1
SMALL
USER_CHARGES


@<TRIPOS>ATOM
      1 CA          2.4751  -11.6341  -52.8597 C.3       0 UNK        -0.1800 
      2 C           1.9011  -12.4151  -51.6858 C.2       0 UNK         0.5000 
      3 O           2.3914  -13.5013  -51.3775 O.2       0 UNK        -0.5000 
      4 N           0.8627  -11.8688  -51.0410 N.am      1 UNK        -0.5000 
      5 CA          0.1996  -12.4565  -49.8735 C.3       1 UNK         0.1400 
      6 C6         -1.2288  -11.8742  -49.6941 C.3       23 UNK        -0.0398 
      7 S7         -2.3379  -12.9381  -48.7011 S.3       23 UNK        -0.2404 
      8 C8         -3.1383  -13.9676  -49.9755 C.3       23 UNK        -0.0205 
      9 C9         -2.1299  -14.8354  -50.7125 C.ar      23 UNK        -0.0193 
     10 C10        -1.8044  -14.5618  -52.0427 C.ar      23 UNK        -0.1150 
     11 C11        -0.8373  -15.3206  -52.7057 C.ar      23 UNK        -0.0193 
     12 C12        -0.1927  -16.3559  -52.0246 C.ar      23 UNK        -0.1150 
     13 C13        -0.5128  -16.6534  -50.6962 C.ar      23 UNK        -0.0193 
     14 C14        -1.4933  -15.8888  -50.0502 C.ar      23 UNK        -0.1150 
     15 C15         0.2122  -17.8162  -50.0165 C.3       23 UNK        -0.0205 
     16 S16         0.4159  -17.6714  -48.2064 S.3       23 UNK        -0.2404 
     17 C17        -1.1271  -18.4449  -47.6202 C.3       23 UNK        -0.0398 
     18 CA         -0.9977  -19.9776  -47.4626 C.3       11 UNK         0.1400 
     19 N          -0.1299  -20.3837  -46.3530 N.am      11 UNK        -0.5000 
     20 C           0.2571  -21.6464  -46.1186 C.2       10 UNK         0.5000 
     21 O          -0.0316  -22.5943  -46.8490 O.2       10 UNK        -0.5000 
     22 CA          1.0464  -21.9111  -44.8232 C.3       10 UNK         0.1400 
     23 CB          2.5280  -21.5406  -44.9856 C.3       10 UNK        -0.1800 
     24 N           0.4756  -21.2140  -43.6696 N.am      10 UNK        -0.5000 
     25 C          -0.7410  -21.4675  -43.1649 C.2       9 UNK         0.5000 
     26 O          -1.4829  -22.3551  -43.5868 O.2       9 UNK        -0.5000 
     27 CA         -1.2337  -20.5482  -42.0320 C.3       9 UNK         0.1400 
     28 CB         -0.6558  -20.9885  -40.6790 C.3       9 UNK        -0.1800 
     29 N          -0.9158  -19.1400  -42.2702 N.am      9 UNK        -0.5000 
     30 C          -1.3927  -18.4159  -43.2929 C.2       8 UNK         0.5000 
     31 O          -2.2057  -18.8416  -44.1121 O.2       8 UNK        -0.5000 
     32 CA         -0.8191  -16.9998  -43.4708 C.3       8 UNK         0.1400 
     33 CB         -1.5204  -15.9952  -42.5460 C.3       8 UNK        -0.1800 
     34 N           0.6261  -16.9503  -43.2511 N.am      8 UNK        -0.5000 
     35 C           1.5287  -17.5998  -43.9993 C.2       7 UNK         0.5000 
     36 O           1.2343  -18.2943  -44.9691 O.2       7 UNK        -0.5000 
     37 CA          2.9989  -17.4991  -43.5617 C.3       7 UNK         0.1400 
     38 CB          3.6403  -16.1870  -44.0391 C.3       7 UNK        -0.1800 
     39 N           3.1393  -17.6206  -42.1124 N.am      7 UNK        -0.5000 
     40 C           2.9103  -18.7487  -41.4260 C.2       6 UNK         0.5000 
     41 O           2.6090  -19.8214  -41.9501 O.2       6 UNK        -0.5000 
     42 CA          2.9889  -18.6421  -39.8926 C.3       6 UNK         0.1400 
     43 CB          4.4434  -18.7593  -39.4133 C.3       6 UNK        -0.1800 
     44 N           2.4095  -17.3940  -39.3904 N.am      6 UNK        -0.5000 
     45 C           1.1057  -17.0894  -39.4562 C.2       5 UNK         0.5000 
     46 O           0.2518  -17.8399  -39.9273 O.2       5 UNK        -0.5000 
     47 CA          0.6944  -15.6950  -38.9497 C.3       5 UNK         0.1400 
     48 CB          0.4885  -15.7121  -37.4277 C.3       5 UNK        -0.1800 
     49 N           1.6488  -14.6387  -39.3015 N.am      5 UNK        -0.5000 
     50 C           1.9415  -14.2677  -40.5541 C.2       4 UNK         0.5000 
     51 O           1.4856  -14.8202  -41.5586 O.2       4 UNK        -0.5000 
     52 CA          2.9290  -13.1073  -40.7192 C.3       4 UNK         0.1400 
     53 CB          4.3803  -13.6175  -40.6981 C.3       4 UNK        -0.1800 
     54 N           2.6513  -12.4538  -41.9935 N.am      4 UNK        -0.5000 
     55 C           2.8927  -11.1710  -42.2887 C.2       3 UNK         0.5000 
     56 O           3.4249  -10.3862  -41.5019 O.2       3 UNK        -0.5000 
     57 CA          2.4747  -10.6847  -43.6921 C.3       3 UNK         0.1400 
     58 CB          3.4528   -9.6444  -44.2686 C.3       3 UNK        -0.1800 
     59 N           2.3569  -11.8029  -44.6312 N.am      3 UNK        -0.5000 
     60 C           1.3366  -12.0064  -45.4717 C.2       2 UNK         0.5000 
     61 O           0.3514  -11.2692  -45.5588 O.2       2 UNK        -0.5000 
     62 CA          1.4191  -13.2933  -46.3151 C.3       2 UNK         0.1400 
     63 CB          0.7678  -14.4533  -45.5505 C.3       2 UNK        -0.1800 
     64 N           0.7672  -13.1929  -47.6183 N.am      2 UNK        -0.5000 
     65 C           1.0628  -12.3303  -48.5974 C.2       1 UNK         0.5000 
     66 O           1.9591  -11.4843  -48.5261 O.2       1 UNK        -0.5000 
     67 C          -2.3930  -20.6215  -47.3708 C.2       11 UNK         0.5000 
     68 O          -2.8932  -21.0924  -48.3891 O.2       11 UNK        -0.5000 
     69 N          -2.9852  -20.6637  -46.1688 N.am      12 UNK        -0.5000 
     70 CA         -4.2720  -21.3120  -45.9084 C.3       12 UNK         0.1400 
     71 CB         -4.7269  -21.0157  -44.4718 C.3       12 UNK        -0.1800 
     72 C          -4.2353  -22.8275  -46.1742 C.2       12 UNK         0.5000 
     73 O          -5.1532  -23.3535  -46.8040 O.2       12 UNK        -0.5000 
     74 N          -3.1558  -23.4912  -45.7365 N.am      13 UNK        -0.5000 
     75 CA         -2.8917  -24.9051  -46.0036 C.3       13 UNK         0.1400 
     76 CB         -1.6711  -25.3675  -45.1940 C.3       13 UNK        -0.1800 
     77 C          -2.7039  -25.1948  -47.5039 C.2       13 UNK         0.5000 
     78 O          -3.2890  -26.1504  -48.0128 O.2       13 UNK        -0.5000 
     79 N          -1.9325  -24.3432  -48.1946 N.am      14 UNK        -0.5000 
     80 CA         -1.7213  -24.4059  -49.6414 C.3       14 UNK         0.1400 
     81 CB         -0.6315  -23.4036  -50.0490 C.3       14 UNK        -0.1800 
     82 C          -3.0153  -24.1627  -50.4386 C.2       14 UNK         0.5000 
     83 O          -3.2731  -24.8767  -51.4104 O.2       14 UNK        -0.5000 
     84 N          -3.8173  -23.1811  -50.0028 N.am      15 UNK        -0.5000 
     85 CA         -5.1192  -22.8432  -50.5732 C.3       15 UNK         0.1400 
     86 CB         -5.6550  -21.5469  -49.9494 C.3       15 UNK        -0.1800 
     87 C          -6.1433  -23.9787  -50.4408 C.2       15 UNK         0.5000 
     88 O          -6.8569  -24.2600  -51.4038 O.2       15 UNK        -0.5000 
     89 N          -6.1670  -24.6269  -49.2685 N.am      16 UNK        -0.5000 
     90 CA         -6.9766  -25.8132  -48.9960 C.3       16 UNK         0.1400 
     91 CB         -6.9368  -26.1231  -47.4918 C.3       16 UNK        -0.1800 
     92 C          -6.5325  -27.0384  -49.8172 C.2       16 UNK         0.5000 
     93 O          -7.3830  -27.8381  -50.2098 O.2       16 UNK        -0.5000 
     94 N          -5.2201  -27.1603  -50.0640 N.am      17 UNK        -0.5000 
     95 CA         -4.6219  -28.2210  -50.8685 C.3       17 UNK         0.1400 
     96 CB         -3.1030  -28.2777  -50.6341 C.3       17 UNK        -0.1800 
     97 C          -4.9651  -28.0908  -52.3631 C.2       17 UNK         0.5000 
     98 O          -5.6209  -28.9863  -52.8984 O.2       17 UNK        -0.5000 
     99 N          -4.5235  -27.0003  -53.0111 N.am      18 UNK        -0.5000 
    100 CA        -4.6885  -26.7987  -54.4587 C.3       18 UNK         0.1400 
    101 CB        -3.8735  -27.8513  -55.2463 C.3       18 UNK        -0.1800 
    102 C         -4.2986  -25.4004  -54.9738 C.2       18 UNK         0.5000 
    103 O         -4.7114  -25.0515  -56.0808 O.2       18 UNK        -0.5000 
    104 N         -3.4772  -24.6432  -54.2317 N.am      19 UNK        -0.5000 
    105 CA        -2.8150  -23.4298  -54.7294 C.3       19 UNK         0.1400 
    106 CB        -1.7129  -23.0268  -53.7387 C.3       19 UNK        -0.1800 
    107 C         -3.7677  -22.2456  -54.9819 C.2       19 UNK         0.5000 
    108 O         -3.5139  -21.4446  -55.8818 O.2       19 UNK        -0.5000 
    109 N         -4.8189  -22.1665  -54.1575 N.am      20 UNK        -0.5000 
    110 CA        -5.9321  -21.2102  -54.1372 C.3       20 UNK         0.1400 
    111 CB        -7.0902  -21.8113  -54.9579 C.3       20 UNK        -0.1800 
    112 C         -5.6222  -19.7409  -54.5379 C.2       20 UNK         0.5000 
    113 O         -6.2513  -19.2318  -55.4653 O.2       20 UNK        -0.5000 
    114 N         -4.7108  -19.0116  -53.8762 N.am      21 UNK        -0.5000 
    115 CA        -3.7554  -19.4144  -52.8391 C.3       21 UNK         0.1400 
    116 CB        -3.9347  -18.4827  -51.6285 C.3       21 UNK        -0.1800 
    117 C         -2.3024  -19.3204  -53.3529 C.2       21 UNK         0.5000 
    118 O         -1.3911  -19.7617  -52.6537 O.2       21 UNK        -0.5000 
    119 N         -2.1066  -18.7316  -54.5413 N.am      22 UNK        -0.5000 
    120 CA        -0.7902  -18.4004  -55.1082 C.3       22 UNK         0.1400 
    121 C         -0.0950  -19.5636  -55.8692 C.2       22 UNK         0.5000 
    122 N         -0.7976  -20.6093  -56.2840 N.am      22 UNK        -0.7600 
    123 O          1.1111  -19.5124  -56.0936 O.2       22 UNK        -0.5000 
    124 C124       -0.8380  -17.1362  -56.0078 C.3       23 UNK        -0.0398 
    125 S125       -1.7223  -15.7064  -55.2905 S.3       23 UNK        -0.2404 
    126 C126       -0.4874  -15.0050  -54.1513 C.3       23 UNK        -0.0205 
    127 H127        1.9440  -10.6958  -53.0221 H         1 UNK         0.0600 
    128 H128        2.4060  -12.2259  -53.7726 H         1 UNK         0.0600 
    129 H129        3.5251  -11.4038  -52.6796 H         1 UNK         0.0600 
    130 H130        0.5354  -10.9552  -51.3194 H         1 UNK         0.3000 
    131 H131        0.1131  -13.5234  -50.0794 H         1 UNK         0.0600 
    132 H132       -1.1884  -10.8846  -49.2357 H         1 UNK         0.0800 
    133 H133       -1.6990  -11.7275  -50.6676 H         1 UNK         0.0800 
    134 H134       -3.6854  -13.3270  -50.6689 H         1 UNK         0.0800 
    135 H135       -3.8814  -14.6086  -49.4990 H         1 UNK         0.0800 
    136 H136       -2.2936  -13.7499  -52.5622 H         1 UNK         0.1150 
    137 H137        0.5664  -16.9349  -52.5296 H         1 UNK         0.1150 
    138 H138       -1.7528  -16.0810  -49.0209 H         1 UNK         0.1150 
    139 H139       -0.3068  -18.7444  -50.2593 H         1 UNK         0.0800 
    140 H140        1.2122  -17.9108  -50.4422 H         1 UNK         0.0800 
    141 H141       -1.9237  -18.2001  -48.3246 H         1 UNK         0.0800 
    142 H142       -1.4082  -17.9842  -46.6723 H         1 UNK         0.0800 
    143 H143       -0.5423  -20.3675  -48.3753 H         1 UNK         0.0600 
    144 H144        0.2100  -19.6427  -45.7437 H         1 UNK         0.3000 
    145 H145        0.9924  -22.9825  -44.6191 H         1 UNK         0.0600 
    146 H146        2.6627  -20.4806  -45.1972 H         1 UNK         0.0600 
    147 H147        3.0939  -21.7756  -44.0840 H         1 UNK         0.0600 
    148 H148        2.9790  -22.0972  -45.8079 H         1 UNK         0.0600 
    149 H149        1.0418  -20.4869  -43.2477 H         1 UNK         0.3000 
    150 H150       -2.3205  -20.6388  -41.9809 H         1 UNK         0.0600 
    151 H151       -0.8952  -22.0324  -40.4730 H         1 UNK         0.0600 
    152 H152       -1.0666  -20.3931  -39.8634 H         1 UNK         0.0600 
    153 H153        0.4294  -20.8879  -40.6514 H         1 UNK         0.0600 
    154 H154       -0.2921  -18.6939  -41.6039 H         1 UNK         0.3000 
    155 H155       -1.0069  -16.6959  -44.5024 H         1 UNK         0.0600 
    156 H156       -1.1536  -14.9825  -42.7149 H         1 UNK         0.0600 
    157 H157       -2.5963  -15.9867  -42.7244 H         1 UNK         0.0600 
    158 H158       -1.3634  -16.2373  -41.4952 H         1 UNK         0.0600 
    159 H159        0.9516  -16.3521  -42.4964 H         1 UNK         0.3000 
    160 H160        3.5391  -18.3258  -44.0278 H         1 UNK         0.0600 
    161 H161        3.5182  -16.0622  -45.1159 H         1 UNK         0.0600 
    162 H162        4.7102  -16.1763  -43.8307 H         1 UNK         0.0600 
    163 H163        3.1998  -15.3170  -43.5539 H         1 UNK         0.0600 
    164 H164        3.3361  -16.7745  -41.6002 H         1 UNK         0.3000 
    165 H165        2.4218  -19.4752  -39.4715 H         1 UNK         0.0600 
    166 H166        4.5004  -18.7604  -38.3246 H         1 UNK         0.0600 
    167 H167        4.8948  -19.6891  -39.7622 H         1 UNK         0.0600 
    168 H168        5.0584  -17.9371  -39.7813 H         1 UNK         0.0600 
    169 H169        3.0441  -16.7205  -38.9879 H         1 UNK         0.3000 
    170 H170       -0.2609  -15.4462  -39.4164 H         1 UNK         0.0600 
    171 H171       -0.2324  -16.4788  -37.1400 H         1 UNK         0.0600 
    172 H172        1.4181  -15.9196  -36.8964 H         1 UNK         0.0600 
    173 H173        0.1034  -14.7566  -37.0710 H         1 UNK         0.0600 
    174 H174        2.0742  -14.1433  -38.5310 H         1 UNK         0.3000 
    175 H175        2.7730  -12.3999  -39.9019 H         1 UNK         0.0600 
    176 H176        4.5707  -14.3233  -41.5075 H         1 UNK         0.0600 
    177 H177        5.0885  -12.7950  -40.8001 H         1 UNK         0.0600 
    178 H178        4.6060  -14.1235  -39.7587 H         1 UNK         0.0600 
    179 H179        2.1367  -13.0301  -42.6468 H         1 UNK         0.3000 
    180 H180        1.5038  -10.2026  -43.5619 H         1 UNK         0.0600 
    181 H181        4.4574  -10.0553  -44.3747 H         1 UNK         0.0600 
    182 H182        3.5206   -8.7660  -43.6258 H         1 UNK         0.0600 
    183 H183        3.1263   -9.3001  -45.2502 H         1 UNK         0.0600 
    184 H184        3.1244  -12.4605  -44.6205 H         1 UNK         0.3000 
    185 H185        2.4708  -13.5297  -46.4883 H         1 UNK         0.0600 
    186 H186        0.9379  -15.4046  -46.0551 H         1 UNK         0.0600 
    187 H187        1.1748  -14.5373  -44.5434 H         1 UNK         0.0600 
    188 H188       -0.3094  -14.3143  -45.4502 H         1 UNK         0.0600 
    189 H189       -0.0177  -13.8121  -47.7609 H         1 UNK         0.3000 
    190 H190       -2.5418  -20.1975  -45.3812 H         1 UNK         0.3000 
    191 H191       -5.0051  -20.8752  -46.5895 H         1 UNK         0.0600 
    192 H192       -4.0227  -21.4040  -43.7363 H         1 UNK         0.0600 
    193 H193       -5.6976  -21.4695  -44.2687 H         1 UNK         0.0600 
    194 H194       -4.8275  -19.9433  -44.3041 H         1 UNK         0.0600 
    195 H195       -2.4634  -22.9922  -45.1857 H         1 UNK         0.3000 
    196 H196       -3.7587  -25.4749  -45.6630 H         1 UNK         0.0600 
    197 H197       -1.4704  -26.4264  -45.3611 H         1 UNK         0.0600 
    198 H198       -1.8341  -25.2311  -44.1248 H         1 UNK         0.0600 
    199 H199       -0.7717  -24.8151  -45.4664 H         1 UNK         0.0600 
    200 H200       -1.4463  -23.6040  -47.6940 H         1 UNK         0.3000 
    201 H201       -1.3655  -25.4095  -49.8819 H         1 UNK         0.0600 
    202 H202        0.2941  -23.5838  -49.5022 H         1 UNK         0.0600 
    203 H203       -0.9362  -22.3741  -49.8594 H         1 UNK         0.0600 
    204 H204       -0.4002  -23.4874  -51.1107 H         1 UNK         0.0600 
    205 H205       -3.4954  -22.5901  -49.2387 H         1 UNK         0.3000 
    206 H206       -4.9624  -22.6657  -51.6330 H         1 UNK         0.0600 
    207 H207       -4.9599  -20.7219  -50.0969 H         1 UNK         0.0600 
    208 H208       -6.6047  -21.2577  -50.4008 H         1 UNK         0.0600 
    209 H209       -5.8196  -21.6543  -48.8773 H         1 UNK         0.0600 
    210 H210       -5.5844  -24.2884  -48.5083 H         1 UNK         0.3000 
    211 H211       -8.0091  -25.5864  -49.2696 H         1 UNK         0.0600 
    212 H212       -5.9223  -26.3315  -47.1505 H         1 UNK         0.0600 
    213 H213       -7.5495  -26.9938  -47.2553 H         1 UNK         0.0600 
    214 H214       -7.3199  -25.2865  -46.9073 H         1 UNK         0.0600 
    215 H215       -4.5834  -26.4916  -49.6465 H         1 UNK         0.3000 
    216 H216       -5.0349  -29.1704  -50.5207 H         1 UNK         0.0600 
    217 H217       -2.6504  -29.0820  -51.2153 H         1 UNK         0.0600 
    218 H218       -2.8752  -28.4683  -49.5853 H         1 UNK         0.0600 
    219 H219       -2.6059  -27.3517  -50.9183 H         1 UNK         0.0600 
    220 H220       -4.0529  -26.2736  -52.4800 H         1 UNK         0.3000 
    221 H221       -5.7467  -26.9282  -54.6952 H         1 UNK         0.0600 
    222 H222       -2.8209  -27.8319  -54.9619 H         1 UNK         0.0600 
    223 H223       -4.2437  -28.8632  -55.0868 H         1 UNK         0.0600 
    224 H224       -3.9243  -27.6710  -56.3211 H         1 UNK         0.0600 
    225 H225       -3.2115  -24.9420  -53.2994 H         1 UNK         0.3000 
    226 H226       -2.3385  -23.6773  -55.6805 H         1 UNK         0.0600 
    227 H227       -1.0470  -23.8625  -53.5238 H         1 UNK         0.0600 
    228 H228       -1.0972  -22.2217  -54.1372 H         1 UNK         0.0600 
    229 H229       -2.1291  -22.6729  -52.7956 H         1 UNK         0.0600 
    230 H230       -4.8981  -22.9215  -53.4926 H         1 UNK         0.3000 
    231 H231       -6.2719  -21.1596  -53.1022 H         1 UNK         0.0600 
    232 H232       -7.9794  -21.1811  -54.9128 H         1 UNK         0.0600 
    233 H233       -7.3736  -22.7931  -54.5778 H         1 UNK         0.0600 
    234 H234       -6.8168  -21.9266  -56.0075 H         1 UNK         0.0600 
    235 H235       -4.6247  -18.0455  -54.1546 H         1 UNK         0.3000 
    236 H236       -3.9266  -20.4339  -52.4992 H         1 UNK         0.0600 
    237 H237       -4.9572  -18.5131  -51.2522 H         1 UNK         0.0600 
    238 H238       -3.7009  -17.4467  -51.8785 H         1 UNK         0.0600 
    239 H239       -3.2774  -18.7760  -50.8083 H         1 UNK         0.0600 
    240 H240       -2.9071  -18.4449  -55.0832 H         1 UNK         0.3000 
    241 H241       -0.1266  -18.1682  -54.2760 H         1 UNK         0.0600 
    242 H242       -0.3258  -21.3437  -56.7862 H         1 UNK         0.3800 
    243 H243       -1.7982  -20.6784  -56.1217 H         1 UNK         0.3800 
    244 H244        0.1713  -16.8216  -56.2789 H         1 UNK         0.0800 
    245 H245       -1.3361  -17.3729  -56.9498 H         1 UNK         0.0800 
    246 H246        0.5128  -15.3661  -54.3946 H         1 UNK         0.0800 
    247 H247       -0.4579  -13.9228  -54.2869 H         1 UNK         0.0800 
@<TRIPOS>BOND
     1    1    2 1    
     2    1  127 1    
     3    1  128 1    
     4    1  129 1    
     5    2    3 2    
     6    2    4 am   BACKBONE|DICT|INTERRES
     7    4    5 1    
     8    4  130 1    
     9    5    6 1    
    10    5   65 1    
    11    5  131 1    
    12    6    7 1    
    13    6  132 1    
    14    6  133 1    
    15    7    8 1    
    16    8    9 1    
    17    8  134 1    
    18    8  135 1    
    19    9   10 ar   
    20    9   14 ar   
    21   10   11 ar   
    22   10  136 1    
    23   11   12 ar   
    24   11  126 1    
    25   12   13 ar   
    26   12  137 1    
    27   13   14 ar   
    28   13   15 1    
    29   14  138 1    
    30   15   16 1    
    31   15  139 1    
    32   15  140 1    
    33   16   17 1    
    34   17   18 1    
    35   17  141 1    
    36   17  142 1    
    37   18   19 1    
    38   18   67 1    
    39   18  143 1    
    40   19   20 am   BACKBONE|DICT|INTERRES
    41   19  144 1    
    42   20   21 2    
    43   20   22 1    
    44   22   23 1    
    45   22   24 1    
    46   22  145 1    
    47   23  146 1    
    48   23  147 1    
    49   23  148 1    
    50   24   25 am   BACKBONE|DICT|INTERRES
    51   24  149 1    
    52   25   26 2    
    53   25   27 1    
    54   27   28 1    
    55   27   29 1    
    56   27  150 1    
    57   28  151 1    
    58   28  152 1    
    59   28  153 1    
    60   29   30 am   BACKBONE|DICT|INTERRES
    61   29  154 1    
    62   30   31 2    
    63   30   32 1    
    64   32   33 1    
    65   32   34 1    
    66   32  155 1    
    67   33  156 1    
    68   33  157 1    
    69   33  158 1    
    70   34   35 am   BACKBONE|DICT|INTERRES
    71   34  159 1    
    72   35   36 2    
    73   35   37 1    
    74   37   38 1    
    75   37   39 1    
    76   37  160 1    
    77   38  161 1    
    78   38  162 1    
    79   38  163 1    
    80   39   40 am   BACKBONE|DICT|INTERRES
    81   39  164 1    
    82   40   41 2    
    83   40   42 1    
    84   42   43 1    
    85   42   44 1    
    86   42  165 1    
    87   43  166 1    
    88   43  167 1    
    89   43  168 1    
    90   44   45 am   BACKBONE|DICT|INTERRES
    91   44  169 1    
    92   45   46 2    
    93   45   47 1    
    94   47   48 1    
    95   47   49 1    
    96   47  170 1    
    97   48  171 1    
    98   48  172 1    
    99   48  173 1    
   100   49   50 am   BACKBONE|DICT|INTERRES
   101   49  174 1    
   102   50   51 2    
   103   50   52 1    
   104   52   53 1    
   105   52   54 1    
   106   52  175 1    
   107   53  176 1    
   108   53  177 1    
   109   53  178 1    
   110   54   55 am   BACKBONE|DICT|INTERRES
   111   54  179 1    
   112   55   56 2    
   113   55   57 1    
   114   57   58 1    
   115   57   59 1    
   116   57  180 1    
   117   58  181 1    
   118   58  182 1    
   119   58  183 1    
   120   59   60 am   BACKBONE|DICT|INTERRES
   121   59  184 1    
   122   60   61 2    
   123   60   62 1    
   124   62   63 1    
   125   62   64 1    
   126   62  185 1    
   127   63  186 1    
   128   63  187 1    
   129   63  188 1    
   130   64   65 am   BACKBONE|DICT|INTERRES
   131   64  189 1    
   132   65   66 2    
   133   67   68 2    
   134   67   69 am   BACKBONE|DICT|INTERRES
   135   69   70 1    
   136   69  190 1    
   137   70   71 1    
   138   70   72 1    
   139   70  191 1    
   140   71  192 1    
   141   71  193 1    
   142   71  194 1    
   143   72   73 2    
   144   72   74 am   BACKBONE|DICT|INTERRES
   145   74   75 1    
   146   74  195 1    
   147   75   76 1    
   148   75   77 1    
   149   75  196 1    
   150   76  197 1    
   151   76  198 1    
   152   76  199 1    
   153   77   78 2    
   154   77   79 am   BACKBONE|DICT|INTERRES
   155   79   80 1    
   156   79  200 1    
   157   80   81 1    
   158   80   82 1    
   159   80  201 1    
   160   81  202 1    
   161   81  203 1    
   162   81  204 1    
   163   82   83 2    
   164   82   84 am   BACKBONE|DICT|INTERRES
   165   84   85 1    
   166   84  205 1    
   167   85   86 1    
   168   85   87 1    
   169   85  206 1    
   170   86  207 1    
   171   86  208 1    
   172   86  209 1    
   173   87   88 2    
   174   87   89 am   BACKBONE|DICT|INTERRES
   175   89   90 1    
   176   89  210 1    
   177   90   91 1    
   178   90   92 1    
   179   90  211 1    
   180   91  212 1    
   181   91  213 1    
   182   91  214 1    
   183   92   93 2    
   184   92   94 am   BACKBONE|DICT|INTERRES
   185   94   95 1    
   186   94  215 1    
   187   95   96 1    
   188   95   97 1    
   189   95  216 1    
   190   96  217 1    
   191   96  218 1    
   192   96  219 1    
   193   97   98 2    
   194   97   99 am   BACKBONE|DICT|INTERRES
   195   99  100 1    
   196   99  220 1    
   197  100  101 1    
   198  100  102 1    
   199  100  221 1    
   200  101  222 1    
   201  101  223 1    
   202  101  224 1    
   203  102  103 2    
   204  102  104 am   BACKBONE|DICT|INTERRES
   205  104  105 1    
   206  104  225 1    
   207  105  106 1    
   208  105  107 1    
   209  105  226 1    
   210  106  227 1    
   211  106  228 1    
   212  106  229 1    
   213  107  108 2    
   214  107  109 am   BACKBONE|DICT|INTERRES
   215  109  110 1    
   216  109  230 1    
   217  110  111 1    
   218  110  112 1    
   219  110  231 1    
   220  111  232 1    
   221  111  233 1    
   222  111  234 1    
   223  112  113 2    
   224  112  114 am   BACKBONE|DICT|INTERRES
   225  114  115 1    
   226  114  235 1    
   227  115  116 1    
   228  115  117 1    
   229  115  236 1    
   230  116  237 1    
   231  116  238 1    
   232  116  239 1    
   233  117  118 2    
   234  117  119 am   BACKBONE|DICT|INTERRES
   235  119  120 1    
   236  119  240 1    
   237  120  121 1    
   238  120  124 1    
   239  120  241 1    
   240  121  122 am   BACKBONE|DICT|INTERRES
   241  121  123 2    
   242  122  242 1    
   243  122  243 1    
   244  124  125 1    
   245  124  244 1    
   246  124  245 1    
   247  125  126 1    
   248  126  246 1    
   249  126  247 1    
@<TRIPOS>SUBSTRUCTURE
     1 UNK         1 GROUP             0       ****    0 ROOT    
