@<TRIPOS>MOLECULE
3R540
247   249    1
SMALL
USER_CHARGES


@<TRIPOS>ATOM
      1 CA         -2.9204   -9.8600  -48.4474 C.3       0 UNK        -0.1800 
      2 C          -1.8045  -10.7958  -48.8910 C.2       0 UNK         0.5000 
      3 O          -0.6805  -10.3462  -49.1155 O.2       0 UNK        -0.5000 
      4 N          -2.1146  -12.0892  -49.0309 N.am      1 UNK        -0.5000 
      5 CA         -1.1638  -13.1550  -49.3568 C.3       1 UNK         0.1400 
      6 C6         -1.8687  -14.4146  -49.9299 C.3       23 UNK        -0.0398 
      7 S7         -3.3569  -14.9672  -49.0186 S.3       23 UNK        -0.2404 
      8 C8         -2.7096  -16.3088  -47.9742 C.3       23 UNK        -0.0205 
      9 C9         -2.3370  -17.5476  -48.7719 C.ar      23 UNK        -0.0193 
     10 C10        -3.3331  -18.3946  -49.2649 C.ar      23 UNK        -0.1150 
     11 C11        -2.9952  -19.5426  -49.9875 C.ar      23 UNK        -0.0193 
     12 C12        -1.6473  -19.8443  -50.2041 C.ar      23 UNK        -0.1150 
     13 C13        -0.6423  -18.9950  -49.7320 C.ar      23 UNK        -0.0193 
     14 C14        -0.9951  -17.8530  -49.0090 C.ar      23 UNK        -0.1150 
     15 C15         0.8231  -19.2752  -50.0368 C.3       23 UNK        -0.0205 
     16 S16         1.4327  -20.8248  -49.3038 S.3       23 UNK        -0.2404 
     17 C17         1.1254  -20.5631  -47.5217 C.3       23 UNK        -0.0398 
     18 CA          0.7393  -21.8732  -46.7982 C.3       11 UNK         0.1400 
     19 N           0.8020  -21.7365  -45.3435 N.am      11 UNK        -0.5000 
     20 C           0.7452  -22.7620  -44.4832 C.2       10 UNK         0.5000 
     21 O           0.6558  -23.9402  -44.8291 O.2       10 UNK        -0.5000 
     22 CA          0.7477  -22.4114  -42.9850 C.3       10 UNK         0.1400 
     23 CB          2.1667  -22.0721  -42.5053 C.3       10 UNK        -0.1800 
     24 N          -0.1612  -21.3108  -42.6617 N.am      10 UNK        -0.5000 
     25 C          -1.4913  -21.3569  -42.8266 C.2       9 UNK         0.5000 
     26 O          -2.0955  -22.3448  -43.2425 O.2       9 UNK        -0.5000 
     27 CA         -2.2779  -20.0726  -42.5133 C.3       9 UNK         0.1400 
     28 CB         -2.4694  -19.9035  -40.9988 C.3       9 UNK        -0.1800 
     29 N          -1.6503  -18.8737  -43.0669 N.am      9 UNK        -0.5000 
     30 C          -1.4459  -18.6543  -44.3739 C.2       8 UNK         0.5000 
     31 O          -1.7779  -19.4334  -45.2656 O.2       8 UNK        -0.5000 
     32 CA         -0.6930  -17.3675  -44.7420 C.3       8 UNK         0.1400 
     33 CB         -1.5952  -16.1382  -44.5502 C.3       8 UNK        -0.1800 
     34 N           0.5348  -17.2057  -43.9642 N.am      8 UNK        -0.5000 
     35 C           1.5612  -18.0683  -43.9508 C.2       7 UNK         0.5000 
     36 O           1.6203  -19.0778  -44.6511 O.2       7 UNK        -0.5000 
     37 CA          2.6878  -17.7827  -42.9436 C.3       7 UNK         0.1400 
     38 CB          3.6870  -16.7564  -43.5001 C.3       7 UNK        -0.1800 
     39 N           2.1648  -17.3188  -41.6588 N.am      7 UNK        -0.5000 
     40 C           1.4635  -18.0809  -40.8072 C.2       6 UNK         0.5000 
     41 O           1.2121  -19.2707  -40.9984 O.2       6 UNK        -0.5000 
     42 CA          0.9152  -17.3787  -39.5521 C.3       6 UNK         0.1400 
     43 CB          2.0035  -17.2609  -38.4746 C.3       6 UNK        -0.1800 
     44 N           0.3795  -16.0497  -39.8513 N.am      6 UNK        -0.5000 
     45 C          -0.7182  -15.8295  -40.5885 C.2       5 UNK         0.5000 
     46 O          -1.4205  -16.7289  -41.0497 O.2       5 UNK        -0.5000 
     47 CA         -1.0633  -14.3596  -40.8981 C.3       5 UNK         0.1400 
     48 CB         -1.9343  -13.7655  -39.7814 C.3       5 UNK        -0.1800 
     49 N           0.1153  -13.5100  -41.0991 N.am      5 UNK        -0.5000 
     50 C           1.0271  -13.6839  -42.0647 C.2       4 UNK         0.5000 
     51 O           0.9868  -14.5997  -42.8902 O.2       4 UNK        -0.5000 
     52 CA          2.2070  -12.7047  -42.0754 C.3       4 UNK         0.1400 
     53 CB          3.1846  -13.0262  -40.9280 C.3       4 UNK        -0.1800 
     54 N           2.8956  -12.8113  -43.3574 N.am      4 UNK        -0.5000 
     55 C           3.7454  -11.9132  -43.8670 C.2       3 UNK         0.5000 
     56 O           4.0186  -10.8460  -43.3157 O.2       3 UNK        -0.5000 
     57 CA          4.4285  -12.2645  -45.2031 C.3       3 UNK         0.1400 
     58 CB          5.8570  -12.7714  -44.9477 C.3       3 UNK        -0.1800 
     59 N           3.7107  -13.2720  -45.9883 N.am      3 UNK        -0.5000 
     60 C           2.6341  -13.0226  -46.7450 C.2       2 UNK         0.5000 
     61 O           2.1223  -11.9055  -46.8452 O.2       2 UNK        -0.5000 
     62 CA          2.0924  -14.2251  -47.5501 C.3       2 UNK         0.1400 
     63 CB          1.7151  -15.4043  -46.6319 C.3       2 UNK        -0.1800 
     64 N           0.9904  -13.8886  -48.4625 N.am      2 UNK        -0.5000 
     65 C          -0.2533  -13.4896  -48.1534 C.2       1 UNK         0.5000 
     66 O          -0.6948  -13.4036  -47.0049 O.2       1 UNK        -0.5000 
     67 C          -0.6225  -22.4314  -47.2601 C.2       11 UNK         0.5000 
     68 O          -0.6416  -23.3844  -48.0366 O.2       11 UNK        -0.5000 
     69 N          -1.7278  -21.8873  -46.7313 N.am      12 UNK        -0.5000 
     70 CA         -3.0863  -22.3444  -47.0286 C.3       12 UNK         0.1400 
     71 CB         -4.1028  -21.3596  -46.4342 C.3       12 UNK        -0.1800 
     72 C          -3.3711  -23.7819  -46.5520 C.2       12 UNK         0.5000 
     73 O          -4.1464  -24.4851  -47.1975 O.2       12 UNK        -0.5000 
     74 N          -2.7363  -24.2078  -45.4514 N.am      13 UNK        -0.5000 
     75 CA         -2.7797  -25.5880  -44.9695 C.3       13 UNK         0.1400 
     76 CB         -2.2754  -25.6472  -43.5195 C.3       13 UNK        -0.1800 
     77 C          -1.9764  -26.5466  -45.8692 C.2       13 UNK         0.5000 
     78 O          -2.4311  -27.6634  -46.1203 O.2       13 UNK        -0.5000 
     79 N          -0.8019  -26.0992  -46.3346 N.am      14 UNK        -0.5000 
     80 CA          0.0909  -26.8618  -47.2071 C.3       14 UNK         0.1400 
     81 CB          1.4836  -26.2121  -47.2045 C.3       14 UNK        -0.1800 
     82 C          -0.4417  -27.0006  -48.6455 C.2       14 UNK         0.5000 
     83 O          -0.3669  -28.0902  -49.2156 O.2       14 UNK        -0.5000 
     84 N          -0.9610  -25.9032  -49.2051 N.am      15 UNK        -0.5000 
     85 CA         -1.4689  -25.8068  -50.5670 C.3       15 UNK         0.1400 
     86 CB         -0.3469  -25.3179  -51.4988 C.3       15 UNK        -0.1800 
     87 C          -2.6800  -24.8660  -50.5660 C.2       15 UNK         0.5000 
     88 O          -2.5217  -23.6500  -50.6638 O.2       15 UNK        -0.5000 
     89 N          -3.8750  -25.4524  -50.4342 N.am      16 UNK        -0.5000 
     90 CA         -5.1538  -24.7427  -50.3333 C.3       16 UNK         0.1400 
     91 CB         -6.1942  -25.7036  -49.7338 C.3       16 UNK        -0.1800 
     92 C          -5.6689  -24.1531  -51.6625 C.2       16 UNK         0.5000 
     93 O          -6.6769  -23.4460  -51.6483 O.2       16 UNK        -0.5000 
     94 N          -5.0029  -24.4635  -52.7797 N.am      17 UNK        -0.5000 
     95 CA         -5.3339  -23.9945  -54.1190 C.3       17 UNK         0.1400 
     96 CB         -5.9883  -25.1427  -54.9036 C.3       17 UNK        -0.1800 
     97 C          -4.0558  -23.5220  -54.8227 C.2       17 UNK         0.5000 
     98 O          -2.9801  -24.0680  -54.5643 O.2       17 UNK        -0.5000 
     99 N          -4.2130  -22.5469  -55.7276 N.am      18 UNK        -0.5000 
    100 CA        -3.2501  -22.0231  -56.7062 C.3       18 UNK         0.1400 
    101 CB        -2.8041  -23.1296  -57.6806 C.3       18 UNK        -0.1800 
    102 C         -2.0258  -21.2720  -56.1450 C.2       18 UNK         0.5000 
    103 O         -1.5877  -20.3128  -56.7815 O.2       18 UNK        -0.5000 
    104 N         -1.5001  -21.6925  -54.9875 N.am      19 UNK        -0.5000 
    105 CA        -0.2495  -21.2265  -54.3734 C.3       19 UNK         0.1400 
    106 CB        -0.0072  -22.0127  -53.0779 C.3       19 UNK        -0.1800 
    107 C         -0.1412  -19.7046  -54.1426 C.2       19 UNK         0.5000 
    108 O          0.9573  -19.1566  -54.2427 O.2       19 UNK        -0.5000 
    109 N         -1.2781  -19.0466  -53.9004 N.am      20 UNK        -0.5000 
    110 CA        -1.4353  -17.5940  -53.9551 C.3       20 UNK         0.1400 
    111 CB        -1.2498  -16.9827  -52.5558 C.3       20 UNK        -0.1800 
    112 C         -2.8028  -17.2758  -54.5808 C.2       20 UNK         0.5000 
    113 O         -3.5496  -16.4486  -54.0547 O.2       20 UNK        -0.5000 
    114 N         -3.1367  -18.0057  -55.6578 N.am      21 UNK        -0.5000 
    115 CA        -4.4424  -18.1271  -56.3221 C.3       21 UNK         0.1400 
    116 CB        -4.9659  -16.7749  -56.8433 C.3       21 UNK        -0.1800 
    117 C         -5.4812  -18.8502  -55.4424 C.2       21 UNK         0.5000 
    118 O         -6.0239  -19.8732  -55.8620 O.2       21 UNK        -0.5000 
    119 N         -5.6808  -18.3380  -54.2223 N.am      22 UNK        -0.5000 
    120 CA        -6.4658  -18.9248  -53.1221 C.3       22 UNK         0.1400 
    121 C         -8.0109  -18.9008  -53.3311 C.2       22 UNK         0.5000 
    122 N         -8.5368  -18.1697  -54.3061 N.am      22 UNK        -0.7600 
    123 O         -8.7526  -19.5262  -52.5784 O.2       22 UNK        -0.5000 
    124 C124       -5.9490  -20.3255  -52.6873 C.3       23 UNK        -0.0398 
    125 S125       -4.1495  -20.3672  -52.3611 S.3       23 UNK        -0.2404 
    126 C126       -4.0853  -20.4469  -50.5422 C.3       23 UNK        -0.0205 
    127 H127       -3.8607  -10.3919  -48.2994 H         1 UNK         0.0600 
    128 H128       -3.0822   -9.0859  -49.1975 H         1 UNK         0.0600 
    129 H129       -2.6525   -9.3760  -47.5082 H         1 UNK         0.0600 
    130 H130       -3.0455  -12.4087  -48.8025 H         1 UNK         0.3000 
    131 H131       -0.5147  -12.7717  -50.1475 H         1 UNK         0.0600 
    132 H132       -1.1664  -15.2409  -50.0419 H         1 UNK         0.0800 
    133 H133       -2.2001  -14.1900  -50.9445 H         1 UNK         0.0800 
    134 H134       -3.4721  -16.5775  -47.2423 H         1 UNK         0.0800 
    135 H135       -1.8530  -15.9423  -47.4085 H         1 UNK         0.0800 
    136 H136       -4.3717  -18.1522  -49.0901 H         1 UNK         0.1150 
    137 H137       -1.3831  -20.7331  -50.7554 H         1 UNK         0.1150 
    138 H138       -0.2245  -17.1919  -48.6424 H         1 UNK         0.1150 
    139 H139        0.9520  -19.3256  -51.1187 H         1 UNK         0.0800 
    140 H140        1.4549  -18.4546  -49.6936 H         1 UNK         0.0800 
    141 H141        0.3624  -19.8011  -47.3594 H         1 UNK         0.0800 
    142 H142        2.0450  -20.1613  -47.0947 H         1 UNK         0.0800 
    143 H143        1.4920  -22.6192  -47.0635 H         1 UNK         0.0600 
    144 H144        0.9056  -20.7911  -44.9824 H         1 UNK         0.3000 
    145 H145        0.4079  -23.2936  -42.4386 H         1 UNK         0.0600 
    146 H146        2.1894  -21.9098  -41.4276 H         1 UNK         0.0600 
    147 H147        2.5507  -21.1724  -42.9866 H         1 UNK         0.0600 
    148 H148        2.8590  -22.8853  -42.7267 H         1 UNK         0.0600 
    149 H149        0.2593  -20.4708  -42.2761 H         1 UNK         0.3000 
    150 H150       -3.2643  -20.1698  -42.9714 H         1 UNK         0.0600 
    151 H151       -2.9436  -20.7840  -40.5635 H         1 UNK         0.0600 
    152 H152       -3.1064  -19.0473  -40.7763 H         1 UNK         0.0600 
    153 H153       -1.5186  -19.7535  -40.4863 H         1 UNK         0.0600 
    154 H154       -1.3704  -18.1603  -42.4001 H         1 UNK         0.3000 
    155 H155       -0.4182  -17.4342  -45.7962 H         1 UNK         0.0600 
    156 H156       -2.5376  -16.2531  -45.0840 H         1 UNK         0.0600 
    157 H157       -1.1190  -15.2296  -44.9167 H         1 UNK         0.0600 
    158 H158       -1.8455  -15.9807  -43.5037 H         1 UNK         0.0600 
    159 H159        0.6038  -16.3643  -43.3979 H         1 UNK         0.3000 
    160 H160        3.2254  -18.7177  -42.7724 H         1 UNK         0.0600 
    161 H161        3.2181  -15.7915  -43.6877 H         1 UNK         0.0600 
    162 H162        4.1146  -17.1027  -44.4418 H         1 UNK         0.0600 
    163 H163        4.5139  -16.5967  -42.8081 H         1 UNK         0.0600 
    164 H164        2.2787  -16.3389  -41.4496 H         1 UNK         0.3000 
    165 H165        0.1046  -17.9926  -39.1534 H         1 UNK         0.0600 
    166 H166        1.6028  -16.8329  -37.5555 H         1 UNK         0.0600 
    167 H167        2.4116  -18.2411  -38.2244 H         1 UNK         0.0600 
    168 H168        2.8332  -16.6338  -38.8034 H         1 UNK         0.0600 
    169 H169        0.8961  -15.2555  -39.5041 H         1 UNK         0.3000 
    170 H170       -1.6428  -14.3432  -41.8226 H         1 UNK         0.0600 
    171 H171       -1.3988  -13.7207  -38.8322 H         1 UNK         0.0600 
    172 H172       -2.2617  -12.7560  -40.0310 H         1 UNK         0.0600 
    173 H173       -2.8311  -14.3666  -39.6245 H         1 UNK         0.0600 
    174 H174        0.2258  -12.7395  -40.4556 H         1 UNK         0.3000 
    175 H175        1.8148  -11.6923  -41.9597 H         1 UNK         0.0600 
    176 H176        3.6029  -14.0287  -41.0272 H         1 UNK         0.0600 
    177 H177        4.0153  -12.3210  -40.9036 H         1 UNK         0.0600 
    178 H178        2.6908  -12.9694  -39.9574 H         1 UNK         0.0600 
    179 H179        2.6555  -13.6366  -43.8906 H         1 UNK         0.3000 
    180 H180        4.4959  -11.3450  -45.7887 H         1 UNK         0.0600 
    181 H181        6.3835  -12.9579  -45.8839 H         1 UNK         0.0600 
    182 H182        5.8586  -13.6967  -44.3699 H         1 UNK         0.0600 
    183 H183        6.4395  -12.0363  -44.3907 H         1 UNK         0.0600 
    184 H184        4.0955  -14.2051  -45.9735 H         1 UNK         0.3000 
    185 H185        2.9085  -14.5569  -48.1937 H         1 UNK         0.0600 
    186 H186        1.0236  -15.0954  -45.8491 H         1 UNK         0.0600 
    187 H187        1.2542  -16.2156  -47.1923 H         1 UNK         0.0600 
    188 H188        2.5941  -15.8212  -46.1418 H         1 UNK         0.0600 
    189 H189        1.2494  -13.8911  -49.4389 H         1 UNK         0.3000 
    190 H190       -1.6462  -21.0861  -46.1087 H         1 UNK         0.3000 
    191 H191       -3.2021  -22.3363  -48.1139 H         1 UNK         0.0600 
    192 H192       -3.9644  -20.3585  -46.8434 H         1 UNK         0.0600 
    193 H193       -4.0093  -21.2948  -45.3494 H         1 UNK         0.0600 
    194 H194       -5.1245  -21.6660  -46.6615 H         1 UNK         0.0600 
    195 H195       -2.1778  -23.5507  -44.9176 H         1 UNK         0.3000 
    196 H196       -3.8200  -25.9202  -44.9748 H         1 UNK         0.0600 
    197 H197       -2.8934  -25.0342  -42.8633 H         1 UNK         0.0600 
    198 H198       -1.2472  -25.2954  -43.4337 H         1 UNK         0.0600 
    199 H199       -2.3070  -26.6678  -43.1362 H         1 UNK         0.0600 
    200 H200       -0.4805  -25.1807  -46.0480 H         1 UNK         0.3000 
    201 H201        0.1911  -27.8671  -46.7926 H         1 UNK         0.0600 
    202 H202        1.9033  -26.1848  -46.1988 H         1 UNK         0.0600 
    203 H203        1.4521  -25.1890  -47.5804 H         1 UNK         0.0600 
    204 H204        2.1777  -26.7720  -47.8324 H         1 UNK         0.0600 
    205 H205       -0.9621  -25.0278  -48.6798 H         1 UNK         0.3000 
    206 H206       -1.8010  -26.7865  -50.9172 H         1 UNK         0.0600 
    207 H207        0.0678  -24.3674  -51.1601 H         1 UNK         0.0600 
    208 H208        0.4686  -26.0395  -51.5465 H         1 UNK         0.0600 
    209 H209       -0.7194  -25.1764  -52.5141 H         1 UNK         0.0600 
    210 H210       -3.9174  -26.4571  -50.3433 H         1 UNK         0.3000 
    211 H211       -5.0277  -23.9036  -49.6465 H         1 UNK         0.0600 
    212 H212       -6.3703  -26.5617  -50.3835 H         1 UNK         0.0600 
    213 H213       -7.1514  -25.2028  -49.5835 H         1 UNK         0.0600 
    214 H214       -5.8719  -26.0774  -48.7616 H         1 UNK         0.0600 
    215 H215       -4.1394  -24.9831  -52.7068 H         1 UNK         0.3000 
    216 H216       -6.0371  -23.1634  -54.0749 H         1 UNK         0.0600 
    217 H217       -6.2500  -24.8275  -55.9145 H         1 UNK         0.0600 
    218 H218       -6.9062  -25.4765  -54.4194 H         1 UNK         0.0600 
    219 H219       -5.3227  -26.0028  -54.9887 H         1 UNK         0.0600 
    220 H220       -5.1310  -22.1271  -55.8041 H         1 UNK         0.3000 
    221 H221       -3.8107  -21.2911  -57.2894 H         1 UNK         0.0600 
    222 H222       -2.1764  -22.7210  -58.4737 H         1 UNK         0.0600 
    223 H223       -2.2271  -23.9065  -57.1780 H         1 UNK         0.0600 
    224 H224       -3.6614  -23.6040  -58.1581 H         1 UNK         0.0600 
    225 H225       -1.9318  -22.5111  -54.5667 H         1 UNK         0.3000 
    226 H226        0.5535  -21.4827  -55.0671 H         1 UNK         0.0600 
    227 H227        0.2667  -23.0428  -53.3031 H         1 UNK         0.0600 
    228 H228        0.8050  -21.5846  -52.4887 H         1 UNK         0.0600 
    229 H229       -0.8984  -22.0402  -52.4521 H         1 UNK         0.0600 
    230 H230       -2.1325  -19.5793  -53.7985 H         1 UNK         0.3000 
    231 H231       -0.6838  -17.1658  -54.6216 H         1 UNK         0.0600 
    232 H232       -0.2765  -17.2375  -52.1378 H         1 UNK         0.0600 
    233 H233       -2.0176  -17.3306  -51.8642 H         1 UNK         0.0600 
    234 H234       -1.3106  -15.8953  -52.5966 H         1 UNK         0.0600 
    235 H235       -2.4378  -18.6581  -56.0014 H         1 UNK         0.3000 
    236 H236       -4.2697  -18.7615  -57.1927 H         1 UNK         0.0600 
    237 H237       -5.2127  -16.0849  -56.0365 H         1 UNK         0.0600 
    238 H238       -4.2299  -16.2900  -57.4847 H         1 UNK         0.0600 
    239 H239       -5.8708  -16.9149  -57.4357 H         1 UNK         0.0600 
    240 H240       -5.1440  -17.5088  -53.9836 H         1 UNK         0.3000 
    241 H241       -6.2997  -18.2562  -52.2768 H         1 UNK         0.0600 
    242 H242       -7.9420  -17.6432  -54.9255 H         1 UNK         0.3800 
    243 H243       -9.5370  -18.1487  -54.4292 H         1 UNK         0.3800 
    244 H244       -6.1661  -21.0501  -53.4685 H         1 UNK         0.0800 
    245 H245       -6.4852  -20.6789  -51.8057 H         1 UNK         0.0800 
    246 H246       -3.8999  -21.4762  -50.2382 H         1 UNK         0.0800 
    247 H247       -5.0496  -20.1708  -50.1144 H         1 UNK         0.0800 
@<TRIPOS>BOND
     1    1    2 1    
     2    1  127 1    
     3    1  128 1    
     4    1  129 1    
     5    2    3 2    
     6    2    4 am   BACKBONE|DICT|INTERRES
     7    4    5 1    
     8    4  130 1    
     9    5    6 1    
    10    5   65 1    
    11    5  131 1    
    12    6    7 1    
    13    6  132 1    
    14    6  133 1    
    15    7    8 1    
    16    8    9 1    
    17    8  134 1    
    18    8  135 1    
    19    9   10 ar   
    20    9   14 ar   
    21   10   11 ar   
    22   10  136 1    
    23   11   12 ar   
    24   11  126 1    
    25   12   13 ar   
    26   12  137 1    
    27   13   14 ar   
    28   13   15 1    
    29   14  138 1    
    30   15   16 1    
    31   15  139 1    
    32   15  140 1    
    33   16   17 1    
    34   17   18 1    
    35   17  141 1    
    36   17  142 1    
    37   18   19 1    
    38   18   67 1    
    39   18  143 1    
    40   19   20 am   BACKBONE|DICT|INTERRES
    41   19  144 1    
    42   20   21 2    
    43   20   22 1    
    44   22   23 1    
    45   22   24 1    
    46   22  145 1    
    47   23  146 1    
    48   23  147 1    
    49   23  148 1    
    50   24   25 am   BACKBONE|DICT|INTERRES
    51   24  149 1    
    52   25   26 2    
    53   25   27 1    
    54   27   28 1    
    55   27   29 1    
    56   27  150 1    
    57   28  151 1    
    58   28  152 1    
    59   28  153 1    
    60   29   30 am   BACKBONE|DICT|INTERRES
    61   29  154 1    
    62   30   31 2    
    63   30   32 1    
    64   32   33 1    
    65   32   34 1    
    66   32  155 1    
    67   33  156 1    
    68   33  157 1    
    69   33  158 1    
    70   34   35 am   BACKBONE|DICT|INTERRES
    71   34  159 1    
    72   35   36 2    
    73   35   37 1    
    74   37   38 1    
    75   37   39 1    
    76   37  160 1    
    77   38  161 1    
    78   38  162 1    
    79   38  163 1    
    80   39   40 am   BACKBONE|DICT|INTERRES
    81   39  164 1    
    82   40   41 2    
    83   40   42 1    
    84   42   43 1    
    85   42   44 1    
    86   42  165 1    
    87   43  166 1    
    88   43  167 1    
    89   43  168 1    
    90   44   45 am   BACKBONE|DICT|INTERRES
    91   44  169 1    
    92   45   46 2    
    93   45   47 1    
    94   47   48 1    
    95   47   49 1    
    96   47  170 1    
    97   48  171 1    
    98   48  172 1    
    99   48  173 1    
   100   49   50 am   BACKBONE|DICT|INTERRES
   101   49  174 1    
   102   50   51 2    
   103   50   52 1    
   104   52   53 1    
   105   52   54 1    
   106   52  175 1    
   107   53  176 1    
   108   53  177 1    
   109   53  178 1    
   110   54   55 am   BACKBONE|DICT|INTERRES
   111   54  179 1    
   112   55   56 2    
   113   55   57 1    
   114   57   58 1    
   115   57   59 1    
   116   57  180 1    
   117   58  181 1    
   118   58  182 1    
   119   58  183 1    
   120   59   60 am   BACKBONE|DICT|INTERRES
   121   59  184 1    
   122   60   61 2    
   123   60   62 1    
   124   62   63 1    
   125   62   64 1    
   126   62  185 1    
   127   63  186 1    
   128   63  187 1    
   129   63  188 1    
   130   64   65 am   BACKBONE|DICT|INTERRES
   131   64  189 1    
   132   65   66 2    
   133   67   68 2    
   134   67   69 am   BACKBONE|DICT|INTERRES
   135   69   70 1    
   136   69  190 1    
   137   70   71 1    
   138   70   72 1    
   139   70  191 1    
   140   71  192 1    
   141   71  193 1    
   142   71  194 1    
   143   72   73 2    
   144   72   74 am   BACKBONE|DICT|INTERRES
   145   74   75 1    
   146   74  195 1    
   147   75   76 1    
   148   75   77 1    
   149   75  196 1    
   150   76  197 1    
   151   76  198 1    
   152   76  199 1    
   153   77   78 2    
   154   77   79 am   BACKBONE|DICT|INTERRES
   155   79   80 1    
   156   79  200 1    
   157   80   81 1    
   158   80   82 1    
   159   80  201 1    
   160   81  202 1    
   161   81  203 1    
   162   81  204 1    
   163   82   83 2    
   164   82   84 am   BACKBONE|DICT|INTERRES
   165   84   85 1    
   166   84  205 1    
   167   85   86 1    
   168   85   87 1    
   169   85  206 1    
   170   86  207 1    
   171   86  208 1    
   172   86  209 1    
   173   87   88 2    
   174   87   89 am   BACKBONE|DICT|INTERRES
   175   89   90 1    
   176   89  210 1    
   177   90   91 1    
   178   90   92 1    
   179   90  211 1    
   180   91  212 1    
   181   91  213 1    
   182   91  214 1    
   183   92   93 2    
   184   92   94 am   BACKBONE|DICT|INTERRES
   185   94   95 1    
   186   94  215 1    
   187   95   96 1    
   188   95   97 1    
   189   95  216 1    
   190   96  217 1    
   191   96  218 1    
   192   96  219 1    
   193   97   98 2    
   194   97   99 am   BACKBONE|DICT|INTERRES
   195   99  100 1    
   196   99  220 1    
   197  100  101 1    
   198  100  102 1    
   199  100  221 1    
   200  101  222 1    
   201  101  223 1    
   202  101  224 1    
   203  102  103 2    
   204  102  104 am   BACKBONE|DICT|INTERRES
   205  104  105 1    
   206  104  225 1    
   207  105  106 1    
   208  105  107 1    
   209  105  226 1    
   210  106  227 1    
   211  106  228 1    
   212  106  229 1    
   213  107  108 2    
   214  107  109 am   BACKBONE|DICT|INTERRES
   215  109  110 1    
   216  109  230 1    
   217  110  111 1    
   218  110  112 1    
   219  110  231 1    
   220  111  232 1    
   221  111  233 1    
   222  111  234 1    
   223  112  113 2    
   224  112  114 am   BACKBONE|DICT|INTERRES
   225  114  115 1    
   226  114  235 1    
   227  115  116 1    
   228  115  117 1    
   229  115  236 1    
   230  116  237 1    
   231  116  238 1    
   232  116  239 1    
   233  117  118 2    
   234  117  119 am   BACKBONE|DICT|INTERRES
   235  119  120 1    
   236  119  240 1    
   237  120  121 1    
   238  120  124 1    
   239  120  241 1    
   240  121  122 am   BACKBONE|DICT|INTERRES
   241  121  123 2    
   242  122  242 1    
   243  122  243 1    
   244  124  125 1    
   245  124  244 1    
   246  124  245 1    
   247  125  126 1    
   248  126  246 1    
   249  126  247 1    
@<TRIPOS>SUBSTRUCTURE
     1 UNK         1 GROUP             0       ****    0 ROOT    
