@<TRIPOS>MOLECULE
3R540
247   249    1
SMALL
USER_CHARGES


@<TRIPOS>ATOM
      1 CA          1.1685  -12.9677  -53.0952 C.3       0 UNK        -0.1800 
      2 C           1.4546  -12.0227  -51.9363 C.2       0 UNK         0.5000 
      3 O           1.3882  -10.8049  -52.1045 O.2       0 UNK        -0.5000 
      4 N           1.7771  -12.5803  -50.7641 N.am      1 UNK        -0.5000 
      5 CA          1.9790  -11.8660  -49.5013 C.3       1 UNK         0.1400 
      6 C6          2.6898  -12.7381  -48.4269 C.3       23 UNK        -0.0398 
      7 S7          2.1995  -14.5035  -48.4215 S.3       23 UNK        -0.2404 
      8 C8          3.6605  -15.2338  -49.2277 C.3       23 UNK        -0.0205 
      9 C9          3.3710  -16.6118  -49.7988 C.ar      23 UNK        -0.0193 
     10 C10         2.6460  -16.7322  -50.9878 C.ar      23 UNK        -0.1150 
     11 C11         2.3941  -17.9885  -51.5448 C.ar      23 UNK        -0.0193 
     12 C12         2.9073  -19.1277  -50.9171 C.ar      23 UNK        -0.1150 
     13 C13         3.6118  -19.0267  -49.7133 C.ar      23 UNK        -0.0193 
     14 C14         3.8399  -17.7629  -49.1586 C.ar      23 UNK        -0.1150 
     15 C15         4.1536  -20.2747  -49.0276 C.3       23 UNK        -0.0205 
     16 S16         2.8945  -21.5795  -48.8324 S.3       23 UNK        -0.2404 
     17 C17         3.9024  -22.9037  -48.0758 C.3       23 UNK        -0.0398 
     18 CA          3.1521  -23.7302  -47.0011 C.3       11 UNK         0.1400 
     19 N           2.5458  -22.8680  -45.9780 N.am      11 UNK        -0.5000 
     20 C           1.8294  -23.2199  -44.9026 C.2       10 UNK         0.5000 
     21 O           1.3149  -24.3281  -44.7428 O.2       10 UNK        -0.5000 
     22 CA          1.7154  -22.1671  -43.7829 C.3       10 UNK         0.1400 
     23 CB          2.6400  -20.9461  -43.9608 C.3       10 UNK        -0.1800 
     24 N           0.3421  -21.6981  -43.6619 N.am      10 UNK        -0.5000 
     25 C          -0.3190  -21.5456  -42.5055 C.2       9 UNK         0.5000 
     26 O           0.1592  -21.8343  -41.4071 O.2       9 UNK        -0.5000 
     27 CA         -1.7497  -20.9754  -42.5798 C.3       9 UNK         0.1400 
     28 CB         -2.0719  -20.0497  -41.3923 C.3       9 UNK        -0.1800 
     29 N          -1.9552  -20.2403  -43.8272 N.am      9 UNK        -0.5000 
     30 C          -2.8042  -20.5962  -44.7975 C.2       8 UNK         0.5000 
     31 O          -3.5662  -21.5593  -44.7233 O.2       8 UNK        -0.5000 
     32 CA         -2.8166  -19.7429  -46.0759 C.3       8 UNK         0.1400 
     33 CB         -3.9730  -18.7324  -46.0292 C.3       8 UNK        -0.1800 
     34 N          -1.5780  -19.0198  -46.3629 N.am      8 UNK        -0.5000 
     35 C          -0.3870  -19.5667  -46.6459 C.2       7 UNK         0.5000 
     36 O          -0.1207  -20.7568  -46.4729 O.2       7 UNK        -0.5000 
     37 CA          0.6778  -18.6088  -47.2080 C.3       7 UNK         0.1400 
     38 CB          0.2242  -18.0115  -48.5518 C.3       7 UNK        -0.1800 
     39 N           0.8805  -17.5206  -46.2611 N.am      7 UNK        -0.5000 
     40 C           1.9688  -17.3398  -45.5027 C.2       6 UNK         0.5000 
     41 O           3.0155  -17.9727  -45.6408 O.2       6 UNK        -0.5000 
     42 CA          1.8711  -16.2922  -44.3703 C.3       6 UNK         0.1400 
     43 CB          2.6921  -15.0360  -44.7005 C.3       6 UNK        -0.1800 
     44 N           0.5016  -15.8835  -44.0464 N.am      6 UNK        -0.5000 
     45 C          -0.4614  -16.6864  -43.5724 C.2       5 UNK         0.5000 
     46 O          -0.2886  -17.8715  -43.2919 O.2       5 UNK        -0.5000 
     47 CA         -1.8736  -16.0824  -43.4727 C.3       5 UNK         0.1400 
     48 CB         -2.1157  -15.5118  -42.0684 C.3       5 UNK        -0.1800 
     49 N          -2.1365  -15.0383  -44.4684 N.am      5 UNK        -0.5000 
     50 C          -2.1007  -15.1774  -45.7999 C.2       4 UNK         0.5000 
     51 O          -1.8274  -16.2374  -46.3618 O.2       4 UNK        -0.5000 
     52 CA         -2.3736  -13.9279  -46.6571 C.3       4 UNK         0.1400 
     53 CB         -3.8839  -13.6869  -46.8257 C.3       4 UNK        -0.1800 
     54 N          -1.6758  -12.7104  -46.2228 N.am      4 UNK        -0.5000 
     55 C          -1.8022  -12.0092  -45.0839 C.2       3 UNK         0.5000 
     56 O          -2.5765  -12.3081  -44.1741 O.2       3 UNK        -0.5000 
     57 CA         -0.8870  -10.7802  -44.9102 C.3       3 UNK         0.1400 
     58 CB          0.3442  -11.1567  -44.0707 C.3       3 UNK        -0.1800 
     59 N          -0.4354  -10.2084  -46.1789 N.am      3 UNK        -0.5000 
     60 C          -1.2256   -9.5848  -47.0635 C.2       2 UNK         0.5000 
     61 O          -2.4134   -9.3323  -46.8586 O.2       2 UNK        -0.5000 
     62 CA         -0.5909   -9.1940  -48.4134 C.3       2 UNK         0.1400 
     63 CB         -0.2386   -7.6985  -48.4263 C.3       2 UNK        -0.1800 
     64 N           0.6030   -9.9653  -48.7825 N.am      2 UNK        -0.5000 
     65 C           0.6430  -11.2892  -48.9914 C.2       1 UNK         0.5000 
     66 O          -0.3093  -12.0431  -48.7854 O.2       1 UNK        -0.5000 
     67 C           2.2557  -24.8110  -47.6437 C.2       11 UNK         0.5000 
     68 O           2.7658  -25.8915  -47.9468 O.2       11 UNK        -0.5000 
     69 N           0.9605  -24.5342  -47.8310 N.am      12 UNK        -0.5000 
     70 CA         -0.0069  -25.5041  -48.3492 C.3       12 UNK         0.1400 
     71 CB         -0.0202  -25.5093  -49.8900 C.3       12 UNK        -0.1800 
     72 C          -1.3854  -25.2726  -47.7186 C.2       12 UNK         0.5000 
     73 O          -2.4017  -25.2901  -48.4175 O.2       12 UNK        -0.5000 
     74 N          -1.3894  -25.0575  -46.3962 N.am      13 UNK        -0.5000 
     75 CA         -2.5897  -24.8580  -45.5832 C.3       13 UNK         0.1400 
     76 CB         -2.1662  -24.4451  -44.1689 C.3       13 UNK        -0.1800 
     77 C          -3.4909  -26.1029  -45.5173 C.2       13 UNK         0.5000 
     78 O          -4.7130  -25.9704  -45.5671 O.2       13 UNK        -0.5000 
     79 N          -2.8700  -27.2884  -45.4261 N.am      14 UNK        -0.5000 
     80 CA         -3.5542  -28.5821  -45.3416 C.3       14 UNK         0.1400 
     81 CB         -2.5420  -29.6642  -44.9361 C.3       14 UNK        -0.1800 
     82 C          -4.2674  -28.9695  -46.6498 C.2       14 UNK         0.5000 
     83 O          -5.3468  -29.5605  -46.6057 O.2       14 UNK        -0.5000 
     84 N          -3.6581  -28.6088  -47.7870 N.am      15 UNK        -0.5000 
     85 CA         -4.2289  -28.7804  -49.1241 C.3       15 UNK         0.1400 
     86 CB         -3.0828  -28.7934  -50.1482 C.3       15 UNK        -0.1800 
     87 C          -5.2405  -27.6736  -49.4795 C.2       15 UNK         0.5000 
     88 O          -6.0518  -27.8664  -50.3850 O.2       15 UNK        -0.5000 
     89 N          -5.1382  -26.5279  -48.7880 N.am      16 UNK        -0.5000 
     90 CA         -5.8491  -25.2642  -49.0099 C.3       16 UNK         0.1400 
     91 CB         -7.3690  -25.4304  -48.8095 C.3       16 UNK        -0.1800 
     92 C          -5.4905  -24.5932  -50.3536 C.2       16 UNK         0.5000 
     93 O          -6.2306  -23.7312  -50.8268 O.2       16 UNK        -0.5000 
     94 N          -4.3475  -24.9771  -50.9378 N.am      17 UNK        -0.5000 
     95 CA         -3.8422  -24.4537  -52.2070 C.3       17 UNK         0.1400 
     96 CB         -2.8415  -25.4576  -52.7987 C.3       17 UNK        -0.1800 
     97 C          -3.1947  -23.0672  -52.0483 C.2       17 UNK         0.5000 
     98 O          -3.1931  -22.2841  -52.9979 O.2       17 UNK        -0.5000 
     99 N          -2.6727  -22.7862  -50.8469 N.am      18 UNK        -0.5000 
    100 CA        -2.0421  -21.5151  -50.4930 C.3       18 UNK         0.1400 
    101 CB        -0.9303  -21.7864  -49.4714 C.3       18 UNK        -0.1800 
    102 C         -3.0410  -20.4661  -49.9650 C.2       18 UNK         0.5000 
    103 O         -2.6307  -19.3440  -49.6655 O.2       18 UNK        -0.5000 
    104 N         -4.3254  -20.8359  -49.8463 N.am      19 UNK        -0.5000 
    105 CA        -5.4125  -19.9857  -49.3592 C.3       19 UNK         0.1400 
    106 CB        -6.7260  -20.7799  -49.3796 C.3       19 UNK        -0.1800 
    107 C         -5.5557  -18.6782  -50.1611 C.2       19 UNK         0.5000 
    108 O         -5.4600  -18.7058  -51.3896 O.2       19 UNK        -0.5000 
    109 N         -5.7785  -17.5691  -49.4399 N.am      20 UNK        -0.5000 
    110 CA        -5.9123  -16.1996  -49.9511 C.3       20 UNK         0.1400 
    111 CB        -7.2303  -16.0438  -50.7389 C.3       20 UNK        -0.1800 
    112 C         -4.6728  -15.7362  -50.7471 C.2       20 UNK         0.5000 
    113 O         -4.8076  -15.2390  -51.8668 O.2       20 UNK        -0.5000 
    114 N         -3.4818  -15.9464  -50.1619 N.am      21 UNK        -0.5000 
    115 CA        -2.1614  -15.6193  -50.7232 C.3       21 UNK         0.1400 
    116 CB        -1.9840  -14.0904  -50.8308 C.3       21 UNK        -0.1800 
    117 C         -1.8867  -16.3430  -52.0604 C.2       21 UNK         0.5000 
    118 O         -1.3108  -15.7565  -52.9782 O.2       21 UNK        -0.5000 
    119 N         -2.3459  -17.5974  -52.1452 N.am      22 UNK        -0.5000 
    120 CA        -2.3626  -18.4551  -53.3433 C.3       22 UNK         0.1400 
    121 C         -3.3674  -18.0090  -54.4514 C.2       22 UNK         0.5000 
    122 N         -4.2482  -17.0421  -54.2203 N.am      22 UNK        -0.7600 
    123 O         -3.3680  -18.5672  -55.5455 O.2       22 UNK        -0.5000 
    124 C124       -0.9517  -18.7542  -53.9310 C.3       23 UNK        -0.0398 
    125 S125        0.2417  -19.3416  -52.6808 S.3       23 UNK        -0.2404 
    126 C126        1.5719  -18.1021  -52.8223 C.3       23 UNK        -0.0205 
    127 H127        1.2374  -14.0134  -52.7945 H         1 UNK         0.0600 
    128 H128        0.1628  -12.7958  -53.4793 H         1 UNK         0.0600 
    129 H129        1.8785  -12.7978  -53.9044 H         1 UNK         0.0600 
    130 H130        1.7757  -13.5857  -50.6728 H         1 UNK         0.3000 
    131 H131        2.6408  -11.0233  -49.7137 H         1 UNK         0.0600 
    132 H132        3.7676  -12.6785  -48.5829 H         1 UNK         0.0800 
    133 H133        2.5350  -12.3354  -47.4243 H         1 UNK         0.0800 
    134 H134        3.9995  -14.5864  -50.0380 H         1 UNK         0.0800 
    135 H135        4.4790  -15.2789  -48.5076 H         1 UNK         0.0800 
    136 H136        2.2714  -15.8437  -51.4747 H         1 UNK         0.1150 
    137 H137        2.7332  -20.1011  -51.3534 H         1 UNK         0.1150 
    138 H138        4.3896  -17.6730  -48.2320 H         1 UNK         0.1150 
    139 H139        4.9862  -20.6625  -49.6160 H         1 UNK         0.0800 
    140 H140        4.5519  -20.0235  -48.0432 H         1 UNK         0.0800 
    141 H141        4.7804  -22.4507  -47.6135 H         1 UNK         0.0800 
    142 H142        4.2943  -23.5444  -48.8681 H         1 UNK         0.0800 
    143 H143        3.9159  -24.2942  -46.4618 H         1 UNK         0.0600 
    144 H144        2.8352  -21.9023  -46.0294 H         1 UNK         0.3000 
    145 H145        2.0187  -22.6816  -42.8690 H         1 UNK         0.0600 
    146 H146        2.5623  -20.2697  -43.1092 H         1 UNK         0.0600 
    147 H147        3.6863  -21.2440  -44.0391 H         1 UNK         0.0600 
    148 H148        2.3809  -20.3773  -44.8533 H         1 UNK         0.0600 
    149 H149       -0.1140  -21.4535  -44.5353 H         1 UNK         0.3000 
    150 H150       -2.4252  -21.8306  -42.5222 H         1 UNK         0.0600 
    151 H151       -2.0426  -20.5976  -40.4499 H         1 UNK         0.0600 
    152 H152       -3.0699  -19.6214  -41.4856 H         1 UNK         0.0600 
    153 H153       -1.3604  -19.2279  -41.3139 H         1 UNK         0.0600 
    154 H154       -1.3527  -19.4332  -43.9593 H         1 UNK         0.3000 
    155 H155       -2.9908  -20.4233  -46.9114 H         1 UNK         0.0600 
    156 H156       -4.0180  -18.1425  -46.9444 H         1 UNK         0.0600 
    157 H157       -3.8682  -18.0393  -45.1953 H         1 UNK         0.0600 
    158 H158       -4.9322  -19.2385  -45.9127 H         1 UNK         0.0600 
    159 H159       -1.6850  -18.0163  -46.4934 H         1 UNK         0.3000 
    160 H160        1.6040  -19.1643  -47.3659 H         1 UNK         0.0600 
    161 H161       -0.8001  -17.6429  -48.5176 H         1 UNK         0.0600 
    162 H162        0.2819  -18.7466  -49.3533 H         1 UNK         0.0600 
    163 H163        0.8535  -17.1741  -48.8419 H         1 UNK         0.0600 
    164 H164        0.0692  -16.9420  -46.0814 H         1 UNK         0.3000 
    165 H165        2.2995  -16.7541  -43.4785 H         1 UNK         0.0600 
    166 H166        2.2393  -14.4618  -45.5080 H         1 UNK         0.0600 
    167 H167        2.7737  -14.3812  -43.8328 H         1 UNK         0.0600 
    168 H168        3.7063  -15.2947  -45.0079 H         1 UNK         0.0600 
    169 H169        0.2550  -14.9292  -44.2611 H         1 UNK         0.3000 
    170 H170       -2.5866  -16.8907  -43.6388 H         1 UNK         0.0600 
    171 H171       -1.9486  -16.2713  -41.3033 H         1 UNK         0.0600 
    172 H172       -1.4499  -14.6748  -41.8543 H         1 UNK         0.0600 
    173 H173       -3.1417  -15.1604  -41.9579 H         1 UNK         0.0600 
    174 H174       -2.3694  -14.1130  -44.1135 H         1 UNK         0.3000 
    175 H175       -1.9683  -14.1504  -47.6447 H         1 UNK         0.0600 
    176 H176       -4.3773  -14.5739  -47.2244 H         1 UNK         0.0600 
    177 H177       -4.3668  -13.4426  -45.8792 H         1 UNK         0.0600 
    178 H178       -4.0740  -12.8690  -47.5208 H         1 UNK         0.0600 
    179 H179       -1.0217  -12.3561  -46.9137 H         1 UNK         0.3000 
    180 H180       -1.4538  -10.0179  -44.3716 H         1 UNK         0.0600 
    181 H181        0.9589  -11.9075  -44.5694 H         1 UNK         0.0600 
    182 H182        0.0483  -11.5650  -43.1033 H         1 UNK         0.0600 
    183 H183        0.9699  -10.2857  -43.8754 H         1 UNK         0.0600 
    184 H184        0.5322  -10.3522  -46.4254 H         1 UNK         0.3000 
    185 H185       -1.3446   -9.3731  -49.1830 H         1 UNK         0.0600 
    186 H186        0.1148   -7.3841  -49.4085 H         1 UNK         0.0600 
    187 H187       -1.1106   -7.0881  -48.1871 H         1 UNK         0.0600 
    188 H188        0.5373   -7.4622  -47.6971 H         1 UNK         0.0600 
    189 H189        1.4317   -9.4213  -48.9763 H         1 UNK         0.3000 
    190 H190        0.6046  -23.6308  -47.5470 H         1 UNK         0.3000 
    191 H191        0.2869  -26.5040  -48.0230 H         1 UNK         0.0600 
    192 H192        0.9825  -25.6401  -50.2967 H         1 UNK         0.0600 
    193 H193       -0.6267  -26.3333  -50.2651 H         1 UNK         0.0600 
    194 H194       -0.4311  -24.5908  -50.3026 H         1 UNK         0.0600 
    195 H195       -0.5030  -25.0351  -45.9049 H         1 UNK         0.3000 
    196 H196       -3.1681  -24.0439  -46.0254 H         1 UNK         0.0600 
    197 H197       -3.0348  -24.2381  -43.5425 H         1 UNK         0.0600 
    198 H198       -1.5672  -23.5394  -44.2054 H         1 UNK         0.0600 
    199 H199       -1.5742  -25.2174  -43.6762 H         1 UNK         0.0600 
    200 H200       -1.8616  -27.3020  -45.3832 H         1 UNK         0.3000 
    201 H201       -4.3126  -28.5145  -44.5586 H         1 UNK         0.0600 
    202 H202       -2.0878  -29.4377  -43.9713 H         1 UNK         0.0600 
    203 H203       -1.7410  -29.7640  -45.6698 H         1 UNK         0.0600 
    204 H204       -3.0266  -30.6372  -44.8450 H         1 UNK         0.0600 
    205 H205       -2.7701  -28.1339  -47.7275 H         1 UNK         0.3000 
    206 H206       -4.7481  -29.7398  -49.1750 H         1 UNK         0.0600 
    207 H207       -2.3791  -29.6003  -49.9430 H         1 UNK         0.0600 
    208 H208       -3.4630  -28.9447  -51.1595 H         1 UNK         0.0600 
    209 H209       -2.5284  -27.8546  -50.1441 H         1 UNK         0.0600 
    210 H210       -4.4147  -26.4802  -48.0836 H         1 UNK         0.3000 
    211 H211       -5.4903  -24.5850  -48.2351 H         1 UNK         0.0600 
    212 H212       -7.8207  -26.0311  -49.5991 H         1 UNK         0.0600 
    213 H213       -7.8709  -24.4621  -48.8104 H         1 UNK         0.0600 
    214 H214       -7.5894  -25.9077  -47.8546 H         1 UNK         0.0600 
    215 H215       -3.7711  -25.6506  -50.4533 H         1 UNK         0.3000 
    216 H216       -4.6776  -24.3547  -52.9037 H         1 UNK         0.0600 
    217 H217       -3.3048  -26.4326  -52.9517 H         1 UNK         0.0600 
    218 H218       -1.9763  -25.5954  -52.1508 H         1 UNK         0.0600 
    219 H219       -2.4743  -25.1165  -53.7674 H         1 UNK         0.0600 
    220 H220       -2.7238  -23.4891  -50.1215 H         1 UNK         0.3000 
    221 H221       -1.5785  -21.0889  -51.3820 H         1 UNK         0.0600 
    222 H222       -1.3156  -22.2431  -48.5594 H         1 UNK         0.0600 
    223 H223       -0.1585  -22.4323  -49.8853 H         1 UNK         0.0600 
    224 H224       -0.4277  -20.8639  -49.1940 H         1 UNK         0.0600 
    225 H225       -4.5878  -21.7545  -50.1716 H         1 UNK         0.3000 
    226 H226       -5.1850  -19.7396  -48.3230 H         1 UNK         0.0600 
    227 H227       -6.6545  -21.6812  -48.7704 H         1 UNK         0.0600 
    228 H228       -7.5498  -20.1848  -48.9835 H         1 UNK         0.0600 
    229 H229       -6.9962  -21.0798  -50.3930 H         1 UNK         0.0600 
    230 H230       -5.8524  -17.6597  -48.4368 H         1 UNK         0.3000 
    231 H231       -5.9746  -15.5467  -49.0793 H         1 UNK         0.0600 
    232 H232       -8.0870  -16.3477  -50.1376 H         1 UNK         0.0600 
    233 H233       -7.2320  -16.6420  -51.6507 H         1 UNK         0.0600 
    234 H234       -7.3909  -15.0050  -51.0297 H         1 UNK         0.0600 
    235 H235       -3.4689  -16.4242  -49.2720 H         1 UNK         0.3000 
    236 H236       -1.4198  -15.9850  -50.0136 H         1 UNK         0.0600 
    237 H237       -0.9455  -13.8356  -51.0408 H         1 UNK         0.0600 
    238 H238       -2.5930  -13.6653  -51.6290 H         1 UNK         0.0600 
    239 H239       -2.2587  -13.5893  -49.9038 H         1 UNK         0.0600 
    240 H240       -2.7812  -17.9993  -51.3233 H         1 UNK         0.3000 
    241 H241       -2.7635  -19.4053  -52.9896 H         1 UNK         0.0600 
    242 H242       -4.8930  -16.7806  -54.9483 H         1 UNK         0.3800 
    243 H243       -4.2859  -16.5643  -53.3269 H         1 UNK         0.3800 
    244 H244       -1.0228  -19.5310  -54.6938 H         1 UNK         0.0800 
    245 H245       -0.5582  -17.8747  -54.4417 H         1 UNK         0.0800 
    246 H246        1.1348  -17.1327  -53.0656 H         1 UNK         0.0800 
    247 H247        2.2271  -18.3685  -53.6523 H         1 UNK         0.0800 
@<TRIPOS>BOND
     1    1    2 1    
     2    1  127 1    
     3    1  128 1    
     4    1  129 1    
     5    2    3 2    
     6    2    4 am   BACKBONE|DICT|INTERRES
     7    4    5 1    
     8    4  130 1    
     9    5    6 1    
    10    5   65 1    
    11    5  131 1    
    12    6    7 1    
    13    6  132 1    
    14    6  133 1    
    15    7    8 1    
    16    8    9 1    
    17    8  134 1    
    18    8  135 1    
    19    9   10 ar   
    20    9   14 ar   
    21   10   11 ar   
    22   10  136 1    
    23   11   12 ar   
    24   11  126 1    
    25   12   13 ar   
    26   12  137 1    
    27   13   14 ar   
    28   13   15 1    
    29   14  138 1    
    30   15   16 1    
    31   15  139 1    
    32   15  140 1    
    33   16   17 1    
    34   17   18 1    
    35   17  141 1    
    36   17  142 1    
    37   18   19 1    
    38   18   67 1    
    39   18  143 1    
    40   19   20 am   BACKBONE|DICT|INTERRES
    41   19  144 1    
    42   20   21 2    
    43   20   22 1    
    44   22   23 1    
    45   22   24 1    
    46   22  145 1    
    47   23  146 1    
    48   23  147 1    
    49   23  148 1    
    50   24   25 am   BACKBONE|DICT|INTERRES
    51   24  149 1    
    52   25   26 2    
    53   25   27 1    
    54   27   28 1    
    55   27   29 1    
    56   27  150 1    
    57   28  151 1    
    58   28  152 1    
    59   28  153 1    
    60   29   30 am   BACKBONE|DICT|INTERRES
    61   29  154 1    
    62   30   31 2    
    63   30   32 1    
    64   32   33 1    
    65   32   34 1    
    66   32  155 1    
    67   33  156 1    
    68   33  157 1    
    69   33  158 1    
    70   34   35 am   BACKBONE|DICT|INTERRES
    71   34  159 1    
    72   35   36 2    
    73   35   37 1    
    74   37   38 1    
    75   37   39 1    
    76   37  160 1    
    77   38  161 1    
    78   38  162 1    
    79   38  163 1    
    80   39   40 am   BACKBONE|DICT|INTERRES
    81   39  164 1    
    82   40   41 2    
    83   40   42 1    
    84   42   43 1    
    85   42   44 1    
    86   42  165 1    
    87   43  166 1    
    88   43  167 1    
    89   43  168 1    
    90   44   45 am   BACKBONE|DICT|INTERRES
    91   44  169 1    
    92   45   46 2    
    93   45   47 1    
    94   47   48 1    
    95   47   49 1    
    96   47  170 1    
    97   48  171 1    
    98   48  172 1    
    99   48  173 1    
   100   49   50 am   BACKBONE|DICT|INTERRES
   101   49  174 1    
   102   50   51 2    
   103   50   52 1    
   104   52   53 1    
   105   52   54 1    
   106   52  175 1    
   107   53  176 1    
   108   53  177 1    
   109   53  178 1    
   110   54   55 am   BACKBONE|DICT|INTERRES
   111   54  179 1    
   112   55   56 2    
   113   55   57 1    
   114   57   58 1    
   115   57   59 1    
   116   57  180 1    
   117   58  181 1    
   118   58  182 1    
   119   58  183 1    
   120   59   60 am   BACKBONE|DICT|INTERRES
   121   59  184 1    
   122   60   61 2    
   123   60   62 1    
   124   62   63 1    
   125   62   64 1    
   126   62  185 1    
   127   63  186 1    
   128   63  187 1    
   129   63  188 1    
   130   64   65 am   BACKBONE|DICT|INTERRES
   131   64  189 1    
   132   65   66 2    
   133   67   68 2    
   134   67   69 am   BACKBONE|DICT|INTERRES
   135   69   70 1    
   136   69  190 1    
   137   70   71 1    
   138   70   72 1    
   139   70  191 1    
   140   71  192 1    
   141   71  193 1    
   142   71  194 1    
   143   72   73 2    
   144   72   74 am   BACKBONE|DICT|INTERRES
   145   74   75 1    
   146   74  195 1    
   147   75   76 1    
   148   75   77 1    
   149   75  196 1    
   150   76  197 1    
   151   76  198 1    
   152   76  199 1    
   153   77   78 2    
   154   77   79 am   BACKBONE|DICT|INTERRES
   155   79   80 1    
   156   79  200 1    
   157   80   81 1    
   158   80   82 1    
   159   80  201 1    
   160   81  202 1    
   161   81  203 1    
   162   81  204 1    
   163   82   83 2    
   164   82   84 am   BACKBONE|DICT|INTERRES
   165   84   85 1    
   166   84  205 1    
   167   85   86 1    
   168   85   87 1    
   169   85  206 1    
   170   86  207 1    
   171   86  208 1    
   172   86  209 1    
   173   87   88 2    
   174   87   89 am   BACKBONE|DICT|INTERRES
   175   89   90 1    
   176   89  210 1    
   177   90   91 1    
   178   90   92 1    
   179   90  211 1    
   180   91  212 1    
   181   91  213 1    
   182   91  214 1    
   183   92   93 2    
   184   92   94 am   BACKBONE|DICT|INTERRES
   185   94   95 1    
   186   94  215 1    
   187   95   96 1    
   188   95   97 1    
   189   95  216 1    
   190   96  217 1    
   191   96  218 1    
   192   96  219 1    
   193   97   98 2    
   194   97   99 am   BACKBONE|DICT|INTERRES
   195   99  100 1    
   196   99  220 1    
   197  100  101 1    
   198  100  102 1    
   199  100  221 1    
   200  101  222 1    
   201  101  223 1    
   202  101  224 1    
   203  102  103 2    
   204  102  104 am   BACKBONE|DICT|INTERRES
   205  104  105 1    
   206  104  225 1    
   207  105  106 1    
   208  105  107 1    
   209  105  226 1    
   210  106  227 1    
   211  106  228 1    
   212  106  229 1    
   213  107  108 2    
   214  107  109 am   BACKBONE|DICT|INTERRES
   215  109  110 1    
   216  109  230 1    
   217  110  111 1    
   218  110  112 1    
   219  110  231 1    
   220  111  232 1    
   221  111  233 1    
   222  111  234 1    
   223  112  113 2    
   224  112  114 am   BACKBONE|DICT|INTERRES
   225  114  115 1    
   226  114  235 1    
   227  115  116 1    
   228  115  117 1    
   229  115  236 1    
   230  116  237 1    
   231  116  238 1    
   232  116  239 1    
   233  117  118 2    
   234  117  119 am   BACKBONE|DICT|INTERRES
   235  119  120 1    
   236  119  240 1    
   237  120  121 1    
   238  120  124 1    
   239  120  241 1    
   240  121  122 am   BACKBONE|DICT|INTERRES
   241  121  123 2    
   242  122  242 1    
   243  122  243 1    
   244  124  125 1    
   245  124  244 1    
   246  124  245 1    
   247  125  126 1    
   248  126  246 1    
   249  126  247 1    
@<TRIPOS>SUBSTRUCTURE
     1 UNK         1 GROUP             0       ****    0 ROOT    
