@<TRIPOS>MOLECULE
3R540
247   249    1
SMALL
USER_CHARGES


@<TRIPOS>ATOM
      1 CA         -5.4034  -14.0495  -48.8420 C.3       0 UNK        -0.1800 
      2 C          -4.2375  -13.8290  -49.7956 C.2       0 UNK         0.5000 
      3 O          -4.1147  -12.7513  -50.3774 O.2       0 UNK        -0.5000 
      4 N          -3.3867  -14.8486  -49.9567 N.am      1 UNK        -0.5000 
      5 CA         -2.1757  -14.8323  -50.7862 C.3       1 UNK         0.1400 
      6 C6         -1.6092  -16.2577  -51.0062 C.3       23 UNK        -0.0398 
      7 S7         -1.4306  -17.2188  -49.4612 S.3       23 UNK        -0.2404 
      8 C8         -1.1455  -18.8816  -50.1216 C.3       23 UNK        -0.0205 
      9 C9          0.2971  -19.0832  -50.5438 C.ar      23 UNK        -0.0193 
     10 C10         0.6651  -18.9612  -51.8837 C.ar      23 UNK        -0.1150 
     11 C11         1.9899  -19.1728  -52.2775 C.ar      23 UNK        -0.0193 
     12 C12         2.9529  -19.4821  -51.3105 C.ar      23 UNK        -0.1150 
     13 C13         2.5988  -19.5851  -49.9605 C.ar      23 UNK        -0.0193 
     14 C14         1.2654  -19.4022  -49.5903 C.ar      23 UNK        -0.1150 
     15 C15         3.6607  -19.8459  -48.9004 C.3       23 UNK        -0.0205 
     16 S16         3.5445  -21.5167  -48.1860 S.3       23 UNK        -0.2404 
     17 C17         2.6031  -21.2350  -46.6435 C.3       23 UNK        -0.0398 
     18 CA          1.5600  -22.3544  -46.3909 C.3       11 UNK         0.1400 
     19 N           1.4501  -22.7154  -44.9733 N.am      11 UNK        -0.5000 
     20 C           0.9223  -23.8708  -44.5424 C.2       10 UNK         0.5000 
     21 O           0.4796  -24.7402  -45.2926 O.2       10 UNK        -0.5000 
     22 CA          0.8344  -24.0710  -43.0196 C.3       10 UNK         0.1400 
     23 CB          2.1837  -24.5375  -42.4538 C.3       10 UNK        -0.1800 
     24 N           0.3993  -22.8708  -42.3058 N.am      10 UNK        -0.5000 
     25 C          -0.7766  -22.2536  -42.4698 C.2       9 UNK         0.5000 
     26 O          -1.6263  -22.6257  -43.2774 O.2       9 UNK        -0.5000 
     27 CA         -1.0499  -20.9975  -41.6236 C.3       9 UNK         0.1400 
     28 CB         -1.6929  -21.3616  -40.2733 C.3       9 UNK        -0.1800 
     29 N           0.1088  -20.1160  -41.4481 N.am      9 UNK        -0.5000 
     30 C           1.2412  -20.3095  -40.7576 C.2       8 UNK         0.5000 
     31 O           1.5240  -21.3548  -40.1713 O.2       8 UNK        -0.5000 
     32 CA          2.2360  -19.1349  -40.7376 C.3       8 UNK         0.1400 
     33 CB          3.2098  -19.2468  -41.9208 C.3       8 UNK        -0.1800 
     34 N           1.5712  -17.8296  -40.7735 N.am      8 UNK        -0.5000 
     35 C           0.8207  -17.3321  -39.7791 C.2       7 UNK         0.5000 
     36 O           0.6730  -17.8877  -38.6897 O.2       7 UNK        -0.5000 
     37 CA          0.0956  -16.0017  -40.0516 C.3       7 UNK         0.1400 
     38 CB          1.0466  -14.8125  -39.8483 C.3       7 UNK        -0.1800 
     39 N          -0.4924  -15.9397  -41.3909 N.am      7 UNK        -0.5000 
     40 C          -1.5202  -16.6921  -41.8115 C.2       6 UNK         0.5000 
     41 O          -2.1183  -17.4964  -41.0969 O.2       6 UNK        -0.5000 
     42 CA         -1.9289  -16.5489  -43.2903 C.3       6 UNK         0.1400 
     43 CB         -2.8432  -15.3325  -43.4981 C.3       6 UNK        -0.1800 
     44 N          -0.7753  -16.4475  -44.1826 N.am      6 UNK        -0.5000 
     45 C           0.1143  -17.4293  -44.3837 C.2       5 UNK         0.5000 
     46 O           0.0276  -18.5522  -43.8865 O.2       5 UNK        -0.5000 
     47 CA          1.3263  -17.0849  -45.2620 C.3       5 UNK         0.1400 
     48 CB          0.9583  -17.1964  -46.7457 C.3       5 UNK        -0.1800 
     49 N           1.8568  -15.7510  -44.9801 N.am      5 UNK        -0.5000 
     50 C           2.4576  -15.4047  -43.8327 C.2       4 UNK         0.5000 
     51 O           2.6570  -16.1850  -42.9033 O.2       4 UNK        -0.5000 
     52 CA          2.8615  -13.9275  -43.6815 C.3       4 UNK         0.1400 
     53 CB          4.2094  -13.6612  -44.3679 C.3       4 UNK        -0.1800 
     54 N           1.8536  -13.0126  -44.2182 N.am      4 UNK        -0.5000 
     55 C           0.6170  -12.8651  -43.7204 C.2       3 UNK         0.5000 
     56 O           0.2021  -13.4652  -42.7305 O.2       3 UNK        -0.5000 
     57 CA         -0.3295  -11.9291  -44.4934 C.3       3 UNK         0.1400 
     58 CB         -0.1577  -10.4765  -44.0253 C.3       3 UNK        -0.1800 
     59 N          -0.1298  -12.0036  -45.9432 N.am      3 UNK        -0.5000 
     60 C          -0.3806  -13.0933  -46.6789 C.2       2 UNK         0.5000 
     61 O          -0.8329  -14.1450  -46.2166 O.2       2 UNK        -0.5000 
     62 CA         -0.0110  -13.0132  -48.1636 C.3       2 UNK         0.1400 
     63 CB          1.4472  -13.4644  -48.3763 C.3       2 UNK        -0.1800 
     64 N          -0.9264  -13.8666  -48.9083 N.am      2 UNK        -0.5000 
     65 C          -1.1000  -13.8714  -50.2350 C.2       1 UNK         0.5000 
     66 O          -0.4775  -13.1434  -51.0100 O.2       1 UNK        -0.5000 
     67 C           0.1814  -22.0258  -47.0000 C.2       11 UNK         0.5000 
     68 O          -0.0765  -22.3939  -48.1443 O.2       11 UNK        -0.5000 
     69 N          -0.7034  -21.3953  -46.2104 N.am      12 UNK        -0.5000 
     70 CA         -2.0980  -21.1508  -46.5822 C.3       12 UNK         0.1400 
     71 CB         -2.7590  -20.1942  -45.5795 C.3       12 UNK        -0.1800 
     72 C          -2.8974  -22.4570  -46.7333 C.2       12 UNK         0.5000 
     73 O          -3.6360  -22.6012  -47.7075 O.2       12 UNK        -0.5000 
     74 N          -2.6995  -23.4018  -45.8041 N.am      13 UNK        -0.5000 
     75 CA         -3.2758  -24.7459  -45.8441 C.3       13 UNK         0.1400 
     76 CB         -2.9854  -25.4756  -44.5243 C.3       13 UNK        -0.1800 
     77 C          -2.7838  -25.5655  -47.0512 C.2       13 UNK         0.5000 
     78 O          -3.6041  -26.1724  -47.7404 O.2       13 UNK        -0.5000 
     79 N          -1.4703  -25.5235  -47.3230 N.am      14 UNK        -0.5000 
     80 CA         -0.8344  -26.1521  -48.4872 C.3       14 UNK         0.1400 
     81 CB          0.6912  -26.0172  -48.3739 C.3       14 UNK        -0.1800 
     82 C          -1.3293  -25.5815  -49.8316 C.2       14 UNK         0.5000 
     83 O          -1.4468  -26.3250  -50.8055 O.2       14 UNK        -0.5000 
     84 N          -1.6625  -24.2855  -49.8398 N.am      15 UNK        -0.5000 
     85 CA         -2.2891  -23.5601  -50.9443 C.3       15 UNK         0.1400 
     86 CB         -1.9526  -22.0708  -50.7888 C.3       15 UNK        -0.1800 
     87 C          -3.8157  -23.7737  -51.0456 C.2       15 UNK         0.5000 
     88 O          -4.4642  -23.0428  -51.7957 O.2       15 UNK        -0.5000 
     89 N          -4.3655  -24.7415  -50.2953 N.am      16 UNK        -0.5000 
     90 CA         -5.7737  -25.1447  -50.2414 C.3       16 UNK         0.1400 
     91 CB         -6.2374  -25.7188  -51.5966 C.3       16 UNK        -0.1800 
     92 C          -6.6813  -24.0223  -49.7038 C.2       16 UNK         0.5000 
     93 O          -7.6690  -23.6585  -50.3427 O.2       16 UNK        -0.5000 
     94 N          -6.3003  -23.4901  -48.5339 N.am      17 UNK        -0.5000 
     95 CA         -6.9018  -22.3496  -47.8338 C.3       17 UNK         0.1400 
     96 CB         -8.3689  -22.6271  -47.4428 C.3       17 UNK        -0.1800 
     97 C          -6.7047  -21.0385  -48.6199 C.2       17 UNK         0.5000 
     98 O          -7.6451  -20.2597  -48.7855 O.2       17 UNK        -0.5000 
     99 N          -5.4642  -20.8409  -49.0910 N.am      18 UNK        -0.5000 
    100 CA        -4.9804  -19.7083  -49.8861 C.3       18 UNK         0.1400 
    101 CB        -4.9424  -18.4231  -49.0335 C.3       18 UNK        -0.1800 
    102 C         -5.7269  -19.5296  -51.2263 C.2       18 UNK         0.5000 
    103 O         -5.9596  -18.3995  -51.6590 O.2       18 UNK        -0.5000 
    104 N         -6.0865  -20.6515  -51.8652 N.am      19 UNK        -0.5000 
    105 CA        -6.6937  -20.6836  -53.1945 C.3       19 UNK         0.1400 
    106 CB        -7.4106  -22.0248  -53.4043 C.3       19 UNK        -0.1800 
    107 C         -5.6485  -20.4445  -54.2973 C.2       19 UNK         0.5000 
    108 O         -5.9631  -19.7963  -55.2966 O.2       19 UNK        -0.5000 
    109 N         -4.4212  -20.9464  -54.0910 N.am      20 UNK        -0.5000 
    110 CA        -3.2641  -20.6415  -54.9317 C.3       20 UNK         0.1400 
    111 CB        -2.1258  -21.6323  -54.6418 C.3       20 UNK        -0.1800 
    112 C         -2.8140  -19.1878  -54.6961 C.2       20 UNK         0.5000 
    113 O         -2.6023  -18.7965  -53.5470 O.2       20 UNK        -0.5000 
    114 N         -2.7132  -18.4177  -55.7852 N.am      21 UNK        -0.5000 
    115 CA        -2.3863  -16.9923  -55.7822 C.3       21 UNK         0.1400 
    116 CB        -2.6511  -16.3865  -57.1699 C.3       21 UNK        -0.1800 
    117 C         -0.9938  -16.6167  -55.2190 C.2       21 UNK         0.5000 
    118 O         -0.9456  -15.7486  -54.3494 O.2       21 UNK        -0.5000 
    119 N          0.1363  -17.2115  -55.6348 N.am      22 UNK        -0.5000 
    120 CA         0.3717  -18.1682  -56.7351 C.3       22 UNK         0.1400 
    121 C          0.5847  -17.4929  -58.1221 C.2       22 UNK         0.5000 
    122 N          0.6810  -16.1720  -58.2141 N.am      22 UNK        -0.7600 
    123 O          0.6453  -18.1806  -59.1372 O.2       22 UNK        -0.5000 
    124 C124        1.5643  -19.1123  -56.4198 C.3       23 UNK        -0.0398 
    125 S125        1.3608  -20.0272  -54.8539 S.3       23 UNK        -0.2404 
    126 C126        2.3857  -19.0116  -53.7378 C.3       23 UNK        -0.0205 
    127 H127       -5.3973  -15.0545  -48.4189 H         1 UNK         0.0600 
    128 H128       -5.3565  -13.3344  -48.0207 H         1 UNK         0.0600 
    129 H129       -6.3488  -13.9080  -49.3659 H         1 UNK         0.0600 
    130 H130       -3.5347  -15.7050  -49.4427 H         1 UNK         0.3000 
    131 H131       -2.4625  -14.4469  -51.7672 H         1 UNK         0.0600 
    132 H132       -0.6488  -16.2245  -51.5243 H         1 UNK         0.0800 
    133 H133       -2.2814  -16.8034  -51.6699 H         1 UNK         0.0800 
    134 H134       -1.3895  -19.6027  -49.3461 H         1 UNK         0.0800 
    135 H135       -1.8237  -19.0766  -50.9529 H         1 UNK         0.0800 
    136 H136       -0.0813  -18.7063  -52.6233 H         1 UNK         0.1150 
    137 H137        3.9833  -19.6220  -51.6059 H         1 UNK         0.1150 
    138 H138        0.9783  -19.5043  -48.5570 H         1 UNK         0.1150 
    139 H139        4.6551  -19.7335  -49.3349 H         1 UNK         0.0800 
    140 H140        3.5941  -19.0903  -48.1165 H         1 UNK         0.0800 
    141 H141        2.1455  -20.2447  -46.6352 H         1 UNK         0.0800 
    142 H142        3.3408  -21.2198  -45.8399 H         1 UNK         0.0800 
    143 H143        1.9127  -23.2552  -46.8984 H         1 UNK         0.0600 
    144 H144        1.7780  -22.0459  -44.2932 H         1 UNK         0.3000 
    145 H145        0.0963  -24.8534  -42.8317 H         1 UNK         0.0600 
    146 H146        2.1056  -24.7695  -41.3915 H         1 UNK         0.0600 
    147 H147        2.5282  -25.4410  -42.9588 H         1 UNK         0.0600 
    148 H148        2.9566  -23.7774  -42.5741 H         1 UNK         0.0600 
    149 H149        1.0172  -22.5050  -41.5867 H         1 UNK         0.3000 
    150 H150       -1.7771  -20.4035  -42.1794 H         1 UNK         0.0600 
    151 H151       -2.6175  -21.9206  -40.4226 H         1 UNK         0.0600 
    152 H152       -1.9423  -20.4656  -39.7045 H         1 UNK         0.0600 
    153 H153       -1.0359  -21.9781  -39.6594 H         1 UNK         0.0600 
    154 H154        0.0477  -19.2550  -41.9814 H         1 UNK         0.3000 
    155 H155        2.8110  -19.2003  -39.8117 H         1 UNK         0.0600 
    156 H156        3.9707  -18.4674  -41.8789 H         1 UNK         0.0600 
    157 H157        2.6929  -19.1580  -42.8770 H         1 UNK         0.0600 
    158 H158        3.7277  -20.2067  -41.9135 H         1 UNK         0.0600 
    159 H159        1.7102  -17.2726  -41.6120 H         1 UNK         0.3000 
    160 H160       -0.7156  -15.9118  -39.3261 H         1 UNK         0.0600 
    161 H161        0.5193  -13.8643  -39.9538 H         1 UNK         0.0600 
    162 H162        1.8642  -14.8223  -40.5695 H         1 UNK         0.0600 
    163 H163        1.4874  -14.8301  -38.8509 H         1 UNK         0.0600 
    164 H164       -0.1033  -15.2466  -42.0235 H         1 UNK         0.3000 
    165 H165       -2.4884  -17.4446  -43.5685 H         1 UNK         0.0600 
    166 H166       -3.1734  -15.2606  -44.5347 H         1 UNK         0.0600 
    167 H167       -3.7354  -15.4044  -42.8750 H         1 UNK         0.0600 
    168 H168       -2.3389  -14.4002  -43.2435 H         1 UNK         0.0600 
    169 H169       -0.6530  -15.5694  -44.6747 H         1 UNK         0.3000 
    170 H170        2.1068  -17.8183  -45.0489 H         1 UNK         0.0600 
    171 H171        0.4420  -18.1356  -46.9409 H         1 UNK         0.0600 
    172 H172        0.2885  -16.3962  -47.0587 H         1 UNK         0.0600 
    173 H173        1.8431  -17.1627  -47.3812 H         1 UNK         0.0600 
    174 H174        1.6936  -15.0395  -45.6755 H         1 UNK         0.3000 
    175 H175        2.9737  -13.7201  -42.6153 H         1 UNK         0.0600 
    176 H176        4.5419  -12.6368  -44.1993 H         1 UNK         0.0600 
    177 H177        4.9838  -14.3216  -43.9753 H         1 UNK         0.0600 
    178 H178        4.1543  -13.8237  -45.4451 H         1 UNK         0.0600 
    179 H179        2.1115  -12.4752  -45.0321 H         1 UNK         0.3000 
    180 H180       -1.3537  -12.2394  -44.2756 H         1 UNK         0.0600 
    181 H181        0.8432  -10.0986  -44.2377 H         1 UNK         0.0600 
    182 H182       -0.3192  -10.3922  -42.9497 H         1 UNK         0.0600 
    183 H183       -0.8764   -9.8177  -44.5129 H         1 UNK         0.0600 
    184 H184        0.2421  -11.1783  -46.3914 H         1 UNK         0.3000 
    185 H185       -0.1330  -11.9827  -48.5035 H         1 UNK         0.0600 
    186 H186        1.7529  -13.3489  -49.4160 H         1 UNK         0.0600 
    187 H187        2.1358  -12.8711  -47.7736 H         1 UNK         0.0600 
    188 H188        1.5882  -14.5109  -48.1048 H         1 UNK         0.0600 
    189 H189       -1.4783  -14.4886  -48.3305 H         1 UNK         0.3000 
    190 H190       -0.4356  -21.1502  -45.2686 H         1 UNK         0.3000 
    191 H191       -2.1057  -20.6578  -47.5529 H         1 UNK         0.0600 
    192 H192       -2.2391  -19.2366  -45.5509 H         1 UNK         0.0600 
    193 H193       -3.7936  -19.9921  -45.8598 H         1 UNK         0.0600 
    194 H194       -2.7672  -20.6018  -44.5693 H         1 UNK         0.0600 
    195 H195       -2.1253  -23.1779  -44.9949 H         1 UNK         0.3000 
    196 H196       -4.3585  -24.6380  -45.9367 H         1 UNK         0.0600 
    197 H197       -3.4330  -26.4702  -44.5212 H         1 UNK         0.0600 
    198 H198       -3.3971  -24.9303  -43.6749 H         1 UNK         0.0600 
    199 H199       -1.9155  -25.5963  -44.3549 H         1 UNK         0.0600 
    200 H200       -0.8524  -25.0429  -46.6748 H         1 UNK         0.3000 
    201 H201       -1.0853  -27.2145  -48.4673 H         1 UNK         0.0600 
    202 H202        1.0613  -26.4715  -47.4547 H         1 UNK         0.0600 
    203 H203        1.0030  -24.9727  -48.3817 H         1 UNK         0.0600 
    204 H204        1.1902  -26.5145  -49.2065 H         1 UNK         0.0600 
    205 H205       -1.4693  -23.7388  -49.0080 H         1 UNK         0.3000 
    206 H206       -1.8588  -23.9074  -51.8855 H         1 UNK         0.0600 
    207 H207       -0.8776  -21.9025  -50.8583 H         1 UNK         0.0600 
    208 H208       -2.4274  -21.4596  -51.5552 H         1 UNK         0.0600 
    209 H209       -2.2871  -21.6963  -49.8234 H         1 UNK         0.0600 
    210 H210       -3.7569  -25.2493  -49.6648 H         1 UNK         0.3000 
    211 H211       -5.8308  -25.9545  -49.5127 H         1 UNK         0.0600 
    212 H212       -6.2279  -24.9673  -52.3852 H         1 UNK         0.0600 
    213 H213       -7.2546  -26.1058  -51.5279 H         1 UNK         0.0600 
    214 H214       -5.5977  -26.5425  -51.9130 H         1 UNK         0.0600 
    215 H215       -5.4174  -23.8019  -48.1489 H         1 UNK         0.3000 
    216 H216       -6.3387  -22.2330  -46.9066 H         1 UNK         0.0600 
    217 H217       -8.4602  -23.5647  -46.8947 H         1 UNK         0.0600 
    218 H218       -9.0228  -22.6813  -48.3134 H         1 UNK         0.0600 
    219 H219       -8.7537  -21.8358  -46.7986 H         1 UNK         0.0600 
    220 H220       -4.7718  -21.5469  -48.8572 H         1 UNK         0.3000 
    221 H221       -3.9527  -19.9469  -50.1556 H         1 UNK         0.0600 
    222 H222       -5.9407  -18.1086  -48.7284 H         1 UNK         0.0600 
    223 H223       -4.3427  -18.5645  -48.1343 H         1 UNK         0.0600 
    224 H224       -4.4982  -17.5995  -49.5919 H         1 UNK         0.0600 
    225 H225       -5.8142  -21.5484  -51.4778 H         1 UNK         0.3000 
    226 H226       -7.4402  -19.8891  -53.2586 H         1 UNK         0.0600 
    227 H227       -8.1783  -22.1838  -52.6470 H         1 UNK         0.0600 
    228 H228       -7.9013  -22.0568  -54.3777 H         1 UNK         0.0600 
    229 H229       -6.7160  -22.8634  -53.3595 H         1 UNK         0.0600 
    230 H230       -4.2557  -21.4831  -53.2480 H         1 UNK         0.3000 
    231 H231       -3.5610  -20.7683  -55.9751 H         1 UNK         0.0600 
    232 H232       -2.4777  -22.6639  -54.6626 H         1 UNK         0.0600 
    233 H233       -1.6612  -21.4522  -53.6732 H         1 UNK         0.0600 
    234 H234       -1.3407  -21.5410  -55.3928 H         1 UNK         0.0600 
    235 H235       -2.9315  -18.8213  -56.6842 H         1 UNK         0.3000 
    236 H236       -3.1066  -16.5241  -55.1074 H         1 UNK         0.0600 
    237 H237       -3.7201  -16.3594  -57.3818 H         1 UNK         0.0600 
    238 H238       -2.2853  -15.3607  -57.2321 H         1 UNK         0.0600 
    239 H239       -2.1778  -16.9572  -57.9671 H         1 UNK         0.0600 
    240 H240        0.9844  -16.9065  -55.1852 H         1 UNK         0.3000 
    241 H241       -0.4982  -18.8077  -56.8559 H         1 UNK         0.0600 
    242 H242        0.6404  -15.5913  -57.3917 H         1 UNK         0.3800 
    243 H243        0.8135  -15.7475  -59.1189 H         1 UNK         0.3800 
    244 H244        2.5036  -18.5568  -56.3976 H         1 UNK         0.0800 
    245 H245        1.6766  -19.8552  -57.2115 H         1 UNK         0.0800 
    246 H246        2.2909  -17.9569  -53.9949 H         1 UNK         0.0800 
    247 H247        3.4336  -19.2743  -53.8901 H         1 UNK         0.0800 
@<TRIPOS>BOND
     1    1    2 1    
     2    1  127 1    
     3    1  128 1    
     4    1  129 1    
     5    2    3 2    
     6    2    4 am   BACKBONE|DICT|INTERRES
     7    4    5 1    
     8    4  130 1    
     9    5    6 1    
    10    5   65 1    
    11    5  131 1    
    12    6    7 1    
    13    6  132 1    
    14    6  133 1    
    15    7    8 1    
    16    8    9 1    
    17    8  134 1    
    18    8  135 1    
    19    9   10 ar   
    20    9   14 ar   
    21   10   11 ar   
    22   10  136 1    
    23   11   12 ar   
    24   11  126 1    
    25   12   13 ar   
    26   12  137 1    
    27   13   14 ar   
    28   13   15 1    
    29   14  138 1    
    30   15   16 1    
    31   15  139 1    
    32   15  140 1    
    33   16   17 1    
    34   17   18 1    
    35   17  141 1    
    36   17  142 1    
    37   18   19 1    
    38   18   67 1    
    39   18  143 1    
    40   19   20 am   BACKBONE|DICT|INTERRES
    41   19  144 1    
    42   20   21 2    
    43   20   22 1    
    44   22   23 1    
    45   22   24 1    
    46   22  145 1    
    47   23  146 1    
    48   23  147 1    
    49   23  148 1    
    50   24   25 am   BACKBONE|DICT|INTERRES
    51   24  149 1    
    52   25   26 2    
    53   25   27 1    
    54   27   28 1    
    55   27   29 1    
    56   27  150 1    
    57   28  151 1    
    58   28  152 1    
    59   28  153 1    
    60   29   30 am   BACKBONE|DICT|INTERRES
    61   29  154 1    
    62   30   31 2    
    63   30   32 1    
    64   32   33 1    
    65   32   34 1    
    66   32  155 1    
    67   33  156 1    
    68   33  157 1    
    69   33  158 1    
    70   34   35 am   BACKBONE|DICT|INTERRES
    71   34  159 1    
    72   35   36 2    
    73   35   37 1    
    74   37   38 1    
    75   37   39 1    
    76   37  160 1    
    77   38  161 1    
    78   38  162 1    
    79   38  163 1    
    80   39   40 am   BACKBONE|DICT|INTERRES
    81   39  164 1    
    82   40   41 2    
    83   40   42 1    
    84   42   43 1    
    85   42   44 1    
    86   42  165 1    
    87   43  166 1    
    88   43  167 1    
    89   43  168 1    
    90   44   45 am   BACKBONE|DICT|INTERRES
    91   44  169 1    
    92   45   46 2    
    93   45   47 1    
    94   47   48 1    
    95   47   49 1    
    96   47  170 1    
    97   48  171 1    
    98   48  172 1    
    99   48  173 1    
   100   49   50 am   BACKBONE|DICT|INTERRES
   101   49  174 1    
   102   50   51 2    
   103   50   52 1    
   104   52   53 1    
   105   52   54 1    
   106   52  175 1    
   107   53  176 1    
   108   53  177 1    
   109   53  178 1    
   110   54   55 am   BACKBONE|DICT|INTERRES
   111   54  179 1    
   112   55   56 2    
   113   55   57 1    
   114   57   58 1    
   115   57   59 1    
   116   57  180 1    
   117   58  181 1    
   118   58  182 1    
   119   58  183 1    
   120   59   60 am   BACKBONE|DICT|INTERRES
   121   59  184 1    
   122   60   61 2    
   123   60   62 1    
   124   62   63 1    
   125   62   64 1    
   126   62  185 1    
   127   63  186 1    
   128   63  187 1    
   129   63  188 1    
   130   64   65 am   BACKBONE|DICT|INTERRES
   131   64  189 1    
   132   65   66 2    
   133   67   68 2    
   134   67   69 am   BACKBONE|DICT|INTERRES
   135   69   70 1    
   136   69  190 1    
   137   70   71 1    
   138   70   72 1    
   139   70  191 1    
   140   71  192 1    
   141   71  193 1    
   142   71  194 1    
   143   72   73 2    
   144   72   74 am   BACKBONE|DICT|INTERRES
   145   74   75 1    
   146   74  195 1    
   147   75   76 1    
   148   75   77 1    
   149   75  196 1    
   150   76  197 1    
   151   76  198 1    
   152   76  199 1    
   153   77   78 2    
   154   77   79 am   BACKBONE|DICT|INTERRES
   155   79   80 1    
   156   79  200 1    
   157   80   81 1    
   158   80   82 1    
   159   80  201 1    
   160   81  202 1    
   161   81  203 1    
   162   81  204 1    
   163   82   83 2    
   164   82   84 am   BACKBONE|DICT|INTERRES
   165   84   85 1    
   166   84  205 1    
   167   85   86 1    
   168   85   87 1    
   169   85  206 1    
   170   86  207 1    
   171   86  208 1    
   172   86  209 1    
   173   87   88 2    
   174   87   89 am   BACKBONE|DICT|INTERRES
   175   89   90 1    
   176   89  210 1    
   177   90   91 1    
   178   90   92 1    
   179   90  211 1    
   180   91  212 1    
   181   91  213 1    
   182   91  214 1    
   183   92   93 2    
   184   92   94 am   BACKBONE|DICT|INTERRES
   185   94   95 1    
   186   94  215 1    
   187   95   96 1    
   188   95   97 1    
   189   95  216 1    
   190   96  217 1    
   191   96  218 1    
   192   96  219 1    
   193   97   98 2    
   194   97   99 am   BACKBONE|DICT|INTERRES
   195   99  100 1    
   196   99  220 1    
   197  100  101 1    
   198  100  102 1    
   199  100  221 1    
   200  101  222 1    
   201  101  223 1    
   202  101  224 1    
   203  102  103 2    
   204  102  104 am   BACKBONE|DICT|INTERRES
   205  104  105 1    
   206  104  225 1    
   207  105  106 1    
   208  105  107 1    
   209  105  226 1    
   210  106  227 1    
   211  106  228 1    
   212  106  229 1    
   213  107  108 2    
   214  107  109 am   BACKBONE|DICT|INTERRES
   215  109  110 1    
   216  109  230 1    
   217  110  111 1    
   218  110  112 1    
   219  110  231 1    
   220  111  232 1    
   221  111  233 1    
   222  111  234 1    
   223  112  113 2    
   224  112  114 am   BACKBONE|DICT|INTERRES
   225  114  115 1    
   226  114  235 1    
   227  115  116 1    
   228  115  117 1    
   229  115  236 1    
   230  116  237 1    
   231  116  238 1    
   232  116  239 1    
   233  117  118 2    
   234  117  119 am   BACKBONE|DICT|INTERRES
   235  119  120 1    
   236  119  240 1    
   237  120  121 1    
   238  120  124 1    
   239  120  241 1    
   240  121  122 am   BACKBONE|DICT|INTERRES
   241  121  123 2    
   242  122  242 1    
   243  122  243 1    
   244  124  125 1    
   245  124  244 1    
   246  124  245 1    
   247  125  126 1    
   248  126  246 1    
   249  126  247 1    
@<TRIPOS>SUBSTRUCTURE
     1 UNK         1 GROUP             0       ****    0 ROOT    
