@<TRIPOS>MOLECULE
3R540
247   249    1
SMALL
USER_CHARGES


@<TRIPOS>ATOM
      1 CA         -2.4205  -18.4927  -40.1264 C.3       0 UNK        -0.1800 
      2 C          -2.5237  -17.3655  -41.1447 C.2       0 UNK         0.5000 
      3 O          -3.4577  -16.5657  -41.0832 O.2       0 UNK        -0.5000 
      4 N          -1.5740  -17.3087  -42.0842 N.am      1 UNK        -0.5000 
      5 CA         -1.4501  -16.2610  -43.0998 C.3       1 UNK         0.1400 
      6 C6         -0.6691  -16.7726  -44.3393 C.3       23 UNK        -0.0398 
      7 S7         -1.3620  -16.1401  -45.9047 S.3       23 UNK        -0.2404 
      8 C8         -1.1803  -17.6194  -46.9422 C.3       23 UNK        -0.0205 
      9 C9         -1.8750  -17.4888  -48.2872 C.ar      23 UNK        -0.0193 
     10 C10        -1.1259  -17.3760  -49.4617 C.ar      23 UNK        -0.1150 
     11 C11        -1.7550  -17.4006  -50.7104 C.ar      23 UNK        -0.0193 
     12 C12        -3.1475  -17.5118  -50.7751 C.ar      23 UNK        -0.1150 
     13 C13        -3.9092  -17.6030  -49.6066 C.ar      23 UNK        -0.0193 
     14 C14        -3.2673  -17.5754  -48.3654 C.ar      23 UNK        -0.1150 
     15 C15        -5.4212  -17.7525  -49.6909 C.3       23 UNK        -0.0205 
     16 S16        -5.9328  -19.5023  -49.6494 S.3       23 UNK        -0.2404 
     17 C17        -5.8693  -19.8821  -47.8671 C.3       23 UNK        -0.0398 
     18 CA         -4.5799  -20.6235  -47.4274 C.3       11 UNK         0.1400 
     19 N          -4.2852  -20.3441  -46.0164 N.am      11 UNK        -0.5000 
     20 C          -3.2096  -20.7471  -45.3270 C.2       10 UNK         0.5000 
     21 O          -2.3125  -21.4451  -45.8079 O.2       10 UNK        -0.5000 
     22 CA         -3.1464  -20.2500  -43.8674 C.3       10 UNK         0.1400 
     23 CB         -4.4294  -20.5926  -43.0794 C.3       10 UNK        -0.1800 
     24 N          -1.9570  -20.6977  -43.1396 N.am      10 UNK        -0.5000 
     25 C          -1.6212  -21.9365  -42.7586 C.2       9 UNK         0.5000 
     26 O          -2.3133  -22.9340  -42.9696 O.2       9 UNK        -0.5000 
     27 CA         -0.2735  -22.0613  -42.0076 C.3       9 UNK         0.1400 
     28 CB          0.0829  -23.5169  -41.6554 C.3       9 UNK        -0.1800 
     29 N           0.8484  -21.4671  -42.7442 N.am      9 UNK        -0.5000 
     30 C           1.1002  -20.1578  -42.8670 C.2       8 UNK         0.5000 
     31 O           0.3954  -19.2827  -42.3575 O.2       8 UNK        -0.5000 
     32 CA          2.2861  -19.7707  -43.7691 C.3       8 UNK         0.1400 
     33 CB          1.9331  -20.0174  -45.2438 C.3       8 UNK        -0.1800 
     34 N           2.6606  -18.3645  -43.6299 N.am      8 UNK        -0.5000 
     35 C           3.3025  -17.8190  -42.5894 C.2       7 UNK         0.5000 
     36 O           3.6561  -18.4640  -41.6009 O.2       7 UNK        -0.5000 
     37 CA          3.6024  -16.3010  -42.6629 C.3       7 UNK         0.1400 
     38 CB          5.0006  -15.9621  -42.1055 C.3       7 UNK        -0.1800 
     39 N           3.4215  -15.6925  -43.9914 N.am      7 UNK        -0.5000 
     40 C           4.0750  -15.9866  -45.1276 C.2       6 UNK         0.5000 
     41 O           4.9446  -16.8523  -45.2206 O.2       6 UNK        -0.5000 
     42 CA          3.6832  -15.1778  -46.3708 C.3       6 UNK         0.1400 
     43 CB          2.2950  -15.5880  -46.8899 C.3       6 UNK        -0.1800 
     44 N           3.6999  -13.7476  -46.0762 N.am      6 UNK        -0.5000 
     45 C           4.2092  -12.8100  -46.8820 C.2       5 UNK         0.5000 
     46 O           4.6641  -13.0380  -48.0041 O.2       5 UNK        -0.5000 
     47 CA          4.2373  -11.3694  -46.3352 C.3       5 UNK         0.1400 
     48 CB          2.8583  -10.7091  -46.4937 C.3       5 UNK        -0.1800 
     49 N           4.6649  -11.2483  -44.9369 N.am      5 UNK        -0.5000 
     50 C           5.7980  -11.7289  -44.3999 C.2       4 UNK         0.5000 
     51 O           6.6186  -12.4011  -45.0241 O.2       4 UNK        -0.5000 
     52 CA          6.0823  -11.3875  -42.9189 C.3       4 UNK         0.1400 
     53 CB          7.4671  -10.7353  -42.7688 C.3       4 UNK        -0.1800 
     54 N           5.0886  -10.4837  -42.3255 N.am      4 UNK        -0.5000 
     55 C           3.8971  -10.7877  -41.7929 C.2       3 UNK         0.5000 
     56 O           3.1577   -9.9078  -41.3496 O.2       3 UNK        -0.5000 
     57 CA          3.4342  -12.2557  -41.7146 C.3       3 UNK         0.1400 
     58 CB          3.8076  -12.8679  -40.3555 C.3       3 UNK        -0.1800 
     59 N           1.9832  -12.2940  -41.8668 N.am      3 UNK        -0.5000 
     60 C           1.3382  -12.7814  -42.9286 C.2       2 UNK         0.5000 
     61 O           1.8977  -13.3282  -43.8826 O.2       2 UNK        -0.5000 
     62 CA         -0.1928  -12.6284  -42.9339 C.3       2 UNK         0.1400 
     63 CB         -0.6181  -11.5636  -43.9559 C.3       2 UNK        -0.1800 
     64 N          -0.8545  -13.8918  -43.2561 N.am      2 UNK        -0.5000 
     65 C          -0.7866  -14.9996  -42.5074 C.2       1 UNK         0.5000 
     66 O          -0.2050  -15.0521  -41.4197 O.2       1 UNK        -0.5000 
     67 C          -4.6559  -22.1310  -47.7455 C.2       11 UNK         0.5000 
     68 O          -4.2783  -22.5437  -48.8437 O.2       11 UNK        -0.5000 
     69 N          -5.1104  -22.9280  -46.7680 N.am      12 UNK        -0.5000 
     70 CA         -5.1908  -24.3872  -46.8315 C.3       12 UNK         0.1400 
     71 CB         -5.8594  -24.9099  -45.5517 C.3       12 UNK        -0.1800 
     72 C          -3.8251  -25.0657  -47.0449 C.2       12 UNK         0.5000 
     73 O          -3.7522  -26.0481  -47.7827 O.2       12 UNK        -0.5000 
     74 N          -2.7738  -24.5210  -46.4188 N.am      13 UNK        -0.5000 
     75 CA         -1.4026  -25.0034  -46.5620 C.3       13 UNK         0.1400 
     76 CB         -0.6398  -24.7700  -45.2498 C.3       13 UNK        -0.1800 
     77 C          -0.6817  -24.3078  -47.7255 C.2       13 UNK         0.5000 
     78 O           0.0080  -24.9756  -48.4963 O.2       13 UNK        -0.5000 
     79 N          -0.8332  -22.9795  -47.8162 N.am      14 UNK        -0.5000 
     80 CA         -0.0873  -22.1308  -48.7441 C.3       14 UNK         0.1400 
     81 CB         -0.2653  -20.6656  -48.3280 C.3       14 UNK        -0.1800 
     82 C          -0.4957  -22.3043  -50.2147 C.2       14 UNK         0.5000 
     83 O           0.3751  -22.3429  -51.0848 O.2       14 UNK        -0.5000 
     84 N          -1.8084  -22.3742  -50.4608 N.am      15 UNK        -0.5000 
     85 CA         -2.4012  -22.2637  -51.7916 C.3       15 UNK         0.1400 
     86 CB         -3.1105  -20.9063  -51.8772 C.3       15 UNK        -0.1800 
     87 C          -3.3802  -23.4033  -52.1009 C.2       15 UNK         0.5000 
     88 O          -4.1074  -23.3047  -53.0918 O.2       15 UNK        -0.5000 
     89 N          -3.4150  -24.4383  -51.2492 N.am      16 UNK        -0.5000 
     90 CA         -4.3294  -25.5844  -51.3055 C.3       16 UNK         0.1400 
     91 CB         -4.0091  -26.4705  -52.5284 C.3       16 UNK        -0.1800 
     92 C          -5.8115  -25.1549  -51.2361 C.2       16 UNK         0.5000 
     93 O          -6.6432  -25.6776  -51.9775 O.2       16 UNK        -0.5000 
     94 N          -6.0972  -24.1684  -50.3720 N.am      17 UNK        -0.5000 
     95 CA         -7.3855  -23.4864  -50.1988 C.3       17 UNK         0.1400 
     96 CB         -8.4721  -24.4539  -49.6853 C.3       17 UNK        -0.1800 
     97 C          -7.7957  -22.7075  -51.4657 C.2       17 UNK         0.5000 
     98 O          -8.9495  -22.7646  -51.8929 O.2       17 UNK        -0.5000 
     99 N          -6.8087  -22.0063  -52.0417 N.am      18 UNK        -0.5000 
    100 CA        -6.8640  -21.1783  -53.2509 C.3       18 UNK         0.1400 
    101 CB        -7.8936  -20.0380  -53.1100 C.3       18 UNK        -0.1800 
    102 C         -7.0327  -21.9728  -54.5634 C.2       18 UNK         0.5000 
    103 O         -7.2834  -21.3636  -55.6039 O.2       18 UNK        -0.5000 
    104 N         -6.8559  -23.3011  -54.5188 N.am      19 UNK        -0.5000 
    105 CA        -6.8746  -24.1712  -55.6956 C.3       19 UNK         0.1400 
    106 CB        -7.0969  -25.6269  -55.2614 C.3       19 UNK        -0.1800 
    107 C         -5.5883  -24.0424  -56.5316 C.2       19 UNK         0.5000 
    108 O         -5.6626  -24.0577  -57.7609 O.2       19 UNK        -0.5000 
    109 N         -4.4402  -23.8994  -55.8546 N.am      20 UNK        -0.5000 
    110 CA        -3.1385  -23.6499  -56.4768 C.3       20 UNK         0.1400 
    111 CB        -2.0442  -24.3633  -55.6672 C.3       20 UNK        -0.1800 
    112 C         -2.8363  -22.1439  -56.5762 C.2       20 UNK         0.5000 
    113 O         -2.0373  -21.7446  -57.4242 O.2       20 UNK        -0.5000 
    114 N         -3.4613  -21.3392  -55.6997 N.am      21 UNK        -0.5000 
    115 CA        -3.4097  -19.8686  -55.6411 C.3       21 UNK         0.1400 
    116 CB        -4.1319  -19.2683  -56.8644 C.3       21 UNK        -0.1800 
    117 C         -1.9888  -19.2855  -55.4503 C.2       21 UNK         0.5000 
    118 O         -1.7422  -18.1396  -55.8289 O.2       21 UNK        -0.5000 
    119 N         -1.0809  -20.0935  -54.8849 N.am      22 UNK        -0.5000 
    120 CA         0.3688  -19.8441  -54.7754 C.3       22 UNK         0.1400 
    121 C          1.1198  -19.8272  -56.1450 C.2       22 UNK         0.5000 
    122 N          0.5534  -20.3556  -57.2246 N.am      22 UNK        -0.7600 
    123 O          2.2515  -19.3578  -56.2320 O.2       22 UNK        -0.5000 
    124 C124        0.7338  -18.6276  -53.8752 C.3       23 UNK        -0.0398 
    125 S125        0.1197  -18.8161  -52.1682 S.3       23 UNK        -0.2404 
    126 C126       -0.9293  -17.3393  -51.9877 C.3       23 UNK        -0.0205 
    127 H127       -1.5890  -19.1628  -40.3458 H         1 UNK         0.0600 
    128 H128       -3.3377  -19.0811  -40.1204 H         1 UNK         0.0600 
    129 H129       -2.2714  -18.0821  -39.1279 H         1 UNK         0.0600 
    130 H130       -0.7956  -17.9637  -42.0417 H         1 UNK         0.3000 
    131 H131       -2.4622  -15.9864  -43.4058 H         1 UNK         0.0600 
    132 H132       -0.7090  -17.8612  -44.3761 H         1 UNK         0.0800 
    133 H133        0.3935  -16.5289  -44.2895 H         1 UNK         0.0800 
    134 H134       -0.1179  -17.8243  -47.0805 H         1 UNK         0.0800 
    135 H135       -1.5949  -18.4849  -46.4252 H         1 UNK         0.0800 
    136 H136       -0.0478  -17.3174  -49.4102 H         1 UNK         0.1150 
    137 H137       -3.6396  -17.5468  -51.7369 H         1 UNK         0.1150 
    138 H138       -3.8462  -17.6608  -47.4572 H         1 UNK         0.1150 
    139 H139       -5.9055  -17.1942  -48.8887 H         1 UNK         0.0800 
    140 H140       -5.7821  -17.3109  -50.6210 H         1 UNK         0.0800 
    141 H141       -6.7616  -20.4521  -47.6013 H         1 UNK         0.0800 
    142 H142       -5.9674  -18.9401  -47.3267 H         1 UNK         0.0800 
    143 H143       -3.7368  -20.2346  -47.9999 H         1 UNK         0.0600 
    144 H144       -4.9674  -19.7768  -45.5347 H         1 UNK         0.3000 
    145 H145       -3.0667  -19.1633  -43.9182 H         1 UNK         0.0600 
    146 H146       -5.2985  -20.0719  -43.4817 H         1 UNK         0.0600 
    147 H147       -4.6492  -21.6605  -43.1033 H         1 UNK         0.0600 
    148 H148       -4.3404  -20.2959  -42.0347 H         1 UNK         0.0600 
    149 H149       -1.2701  -19.9796  -42.9370 H         1 UNK         0.3000 
    150 H150       -0.3908  -21.5197  -41.0666 H         1 UNK         0.0600 
    151 H151       -0.7121  -23.9874  -41.0755 H         1 UNK         0.0600 
    152 H152        0.9906  -23.5646  -41.0536 H         1 UNK         0.0600 
    153 H153        0.2418  -24.1216  -42.5480 H         1 UNK         0.0600 
    154 H154        1.4483  -22.1201  -43.2268 H         1 UNK         0.3000 
    155 H155        3.1434  -20.3899  -43.4976 H         1 UNK         0.0600 
    156 H156        1.0868  -19.4044  -45.5536 H         1 UNK         0.0600 
    157 H157        1.6693  -21.0603  -45.4243 H         1 UNK         0.0600 
    158 H158        2.7739  -19.7808  -45.8964 H         1 UNK         0.0600 
    159 H159        2.4223  -17.7586  -44.3980 H         1 UNK         0.3000 
    160 H160        2.8652  -15.8215  -42.0169 H         1 UNK         0.0600 
    161 H161        5.2105  -14.8957  -42.1763 H         1 UNK         0.0600 
    162 H162        5.7877  -16.4920  -42.6427 H         1 UNK         0.0600 
    163 H163        5.0809  -16.2380  -41.0535 H         1 UNK         0.0600 
    164 H164        2.7328  -14.9437  -44.0230 H         1 UNK         0.3000 
    165 H165        4.4200  -15.4111  -47.1426 H         1 UNK         0.0600 
    166 H166        2.0784  -15.1115  -47.8460 H         1 UNK         0.0600 
    167 H167        2.2310  -16.6661  -47.0419 H         1 UNK         0.0600 
    168 H168        1.5075  -15.3007  -46.1934 H         1 UNK         0.0600 
    169 H169        3.2982  -13.4635  -45.1880 H         1 UNK         0.3000 
    170 H170        4.9535  -10.8078  -46.9383 H         1 UNK         0.0600 
    171 H171        2.5136  -10.7659  -47.5270 H         1 UNK         0.0600 
    172 H172        2.1061  -11.1942  -45.8702 H         1 UNK         0.0600 
    173 H173        2.8908   -9.6541  -46.2214 H         1 UNK         0.0600 
    174 H174        4.0759  -10.6797  -44.3474 H         1 UNK         0.3000 
    175 H175        6.1069  -12.3260  -42.3631 H         1 UNK         0.0600 
    176 H176        7.5345   -9.8003  -43.3264 H         1 UNK         0.0600 
    177 H177        7.6903  -10.5195  -41.7237 H         1 UNK         0.0600 
    178 H178        8.2562  -11.3934  -43.1351 H         1 UNK         0.0600 
    179 H179        5.3463   -9.5077  -42.3486 H         1 UNK         0.3000 
    180 H180        3.9019  -12.8469  -42.5008 H         1 UNK         0.0600 
    181 H181        3.3773  -12.3044  -39.5265 H         1 UNK         0.0600 
    182 H182        4.8890  -12.8837  -40.2155 H         1 UNK         0.0600 
    183 H183        3.4546  -13.8963  -40.2773 H         1 UNK         0.0600 
    184 H184        1.4606  -11.8039  -41.1540 H         1 UNK         0.3000 
    185 H185       -0.5266  -12.3132  -41.9431 H         1 UNK         0.0600 
    186 H186       -0.3354  -11.8448  -44.9715 H         1 UNK         0.0600 
    187 H187       -1.6969  -11.4080  -43.9387 H         1 UNK         0.0600 
    188 H188       -0.1480  -10.6035  -43.7387 H         1 UNK         0.0600 
    189 H189       -1.3063  -13.9412  -44.1583 H         1 UNK         0.3000 
    190 H190       -5.3863  -22.5022  -45.8956 H         1 UNK         0.3000 
    191 H191       -5.8283  -24.6529  -47.6754 H         1 UNK         0.0600 
    192 H192       -5.2866  -24.6462  -44.6614 H         1 UNK         0.0600 
    193 H193       -5.9499  -25.9967  -45.5743 H         1 UNK         0.0600 
    194 H194       -6.8648  -24.5041  -45.4376 H         1 UNK         0.0600 
    195 H195       -2.9064  -23.6898  -45.8570 H         1 UNK         0.3000 
    196 H196       -1.4075  -26.0781  -46.7571 H         1 UNK         0.0600 
    197 H197       -1.1369  -25.2604  -44.4127 H         1 UNK         0.0600 
    198 H198       -0.5581  -23.7081  -45.0154 H         1 UNK         0.0600 
    199 H199        0.3725  -25.1712  -45.3095 H         1 UNK         0.0600 
    200 H200       -1.4051  -22.5005  -47.1257 H         1 UNK         0.3000 
    201 H201        0.9718  -22.3823  -48.6559 H         1 UNK         0.0600 
    202 H202        0.0233  -20.5143  -47.2906 H         1 UNK         0.0600 
    203 H203       -1.3019  -20.3444  -48.4330 H         1 UNK         0.0600 
    204 H204        0.3481  -20.0056  -48.9427 H         1 UNK         0.0600 
    205 H205       -2.4632  -22.3672  -49.6853 H         1 UNK         0.3000 
    206 H206       -1.6331  -22.3005  -52.5660 H         1 UNK         0.0600 
    207 H207       -2.4168  -20.0913  -51.6865 H         1 UNK         0.0600 
    208 H208       -3.5409  -20.7403  -52.8606 H         1 UNK         0.0600 
    209 H209       -3.9137  -20.8335  -51.1467 H         1 UNK         0.0600 
    210 H210       -2.7839  -24.4152  -50.4609 H         1 UNK         0.3000 
    211 H211       -4.1428  -26.1802  -50.4121 H         1 UNK         0.0600 
    212 H212       -4.1841  -25.9489  -53.4690 H         1 UNK         0.0600 
    213 H213       -4.6252  -27.3703  -52.5332 H         1 UNK         0.0600 
    214 H214       -2.9678  -26.7921  -52.5166 H         1 UNK         0.0600 
    215 H215       -5.3244  -23.7633  -49.8497 H         1 UNK         0.3000 
    216 H216       -7.2304  -22.7352  -49.4232 H         1 UNK         0.0600 
    217 H217       -9.3836  -23.9126  -49.4294 H         1 UNK         0.0600 
    218 H218       -8.1430  -24.9765  -48.7874 H         1 UNK         0.0600 
    219 H219       -8.7387  -25.2029  -50.4313 H         1 UNK         0.0600 
    220 H220       -5.8956  -22.0706  -51.6158 H         1 UNK         0.3000 
    221 H221       -5.8832  -20.7088  -53.3227 H         1 UNK         0.0600 
    222 H222       -8.9178  -20.4108  -53.1206 H         1 UNK         0.0600 
    223 H223       -7.7464  -19.4844  -52.1829 H         1 UNK         0.0600 
    224 H224       -7.8004  -19.3238  -53.9289 H         1 UNK         0.0600 
    225 H225       -6.6340  -23.7327  -53.6318 H         1 UNK         0.3000 
    226 H226       -7.7163  -23.8790  -56.3273 H         1 UNK         0.0600 
    227 H227       -8.0112  -25.7296  -54.6765 H         1 UNK         0.0600 
    228 H228       -7.1886  -26.2819  -56.1285 H         1 UNK         0.0600 
    229 H229       -6.2702  -25.9994  -54.6571 H         1 UNK         0.0600 
    230 H230       -4.4662  -23.8738  -54.8382 H         1 UNK         0.3000 
    231 H231       -3.1263  -24.0591  -57.4892 H         1 UNK         0.0600 
    232 H232       -2.2485  -25.4309  -55.5842 H         1 UNK         0.0600 
    233 H233       -1.9538  -23.9612  -54.6589 H         1 UNK         0.0600 
    234 H234       -1.0718  -24.2550  -56.1493 H         1 UNK         0.0600 
    235 H235       -4.0675  -21.7866  -55.0271 H         1 UNK         0.3000 
    236 H236       -3.9777  -19.5694  -54.7604 H         1 UNK         0.0600 
    237 H237       -3.5910  -19.4666  -57.7902 H         1 UNK         0.0600 
    238 H238       -5.1365  -19.6792  -56.9680 H         1 UNK         0.0600 
    239 H239       -4.2350  -18.1867  -56.7702 H         1 UNK         0.0600 
    240 H240       -1.3808  -21.0183  -54.6204 H         1 UNK         0.3000 
    241 H241        0.7654  -20.7285  -54.2753 H         1 UNK         0.0600 
    242 H242        1.0574  -20.3457  -58.0969 H         1 UNK         0.3800 
    243 H243       -0.3739  -20.7690  -57.1919 H         1 UNK         0.3800 
    244 H244        0.3680  -17.6976  -54.3114 H         1 UNK         0.0800 
    245 H245        1.8168  -18.5167  -53.8046 H         1 UNK         0.0800 
    246 H246       -1.5801  -17.2532  -52.8594 H         1 UNK         0.0800 
    247 H247       -0.3022  -16.4470  -51.9740 H         1 UNK         0.0800 
@<TRIPOS>BOND
     1    1    2 1    
     2    1  127 1    
     3    1  128 1    
     4    1  129 1    
     5    2    3 2    
     6    2    4 am   BACKBONE|DICT|INTERRES
     7    4    5 1    
     8    4  130 1    
     9    5    6 1    
    10    5   65 1    
    11    5  131 1    
    12    6    7 1    
    13    6  132 1    
    14    6  133 1    
    15    7    8 1    
    16    8    9 1    
    17    8  134 1    
    18    8  135 1    
    19    9   10 ar   
    20    9   14 ar   
    21   10   11 ar   
    22   10  136 1    
    23   11   12 ar   
    24   11  126 1    
    25   12   13 ar   
    26   12  137 1    
    27   13   14 ar   
    28   13   15 1    
    29   14  138 1    
    30   15   16 1    
    31   15  139 1    
    32   15  140 1    
    33   16   17 1    
    34   17   18 1    
    35   17  141 1    
    36   17  142 1    
    37   18   19 1    
    38   18   67 1    
    39   18  143 1    
    40   19   20 am   BACKBONE|DICT|INTERRES
    41   19  144 1    
    42   20   21 2    
    43   20   22 1    
    44   22   23 1    
    45   22   24 1    
    46   22  145 1    
    47   23  146 1    
    48   23  147 1    
    49   23  148 1    
    50   24   25 am   BACKBONE|DICT|INTERRES
    51   24  149 1    
    52   25   26 2    
    53   25   27 1    
    54   27   28 1    
    55   27   29 1    
    56   27  150 1    
    57   28  151 1    
    58   28  152 1    
    59   28  153 1    
    60   29   30 am   BACKBONE|DICT|INTERRES
    61   29  154 1    
    62   30   31 2    
    63   30   32 1    
    64   32   33 1    
    65   32   34 1    
    66   32  155 1    
    67   33  156 1    
    68   33  157 1    
    69   33  158 1    
    70   34   35 am   BACKBONE|DICT|INTERRES
    71   34  159 1    
    72   35   36 2    
    73   35   37 1    
    74   37   38 1    
    75   37   39 1    
    76   37  160 1    
    77   38  161 1    
    78   38  162 1    
    79   38  163 1    
    80   39   40 am   BACKBONE|DICT|INTERRES
    81   39  164 1    
    82   40   41 2    
    83   40   42 1    
    84   42   43 1    
    85   42   44 1    
    86   42  165 1    
    87   43  166 1    
    88   43  167 1    
    89   43  168 1    
    90   44   45 am   BACKBONE|DICT|INTERRES
    91   44  169 1    
    92   45   46 2    
    93   45   47 1    
    94   47   48 1    
    95   47   49 1    
    96   47  170 1    
    97   48  171 1    
    98   48  172 1    
    99   48  173 1    
   100   49   50 am   BACKBONE|DICT|INTERRES
   101   49  174 1    
   102   50   51 2    
   103   50   52 1    
   104   52   53 1    
   105   52   54 1    
   106   52  175 1    
   107   53  176 1    
   108   53  177 1    
   109   53  178 1    
   110   54   55 am   BACKBONE|DICT|INTERRES
   111   54  179 1    
   112   55   56 2    
   113   55   57 1    
   114   57   58 1    
   115   57   59 1    
   116   57  180 1    
   117   58  181 1    
   118   58  182 1    
   119   58  183 1    
   120   59   60 am   BACKBONE|DICT|INTERRES
   121   59  184 1    
   122   60   61 2    
   123   60   62 1    
   124   62   63 1    
   125   62   64 1    
   126   62  185 1    
   127   63  186 1    
   128   63  187 1    
   129   63  188 1    
   130   64   65 am   BACKBONE|DICT|INTERRES
   131   64  189 1    
   132   65   66 2    
   133   67   68 2    
   134   67   69 am   BACKBONE|DICT|INTERRES
   135   69   70 1    
   136   69  190 1    
   137   70   71 1    
   138   70   72 1    
   139   70  191 1    
   140   71  192 1    
   141   71  193 1    
   142   71  194 1    
   143   72   73 2    
   144   72   74 am   BACKBONE|DICT|INTERRES
   145   74   75 1    
   146   74  195 1    
   147   75   76 1    
   148   75   77 1    
   149   75  196 1    
   150   76  197 1    
   151   76  198 1    
   152   76  199 1    
   153   77   78 2    
   154   77   79 am   BACKBONE|DICT|INTERRES
   155   79   80 1    
   156   79  200 1    
   157   80   81 1    
   158   80   82 1    
   159   80  201 1    
   160   81  202 1    
   161   81  203 1    
   162   81  204 1    
   163   82   83 2    
   164   82   84 am   BACKBONE|DICT|INTERRES
   165   84   85 1    
   166   84  205 1    
   167   85   86 1    
   168   85   87 1    
   169   85  206 1    
   170   86  207 1    
   171   86  208 1    
   172   86  209 1    
   173   87   88 2    
   174   87   89 am   BACKBONE|DICT|INTERRES
   175   89   90 1    
   176   89  210 1    
   177   90   91 1    
   178   90   92 1    
   179   90  211 1    
   180   91  212 1    
   181   91  213 1    
   182   91  214 1    
   183   92   93 2    
   184   92   94 am   BACKBONE|DICT|INTERRES
   185   94   95 1    
   186   94  215 1    
   187   95   96 1    
   188   95   97 1    
   189   95  216 1    
   190   96  217 1    
   191   96  218 1    
   192   96  219 1    
   193   97   98 2    
   194   97   99 am   BACKBONE|DICT|INTERRES
   195   99  100 1    
   196   99  220 1    
   197  100  101 1    
   198  100  102 1    
   199  100  221 1    
   200  101  222 1    
   201  101  223 1    
   202  101  224 1    
   203  102  103 2    
   204  102  104 am   BACKBONE|DICT|INTERRES
   205  104  105 1    
   206  104  225 1    
   207  105  106 1    
   208  105  107 1    
   209  105  226 1    
   210  106  227 1    
   211  106  228 1    
   212  106  229 1    
   213  107  108 2    
   214  107  109 am   BACKBONE|DICT|INTERRES
   215  109  110 1    
   216  109  230 1    
   217  110  111 1    
   218  110  112 1    
   219  110  231 1    
   220  111  232 1    
   221  111  233 1    
   222  111  234 1    
   223  112  113 2    
   224  112  114 am   BACKBONE|DICT|INTERRES
   225  114  115 1    
   226  114  235 1    
   227  115  116 1    
   228  115  117 1    
   229  115  236 1    
   230  116  237 1    
   231  116  238 1    
   232  116  239 1    
   233  117  118 2    
   234  117  119 am   BACKBONE|DICT|INTERRES
   235  119  120 1    
   236  119  240 1    
   237  120  121 1    
   238  120  124 1    
   239  120  241 1    
   240  121  122 am   BACKBONE|DICT|INTERRES
   241  121  123 2    
   242  122  242 1    
   243  122  243 1    
   244  124  125 1    
   245  124  244 1    
   246  124  245 1    
   247  125  126 1    
   248  126  246 1    
   249  126  247 1    
@<TRIPOS>SUBSTRUCTURE
     1 UNK         1 GROUP             0       ****    0 ROOT    
