@<TRIPOS>MOLECULE
3R540
247   249    1
SMALL
USER_CHARGES


@<TRIPOS>ATOM
      1 CA         -2.4971  -19.1115  -43.8395 C.3       0 UNK        -0.1800 
      2 C          -2.1465  -18.3578  -45.1128 C.2       0 UNK         0.5000 
      3 O          -3.0368  -18.0633  -45.9088 O.2       0 UNK        -0.5000 
      4 N          -0.8616  -18.0350  -45.3048 N.am      1 UNK        -0.5000 
      5 CA         -0.3604  -17.1690  -46.3739 C.3       1 UNK         0.1400 
      6 C6          1.1778  -17.3132  -46.5358 C.3       23 UNK        -0.0398 
      7 S7          2.0186  -16.0117  -47.5107 S.3       23 UNK        -0.2404 
      8 C8          2.0705  -16.7622  -49.1659 C.3       23 UNK        -0.0205 
      9 C9          0.6783  -16.9606  -49.7456 C.ar      23 UNK        -0.0193 
     10 C10        -0.0933  -15.8575  -50.1180 C.ar      23 UNK        -0.1150 
     11 C11        -1.3672  -16.0297  -50.6629 C.ar      23 UNK        -0.0193 
     12 C12        -1.8642  -17.3231  -50.8458 C.ar      23 UNK        -0.1150 
     13 C13        -1.0953  -18.4358  -50.4949 C.ar      23 UNK        -0.0193 
     14 C14         0.1693  -18.2475  -49.9322 C.ar      23 UNK        -0.1150 
     15 C15        -1.5944  -19.8358  -50.8081 C.3       23 UNK        -0.0205 
     16 S16        -3.1255  -20.2845  -49.9339 S.3       23 UNK        -0.2404 
     17 C17        -2.5724  -20.5125  -48.2148 C.3       23 UNK        -0.0398 
     18 CA         -2.0704  -21.9551  -47.9538 C.3       11 UNK         0.1400 
     19 N          -0.6632  -22.1003  -48.3357 N.am      11 UNK        -0.5000 
     20 C           0.0907  -23.2036  -48.2476 C.2       10 UNK         0.5000 
     21 O          -0.3302  -24.2935  -47.8595 O.2       10 UNK        -0.5000 
     22 CA          1.5789  -23.0447  -48.6140 C.3       10 UNK         0.1400 
     23 CB          1.7908  -22.1551  -49.8544 C.3       10 UNK        -0.1800 
     24 N           2.4436  -22.5836  -47.5162 N.am      10 UNK        -0.5000 
     25 C           2.2367  -21.6167  -46.6071 C.2       9 UNK         0.5000 
     26 O           1.1873  -20.9829  -46.4691 O.2       9 UNK        -0.5000 
     27 CA          3.4327  -21.2765  -45.7091 C.3       9 UNK         0.1400 
     28 CB          4.2769  -20.1520  -46.3322 C.3       9 UNK        -0.1800 
     29 N           2.9476  -20.8523  -44.4007 N.am      9 UNK        -0.5000 
     30 C           3.5734  -21.0613  -43.2391 C.2       8 UNK         0.5000 
     31 O           4.6878  -21.5813  -43.1532 O.2       8 UNK        -0.5000 
     32 CA          2.8304  -20.6072  -41.9646 C.3       8 UNK         0.1400 
     33 CB          3.4876  -21.1373  -40.6773 C.3       8 UNK        -0.1800 
     34 N           2.7226  -19.1524  -41.8657 N.am      8 UNK        -0.5000 
     35 C           1.8737  -18.3826  -42.5555 C.2       7 UNK         0.5000 
     36 O           1.1085  -18.8080  -43.4250 O.2       7 UNK        -0.5000 
     37 CA          1.9000  -16.8813  -42.2176 C.3       7 UNK         0.1400 
     38 CB          3.0202  -16.1661  -42.9828 C.3       7 UNK        -0.1800 
     39 N           0.6175  -16.2258  -42.4878 N.am      7 UNK        -0.5000 
     40 C          -0.4868  -16.4340  -41.7578 C.2       6 UNK         0.5000 
     41 O          -0.5181  -17.1846  -40.7804 O.2       6 UNK        -0.5000 
     42 CA         -1.7390  -15.6325  -42.1527 C.3       6 UNK         0.1400 
     43 CB         -2.9039  -15.8344  -41.1562 C.3       6 UNK        -0.1800 
     44 N          -1.3775  -14.2215  -42.2741 N.am      6 UNK        -0.5000 
     45 C          -2.1502  -13.2395  -42.7468 C.2       5 UNK         0.5000 
     46 O          -3.3111  -13.3978  -43.1246 O.2       5 UNK        -0.5000 
     47 CA         -1.5224  -11.8367  -42.8262 C.3       5 UNK         0.1400 
     48 CB         -1.2467  -11.2498  -41.4276 C.3       5 UNK        -0.1800 
     49 N          -0.3414  -11.7684  -43.6932 N.am      5 UNK        -0.5000 
     50 C           0.8756  -12.3053  -43.5189 C.2       4 UNK         0.5000 
     51 O           1.1984  -12.9767  -42.5375 O.2       4 UNK        -0.5000 
     52 CA          1.8765  -12.0533  -44.6619 C.3       4 UNK         0.1400 
     53 CB          3.1462  -12.9154  -44.5829 C.3       4 UNK        -0.1800 
     54 N           1.2137  -12.3080  -45.9358 N.am      4 UNK        -0.5000 
     55 C           1.1042  -11.4418  -46.9498 C.2       3 UNK         0.5000 
     56 O           1.6315  -10.3291  -46.9616 O.2       3 UNK        -0.5000 
     57 CA          0.2331  -11.8789  -48.1452 C.3       3 UNK         0.1400 
     58 CB          1.1167  -12.3290  -49.3177 C.3       3 UNK        -0.1800 
     59 N          -0.7185  -12.9442  -47.8087 N.am      3 UNK        -0.5000 
     60 C          -1.7712  -12.7898  -46.9917 C.2       2 UNK         0.5000 
     61 O          -2.0809  -11.7134  -46.4799 O.2       2 UNK        -0.5000 
     62 CA         -2.5956  -14.0458  -46.6557 C.3       2 UNK         0.1400 
     63 CB         -3.8984  -14.0822  -47.4681 C.3       2 UNK        -0.1800 
     64 N          -1.8799  -15.3088  -46.8413 N.am      2 UNK        -0.5000 
     65 C          -0.8404  -15.7260  -46.1059 C.2       1 UNK         0.5000 
     66 O          -0.2926  -15.0478  -45.2326 O.2       1 UNK        -0.5000 
     67 C          -2.3559  -22.3819  -46.4985 C.2       11 UNK         0.5000 
     68 O          -3.4536  -22.8712  -46.2329 O.2       11 UNK        -0.5000 
     69 N          -1.3717  -22.2367  -45.6004 N.am      12 UNK        -0.5000 
     70 CA         -1.4447  -22.7060  -44.2154 C.3       12 UNK         0.1400 
     71 CB         -0.2293  -22.1782  -43.4452 C.3       12 UNK        -0.1800 
     72 C          -1.5176  -24.2391  -44.0897 C.2       12 UNK         0.5000 
     73 O          -2.2254  -24.7420  -43.2170 O.2       12 UNK        -0.5000 
     74 N          -0.7878  -24.9497  -44.9588 N.am      13 UNK        -0.5000 
     75 CA         -0.7441  -26.4109  -44.9962 C.3       13 UNK         0.1400 
     76 CB          0.6209  -26.8598  -45.5410 C.3       13 UNK        -0.1800 
     77 C          -1.8850  -26.9848  -45.8512 C.2       13 UNK         0.5000 
     78 O          -2.4718  -28.0035  -45.4858 O.2       13 UNK        -0.5000 
     79 N          -2.1808  -26.3127  -46.9709 N.am      14 UNK        -0.5000 
     80 CA         -3.1946  -26.7100  -47.9471 C.3       14 UNK         0.1400 
     81 CB         -2.8592  -26.0358  -49.2845 C.3       14 UNK        -0.1800 
     82 C          -4.6389  -26.3742  -47.5285 C.2       14 UNK         0.5000 
     83 O          -5.5663  -26.8055  -48.2121 O.2       14 UNK        -0.5000 
     84 N          -4.8103  -25.5883  -46.4549 N.am      15 UNK        -0.5000 
     85 CA         -6.0789  -25.0503  -45.9479 C.3       15 UNK         0.1400 
     86 CB         -6.9921  -26.1770  -45.4211 C.3       15 UNK        -0.1800 
     87 C          -6.7621  -24.1409  -46.9906 C.2       15 UNK         0.5000 
     88 O          -7.9296  -24.3356  -47.3314 O.2       15 UNK        -0.5000 
     89 N          -5.9756  -23.1837  -47.5015 N.am      16 UNK        -0.5000 
     90 CA         -6.2997  -22.1704  -48.5133 C.3       16 UNK         0.1400 
     91 CB         -7.4693  -21.2762  -48.0551 C.3       16 UNK        -0.1800 
     92 C          -6.5101  -22.7074  -49.9462 C.2       16 UNK         0.5000 
     93 O          -6.7783  -21.9113  -50.8459 O.2       16 UNK        -0.5000 
     94 N          -6.3542  -24.0212  -50.1684 N.am      17 UNK        -0.5000 
     95 CA         -6.5256  -24.6608  -51.4789 C.3       17 UNK         0.1400 
     96 CB         -6.6856  -26.1758  -51.2861 C.3       17 UNK        -0.1800 
     97 C          -5.3841  -24.3607  -52.4730 C.2       17 UNK         0.5000 
     98 O          -5.5673  -24.5399  -53.6769 O.2       17 UNK        -0.5000 
     99 N          -4.2351  -23.8988  -51.9622 N.am      18 UNK        -0.5000 
    100 CA        -3.0348  -23.5581  -52.7301 C.3       18 UNK         0.1400 
    101 CB        -1.7980  -23.7975  -51.8439 C.3       18 UNK        -0.1800 
    102 C         -3.0439  -22.1193  -53.2870 C.2       18 UNK         0.5000 
    103 O         -1.9857  -21.6429  -53.6941 O.2       18 UNK        -0.5000 
    104 N         -4.2064  -21.4456  -53.2802 N.am      19 UNK        -0.5000 
    105 CA        -4.4319  -20.0181  -53.5619 C.3       19 UNK         0.1400 
    106 CB        -5.9434  -19.7657  -53.6625 C.3       19 UNK        -0.1800 
    107 C         -3.7163  -19.4214  -54.7916 C.2       19 UNK         0.5000 
    108 O         -3.3672  -18.2404  -54.7679 O.2       19 UNK        -0.5000 
    109 N         -3.4654  -20.2444  -55.8194 N.am      20 UNK        -0.5000 
    110 CA        -2.6699  -19.9077  -57.0042 C.3       20 UNK         0.1400 
    111 CB        -2.6683  -21.1097  -57.9602 C.3       20 UNK        -0.1800 
    112 C         -1.2225  -19.4679  -56.6903 C.2       20 UNK         0.5000 
    113 O         -0.6486  -18.6940  -57.4587 O.2       20 UNK        -0.5000 
    114 N         -0.6733  -19.9168  -55.5502 N.am      21 UNK        -0.5000 
    115 CA         0.6390  -19.5263  -55.0267 C.3       21 UNK         0.1400 
    116 CB         0.9844  -20.4007  -53.8108 C.3       21 UNK        -0.1800 
    117 C          0.7538  -18.0299  -54.6667 C.2       21 UNK         0.5000 
    118 O          1.8744  -17.5297  -54.5597 O.2       21 UNK        -0.5000 
    119 N         -0.3846  -17.3351  -54.5189 N.am      22 UNK        -0.5000 
    120 CA        -0.4474  -15.8707  -54.3947 C.3       22 UNK         0.1400 
    121 C         -0.0916  -15.1020  -55.7059 C.2       22 UNK         0.5000 
    122 N         -0.0490  -15.7427  -56.8702 N.am      22 UNK        -0.7600 
    123 O          0.1600  -13.9009  -55.6681 O.2       22 UNK        -0.5000 
    124 C124       -1.8130  -15.4016  -53.8185 C.3       23 UNK        -0.0398 
    125 S125       -1.6224  -14.0478  -52.6068 S.3       23 UNK        -0.2404 
    126 C126       -2.2007  -14.8205  -51.0621 C.3       23 UNK        -0.0205 
    127 H127       -3.2092  -18.5341  -43.2501 H         1 UNK         0.0600 
    128 H128       -1.6203  -19.2957  -43.2194 H         1 UNK         0.0600 
    129 H129       -2.9584  -20.0661  -44.0868 H         1 UNK         0.0600 
    130 H130       -0.1694  -18.3218  -44.6139 H         1 UNK         0.3000 
    131 H131       -0.8118  -17.5030  -47.3097 H         1 UNK         0.0600 
    132 H132        1.4079  -18.2891  -46.9643 H         1 UNK         0.0800 
    133 H133        1.6486  -17.3140  -45.5553 H         1 UNK         0.0800 
    134 H134        2.6155  -17.7063  -49.1178 H         1 UNK         0.0800 
    135 H135        2.6426  -16.1123  -49.8294 H         1 UNK         0.0800 
    136 H136        0.3052  -14.8639  -49.9954 H         1 UNK         0.1150 
    137 H137       -2.8408  -17.4691  -51.2855 H         1 UNK         0.1150 
    138 H138        0.7728  -19.0992  -49.6633 H         1 UNK         0.1150 
    139 H139       -1.7950  -19.8657  -51.8768 H         1 UNK         0.0800 
    140 H140       -0.8270  -20.5878  -50.6285 H         1 UNK         0.0800 
    141 H141       -3.4368  -20.2726  -47.5921 H         1 UNK         0.0800 
    142 H142       -1.8141  -19.7710  -47.9591 H         1 UNK         0.0800 
    143 H143       -2.6415  -22.6446  -48.5777 H         1 UNK         0.0600 
    144 H144       -0.1862  -21.2434  -48.5702 H         1 UNK         0.3000 
    145 H145        1.9249  -24.0460  -48.8753 H         1 UNK         0.0600 
    146 H146        1.0949  -22.4100  -50.6554 H         1 UNK         0.0600 
    147 H147        1.6660  -21.0999  -49.6223 H         1 UNK         0.0600 
    148 H148        2.7975  -22.2811  -50.2528 H         1 UNK         0.0600 
    149 H149        3.3428  -23.0437  -47.4892 H         1 UNK         0.3000 
    150 H150        4.0466  -22.1732  -45.6004 H         1 UNK         0.0600 
    151 H151        4.6362  -20.4324  -47.3231 H         1 UNK         0.0600 
    152 H152        5.1514  -19.9310  -45.7201 H         1 UNK         0.0600 
    153 H153        3.7032  -19.2304  -46.4381 H         1 UNK         0.0600 
    154 H154        2.0443  -20.3876  -44.4015 H         1 UNK         0.3000 
    155 H155        1.8240  -21.0241  -42.0056 H         1 UNK         0.0600 
    156 H156        4.4931  -20.7370  -40.5415 H         1 UNK         0.0600 
    157 H157        3.5659  -22.2251  -40.6975 H         1 UNK         0.0600 
    158 H158        2.9002  -20.8732  -39.7976 H         1 UNK         0.0600 
    159 H159        3.3432  -18.7124  -41.2018 H         1 UNK         0.3000 
    160 H160        2.1084  -16.7806  -41.1501 H         1 UNK         0.0600 
    161 H161        2.8450  -16.1661  -44.0569 H         1 UNK         0.0600 
    162 H162        3.9852  -16.6437  -42.8094 H         1 UNK         0.0600 
    163 H163        3.1113  -15.1319  -42.6525 H         1 UNK         0.0600 
    164 H164        0.5630  -15.6270  -43.3038 H         1 UNK         0.3000 
    165 H165       -2.0547  -15.9897  -43.1341 H         1 UNK         0.0600 
    166 H166       -3.8200  -15.3526  -41.4952 H         1 UNK         0.0600 
    167 H167       -3.1366  -16.8930  -41.0345 H         1 UNK         0.0600 
    168 H168       -2.6600  -15.4346  -40.1714 H         1 UNK         0.0600 
    169 H169       -0.4123  -13.9887  -42.0530 H         1 UNK         0.3000 
    170 H170       -2.2643  -11.1927  -43.3015 H         1 UNK         0.0600 
    171 H171       -2.1605  -11.2233  -40.8330 H         1 UNK         0.0600 
    172 H172       -0.5153  -11.8344  -40.8694 H         1 UNK         0.0600 
    173 H173       -0.8748  -10.2277  -41.4971 H         1 UNK         0.0600 
    174 H174       -0.5034  -11.2933  -44.5713 H         1 UNK         0.3000 
    175 H175        2.1734  -11.0060  -44.5798 H         1 UNK         0.0600 
    176 H176        2.9192  -13.9649  -44.7619 H         1 UNK         0.0600 
    177 H177        3.8727  -12.6052  -45.3338 H         1 UNK         0.0600 
    178 H178        3.6298  -12.8307  -43.6092 H         1 UNK         0.0600 
    179 H179        0.7224  -13.1925  -45.9957 H         1 UNK         0.3000 
    180 H180       -0.3379  -11.0057  -48.4676 H         1 UNK         0.0600 
    181 H181        0.5175  -12.5547  -50.1999 H         1 UNK         0.0600 
    182 H182        1.7048  -13.2116  -49.0636 H         1 UNK         0.0600 
    183 H183        1.8177  -11.5426  -49.6008 H         1 UNK         0.0600 
    184 H184       -0.5190  -13.8678  -48.1616 H         1 UNK         0.3000 
    185 H185       -2.8648  -13.9781  -45.6022 H         1 UNK         0.0600 
    186 H186       -4.5360  -14.9072  -47.1496 H         1 UNK         0.0600 
    187 H187       -4.4695  -13.1626  -47.3329 H         1 UNK         0.0600 
    188 H188       -3.7106  -14.1977  -48.5346 H         1 UNK         0.0600 
    189 H189       -2.2906  -15.9577  -47.4978 H         1 UNK         0.3000 
    190 H190       -0.4992  -21.8096  -45.8996 H         1 UNK         0.3000 
    191 H191       -2.3480  -22.2948  -43.7618 H         1 UNK         0.0600 
    192 H192       -0.2973  -22.4315  -42.3866 H         1 UNK         0.0600 
    193 H193       -0.1593  -21.0951  -43.5186 H         1 UNK         0.0600 
    194 H194        0.7007  -22.6004  -43.8270 H         1 UNK         0.0600 
    195 H195       -0.2903  -24.4640  -45.6937 H         1 UNK         0.3000 
    196 H196       -0.8485  -26.8057  -43.9831 H         1 UNK         0.0600 
    197 H197        0.7929  -26.4963  -46.5549 H         1 UNK         0.0600 
    198 H198        1.4339  -26.4956  -44.9128 H         1 UNK         0.0600 
    199 H199        0.6917  -27.9480  -45.5660 H         1 UNK         0.0600 
    200 H200       -1.6032  -25.5138  -47.2204 H         1 UNK         0.3000 
    201 H201       -3.1389  -27.7915  -48.0872 H         1 UNK         0.0600 
    202 H202       -1.8481  -26.2875  -49.6049 H         1 UNK         0.0600 
    203 H203       -2.9274  -24.9506  -49.2128 H         1 UNK         0.0600 
    204 H204       -3.5374  -26.3597  -50.0741 H         1 UNK         0.0600 
    205 H205       -3.9784  -25.2428  -45.9961 H         1 UNK         0.3000 
    206 H206       -5.8252  -24.4110  -45.1008 H         1 UNK         0.0600 
    207 H207       -6.4764  -26.7860  -44.6788 H         1 UNK         0.0600 
    208 H208       -7.8806  -25.7640  -44.9424 H         1 UNK         0.0600 
    209 H209       -7.3309  -26.8376  -46.2196 H         1 UNK         0.0600 
    210 H210       -5.0364  -23.1196  -47.1130 H         1 UNK         0.3000 
    211 H211       -5.4187  -21.5328  -48.5691 H         1 UNK         0.0600 
    212 H212       -7.5960  -20.4253  -48.7254 H         1 UNK         0.0600 
    213 H213       -7.2923  -20.8760  -47.0568 H         1 UNK         0.0600 
    214 H214       -8.4148  -21.8185  -48.0386 H         1 UNK         0.0600 
    215 H215       -6.1715  -24.6312  -49.3833 H         1 UNK         0.3000 
    216 H216       -7.4489  -24.2813  -51.9218 H         1 UNK         0.0600 
    217 H217       -5.7750  -26.6322  -50.8992 H         1 UNK         0.0600 
    218 H218       -6.9190  -26.6666  -52.2318 H         1 UNK         0.0600 
    219 H219       -7.4959  -26.4040  -50.5932 H         1 UNK         0.0600 
    220 H220       -4.1899  -23.7500  -50.9662 H         1 UNK         0.3000 
    221 H221       -2.9603  -24.2252  -53.5911 H         1 UNK         0.0600 
    222 H222       -1.7262  -24.8428  -51.5487 H         1 UNK         0.0600 
    223 H223       -1.8239  -23.1873  -50.9410 H         1 UNK         0.0600 
    224 H224       -0.8735  -23.5602  -52.3720 H         1 UNK         0.0600 
    225 H225       -5.0100  -21.9393  -52.9190 H         1 UNK         0.3000 
    226 H226       -4.0637  -19.4672  -52.6956 H         1 UNK         0.0600 
    227 H227       -6.3963  -20.3571  -54.4592 H         1 UNK         0.0600 
    228 H228       -6.4484  -20.0150  -52.7296 H         1 UNK         0.0600 
    229 H229       -6.1551  -18.7158  -53.8700 H         1 UNK         0.0600 
    230 H230       -3.7678  -21.2037  -55.7377 H         1 UNK         0.3000 
    231 H231       -3.1622  -19.0710  -57.5038 H         1 UNK         0.0600 
    232 H232       -2.2136  -21.9877  -57.4995 H         1 UNK         0.0600 
    233 H233       -2.1064  -20.8866  -58.8682 H         1 UNK         0.0600 
    234 H234       -3.6813  -21.3749  -58.2637 H         1 UNK         0.0600 
    235 H235       -1.2167  -20.5447  -54.9602 H         1 UNK         0.3000 
    236 H236        1.3748  -19.7270  -55.8079 H         1 UNK         0.0600 
    237 H237        0.3003  -20.2224  -52.9824 H         1 UNK         0.0600 
    238 H238        0.9409  -21.4613  -54.0590 H         1 UNK         0.0600 
    239 H239        1.9926  -20.1912  -53.4512 H         1 UNK         0.0600 
    240 H240       -1.2711  -17.8126  -54.6311 H         1 UNK         0.3000 
    241 H241        0.3303  -15.6043  -53.6757 H         1 UNK         0.0600 
    242 H242        0.1876  -15.2300  -57.7049 H         1 UNK         0.3800 
    243 H243       -0.2469  -16.7347  -56.9355 H         1 UNK         0.3800 
    244 H244       -2.3302  -16.2277  -53.3333 H         1 UNK         0.0800 
    245 H245       -2.4944  -15.0778  -54.6074 H         1 UNK         0.0800 
    246 H246       -2.1515  -14.0731  -50.2701 H         1 UNK         0.0800 
    247 H247       -3.2525  -15.0918  -51.1647 H         1 UNK         0.0800 
@<TRIPOS>BOND
     1    1    2 1    
     2    1  127 1    
     3    1  128 1    
     4    1  129 1    
     5    2    3 2    
     6    2    4 am   BACKBONE|DICT|INTERRES
     7    4    5 1    
     8    4  130 1    
     9    5    6 1    
    10    5   65 1    
    11    5  131 1    
    12    6    7 1    
    13    6  132 1    
    14    6  133 1    
    15    7    8 1    
    16    8    9 1    
    17    8  134 1    
    18    8  135 1    
    19    9   10 ar   
    20    9   14 ar   
    21   10   11 ar   
    22   10  136 1    
    23   11   12 ar   
    24   11  126 1    
    25   12   13 ar   
    26   12  137 1    
    27   13   14 ar   
    28   13   15 1    
    29   14  138 1    
    30   15   16 1    
    31   15  139 1    
    32   15  140 1    
    33   16   17 1    
    34   17   18 1    
    35   17  141 1    
    36   17  142 1    
    37   18   19 1    
    38   18   67 1    
    39   18  143 1    
    40   19   20 am   BACKBONE|DICT|INTERRES
    41   19  144 1    
    42   20   21 2    
    43   20   22 1    
    44   22   23 1    
    45   22   24 1    
    46   22  145 1    
    47   23  146 1    
    48   23  147 1    
    49   23  148 1    
    50   24   25 am   BACKBONE|DICT|INTERRES
    51   24  149 1    
    52   25   26 2    
    53   25   27 1    
    54   27   28 1    
    55   27   29 1    
    56   27  150 1    
    57   28  151 1    
    58   28  152 1    
    59   28  153 1    
    60   29   30 am   BACKBONE|DICT|INTERRES
    61   29  154 1    
    62   30   31 2    
    63   30   32 1    
    64   32   33 1    
    65   32   34 1    
    66   32  155 1    
    67   33  156 1    
    68   33  157 1    
    69   33  158 1    
    70   34   35 am   BACKBONE|DICT|INTERRES
    71   34  159 1    
    72   35   36 2    
    73   35   37 1    
    74   37   38 1    
    75   37   39 1    
    76   37  160 1    
    77   38  161 1    
    78   38  162 1    
    79   38  163 1    
    80   39   40 am   BACKBONE|DICT|INTERRES
    81   39  164 1    
    82   40   41 2    
    83   40   42 1    
    84   42   43 1    
    85   42   44 1    
    86   42  165 1    
    87   43  166 1    
    88   43  167 1    
    89   43  168 1    
    90   44   45 am   BACKBONE|DICT|INTERRES
    91   44  169 1    
    92   45   46 2    
    93   45   47 1    
    94   47   48 1    
    95   47   49 1    
    96   47  170 1    
    97   48  171 1    
    98   48  172 1    
    99   48  173 1    
   100   49   50 am   BACKBONE|DICT|INTERRES
   101   49  174 1    
   102   50   51 2    
   103   50   52 1    
   104   52   53 1    
   105   52   54 1    
   106   52  175 1    
   107   53  176 1    
   108   53  177 1    
   109   53  178 1    
   110   54   55 am   BACKBONE|DICT|INTERRES
   111   54  179 1    
   112   55   56 2    
   113   55   57 1    
   114   57   58 1    
   115   57   59 1    
   116   57  180 1    
   117   58  181 1    
   118   58  182 1    
   119   58  183 1    
   120   59   60 am   BACKBONE|DICT|INTERRES
   121   59  184 1    
   122   60   61 2    
   123   60   62 1    
   124   62   63 1    
   125   62   64 1    
   126   62  185 1    
   127   63  186 1    
   128   63  187 1    
   129   63  188 1    
   130   64   65 am   BACKBONE|DICT|INTERRES
   131   64  189 1    
   132   65   66 2    
   133   67   68 2    
   134   67   69 am   BACKBONE|DICT|INTERRES
   135   69   70 1    
   136   69  190 1    
   137   70   71 1    
   138   70   72 1    
   139   70  191 1    
   140   71  192 1    
   141   71  193 1    
   142   71  194 1    
   143   72   73 2    
   144   72   74 am   BACKBONE|DICT|INTERRES
   145   74   75 1    
   146   74  195 1    
   147   75   76 1    
   148   75   77 1    
   149   75  196 1    
   150   76  197 1    
   151   76  198 1    
   152   76  199 1    
   153   77   78 2    
   154   77   79 am   BACKBONE|DICT|INTERRES
   155   79   80 1    
   156   79  200 1    
   157   80   81 1    
   158   80   82 1    
   159   80  201 1    
   160   81  202 1    
   161   81  203 1    
   162   81  204 1    
   163   82   83 2    
   164   82   84 am   BACKBONE|DICT|INTERRES
   165   84   85 1    
   166   84  205 1    
   167   85   86 1    
   168   85   87 1    
   169   85  206 1    
   170   86  207 1    
   171   86  208 1    
   172   86  209 1    
   173   87   88 2    
   174   87   89 am   BACKBONE|DICT|INTERRES
   175   89   90 1    
   176   89  210 1    
   177   90   91 1    
   178   90   92 1    
   179   90  211 1    
   180   91  212 1    
   181   91  213 1    
   182   91  214 1    
   183   92   93 2    
   184   92   94 am   BACKBONE|DICT|INTERRES
   185   94   95 1    
   186   94  215 1    
   187   95   96 1    
   188   95   97 1    
   189   95  216 1    
   190   96  217 1    
   191   96  218 1    
   192   96  219 1    
   193   97   98 2    
   194   97   99 am   BACKBONE|DICT|INTERRES
   195   99  100 1    
   196   99  220 1    
   197  100  101 1    
   198  100  102 1    
   199  100  221 1    
   200  101  222 1    
   201  101  223 1    
   202  101  224 1    
   203  102  103 2    
   204  102  104 am   BACKBONE|DICT|INTERRES
   205  104  105 1    
   206  104  225 1    
   207  105  106 1    
   208  105  107 1    
   209  105  226 1    
   210  106  227 1    
   211  106  228 1    
   212  106  229 1    
   213  107  108 2    
   214  107  109 am   BACKBONE|DICT|INTERRES
   215  109  110 1    
   216  109  230 1    
   217  110  111 1    
   218  110  112 1    
   219  110  231 1    
   220  111  232 1    
   221  111  233 1    
   222  111  234 1    
   223  112  113 2    
   224  112  114 am   BACKBONE|DICT|INTERRES
   225  114  115 1    
   226  114  235 1    
   227  115  116 1    
   228  115  117 1    
   229  115  236 1    
   230  116  237 1    
   231  116  238 1    
   232  116  239 1    
   233  117  118 2    
   234  117  119 am   BACKBONE|DICT|INTERRES
   235  119  120 1    
   236  119  240 1    
   237  120  121 1    
   238  120  124 1    
   239  120  241 1    
   240  121  122 am   BACKBONE|DICT|INTERRES
   241  121  123 2    
   242  122  242 1    
   243  122  243 1    
   244  124  125 1    
   245  124  244 1    
   246  124  245 1    
   247  125  126 1    
   248  126  246 1    
   249  126  247 1    
@<TRIPOS>SUBSTRUCTURE
     1 UNK         1 GROUP             0       ****    0 ROOT    
