@<TRIPOS>MOLECULE
3R540
247   249    1
SMALL
USER_CHARGES


@<TRIPOS>ATOM
      1 CA          0.5465   -8.8821  -47.2428 C.3       0 UNK        -0.1800 
      2 C           1.2207  -10.0199  -46.4916 C.2       0 UNK         0.5000 
      3 O           1.4312   -9.9124  -45.2836 O.2       0 UNK        -0.5000 
      4 N           1.5421  -11.1157  -47.1951 N.am      1 UNK        -0.5000 
      5 CA          2.2325  -12.3113  -46.6853 C.3       1 UNK         0.1400 
      6 C6          2.4347  -13.3521  -47.8142 C.3       23 UNK        -0.0398 
      7 S7          3.5628  -14.7205  -47.3698 S.3       23 UNK        -0.2404 
      8 C8          4.0634  -15.3374  -49.0084 C.3       23 UNK        -0.0205 
      9 C9          3.1379  -16.4316  -49.5229 C.ar      23 UNK        -0.0193 
     10 C10         1.9055  -16.1079  -50.1018 C.ar      23 UNK        -0.1150 
     11 C11         1.0675  -17.1143  -50.5919 C.ar      23 UNK        -0.0193 
     12 C12         1.4866  -18.4441  -50.5333 C.ar      23 UNK        -0.1150 
     13 C13         2.7142  -18.7833  -49.9624 C.ar      23 UNK        -0.0193 
     14 C14         3.5306  -17.7727  -49.4460 C.ar      23 UNK        -0.1150 
     15 C15         3.1634  -20.2375  -49.9339 C.3       23 UNK        -0.0205 
     16 S16         2.4849  -21.1454  -48.5102 S.3       23 UNK        -0.2404 
     17 C17         0.7099  -21.2092  -48.9300 C.3       23 UNK        -0.0398 
     18 CA         -0.0576  -22.2911  -48.1427 C.3       11 UNK         0.1400 
     19 N          -0.0111  -22.0773  -46.6931 N.am      11 UNK        -0.5000 
     20 C          -0.4561  -22.9504  -45.7794 C.2       10 UNK         0.5000 
     21 O          -0.9386  -24.0468  -46.0599 O.2       10 UNK        -0.5000 
     22 CA         -0.4044  -22.5020  -44.3101 C.3       10 UNK         0.1400 
     23 CB          1.0033  -22.6837  -43.7225 C.3       10 UNK        -0.1800 
     24 N          -0.8314  -21.1120  -44.1600 N.am      10 UNK        -0.5000 
     25 C          -2.0980  -20.6964  -44.3001 C.2       9 UNK         0.5000 
     26 O          -3.0459  -21.4532  -44.5149 O.2       9 UNK        -0.5000 
     27 CA         -2.3351  -19.1761  -44.2323 C.3       9 UNK         0.1400 
     28 CB         -2.4366  -18.7014  -42.7752 C.3       9 UNK        -0.1800 
     29 N          -1.2893  -18.4171  -44.9204 N.am      9 UNK        -0.5000 
     30 C          -1.1044  -18.4343  -46.2487 C.2       8 UNK         0.5000 
     31 O          -1.8166  -19.0665  -47.0232 O.2       8 UNK        -0.5000 
     32 CA          0.0946  -17.6507  -46.8111 C.3       8 UNK         0.1400 
     33 CB         -0.3290  -16.2207  -47.1638 C.3       8 UNK        -0.1800 
     34 N           1.2530  -17.6070  -45.9189 N.am      8 UNK        -0.5000 
     35 C           1.8957  -18.6795  -45.4346 C.2       7 UNK         0.5000 
     36 O           1.5523  -19.8410  -45.6478 O.2       7 UNK        -0.5000 
     37 CA          3.0832  -18.4015  -44.4999 C.3       7 UNK         0.1400 
     38 CB          4.3729  -18.2104  -45.3120 C.3       7 UNK        -0.1800 
     39 N           2.8680  -17.2312  -43.6476 N.am      7 UNK        -0.5000 
     40 C           1.9164  -17.1176  -42.7084 C.2       6 UNK         0.5000 
     41 O           1.0923  -18.0021  -42.4729 O.2       6 UNK        -0.5000 
     42 CA          1.8313  -15.7805  -41.9425 C.3       6 UNK         0.1400 
     43 CB          1.6707  -15.9764  -40.4215 C.3       6 UNK        -0.1800 
     44 N           2.9128  -14.8412  -42.2672 N.am      6 UNK        -0.5000 
     45 C           4.2097  -14.9228  -41.9345 C.2       5 UNK         0.5000 
     46 O           4.6831  -15.7997  -41.2124 O.2       5 UNK        -0.5000 
     47 CA          5.1494  -13.8722  -42.5452 C.3       5 UNK         0.1400 
     48 CB          5.7287  -14.3891  -43.8727 C.3       5 UNK        -0.1800 
     49 N           4.4758  -12.5942  -42.7887 N.am      5 UNK        -0.5000 
     50 C           4.9226  -11.4100  -42.3527 C.2       4 UNK         0.5000 
     51 O           5.9330  -11.2675  -41.6622 O.2       4 UNK        -0.5000 
     52 CA          4.1218  -10.1635  -42.7676 C.3       4 UNK         0.1400 
     53 CB          4.5771   -9.6704  -44.1497 C.3       4 UNK        -0.1800 
     54 N           2.6730  -10.3640  -42.7836 N.am      4 UNK        -0.5000 
     55 C           1.9103  -10.5041  -41.6902 C.2       3 UNK         0.5000 
     56 O           2.3605  -10.5750  -40.5462 O.2       3 UNK        -0.5000 
     57 CA          0.3888  -10.5523  -41.9069 C.3       3 UNK         0.1400 
     58 CB         -0.1694   -9.1352  -42.1137 C.3       3 UNK        -0.1800 
     59 N           0.0454  -11.3744  -43.0652 N.am      3 UNK        -0.5000 
     60 C          -0.4273  -12.6254  -42.9944 C.2       2 UNK         0.5000 
     61 O          -0.6903  -13.1986  -41.9374 O.2       2 UNK        -0.5000 
     62 CA         -0.6342  -13.3825  -44.3232 C.3       2 UNK         0.1400 
     63 CB         -2.1077  -13.3181  -44.7525 C.3       2 UNK        -0.1800 
     64 N           0.2029  -12.9072  -45.4275 N.am      2 UNK        -0.5000 
     65 C           1.5431  -12.9326  -45.4497 C.2       1 UNK         0.5000 
     66 O           2.2308  -13.3622  -44.5224 O.2       1 UNK        -0.5000 
     67 C          -1.5022  -22.4079  -48.6708 C.2       11 UNK         0.5000 
     68 O          -1.7513  -23.2228  -49.5582 O.2       11 UNK        -0.5000 
     69 N          -2.4337  -21.6211  -48.1144 N.am      12 UNK        -0.5000 
     70 CA         -3.8601  -21.6846  -48.4277 C.3       12 UNK         0.1400 
     71 CB         -4.5963  -20.4983  -47.7892 C.3       12 UNK        -0.1800 
     72 C          -4.4958  -23.0130  -47.9912 C.2       12 UNK         0.5000 
     73 O          -5.2713  -23.5842  -48.7569 O.2       12 UNK        -0.5000 
     74 N          -4.1331  -23.4861  -46.7903 N.am      13 UNK        -0.5000 
     75 CA         -4.5741  -24.7644  -46.2321 C.3       13 UNK         0.1400 
     76 CB         -4.2169  -24.8205  -44.7393 C.3       13 UNK        -0.1800 
     77 C          -3.9875  -25.9730  -46.9840 C.2       13 UNK         0.5000 
     78 O          -4.7081  -26.9404  -47.2309 O.2       13 UNK        -0.5000 
     79 N          -2.7052  -25.8877  -47.3692 N.am      14 UNK        -0.5000 
     80 CA         -2.0135  -26.8788  -48.2002 C.3       14 UNK         0.1400 
     81 CB         -0.5207  -26.5274  -48.2807 C.3       14 UNK        -0.1800 
     82 C          -2.6215  -26.9919  -49.6115 C.2       14 UNK         0.5000 
     83 O          -2.7103  -28.0916  -50.1570 O.2       14 UNK        -0.5000 
     84 N          -3.0866  -25.8558  -50.1428 N.am      15 UNK        -0.5000 
     85 CA         -3.8362  -25.7209  -51.3900 C.3       15 UNK         0.1400 
     86 CB         -3.5013  -24.3474  -51.9870 C.3       15 UNK        -0.1800 
     87 C          -5.3589  -25.9025  -51.1948 C.2       15 UNK         0.5000 
     88 O          -6.1389  -25.3557  -51.9796 O.2       15 UNK        -0.5000 
     89 N          -5.7566  -26.6367  -50.1447 N.am      16 UNK        -0.5000 
     90 CA         -7.1109  -26.9614  -49.6827 C.3       16 UNK         0.1400 
     91 CB         -7.9103  -27.7250  -50.7570 C.3       16 UNK        -0.1800 
     92 C          -7.8901  -25.7462  -49.1487 C.2       16 UNK         0.5000 
     93 O          -8.3097  -25.7485  -47.9906 O.2       16 UNK        -0.5000 
     94 N          -8.0625  -24.7363  -50.0024 N.am      17 UNK        -0.5000 
     95 CA         -8.7176  -23.4650  -49.7199 C.3       17 UNK         0.1400 
     96 CB        -10.2499  -23.6340  -49.7618 C.3       17 UNK        -0.1800 
     97 C          -8.1924  -22.4108  -50.7079 C.2       17 UNK         0.5000 
     98 O          -8.9827  -21.7135  -51.3459 O.2       17 UNK        -0.5000 
     99 N          -6.8582  -22.3480  -50.8415 N.am      18 UNK        -0.5000 
    100 CA        -6.1021  -21.4784  -51.7531 C.3       18 UNK         0.1400 
    101 CB        -6.2581  -19.9986  -51.3415 C.3       18 UNK        -0.1800 
    102 C         -6.4182  -21.7240  -53.2463 C.2       18 UNK         0.5000 
    103 O         -6.3955  -20.7821  -54.0398 O.2       18 UNK        -0.5000 
    104 N         -6.7248  -22.9800  -53.6050 N.am      19 UNK        -0.5000 
    105 CA        -7.1210  -23.3762  -54.9575 C.3       19 UNK         0.1400 
    106 CB        -7.8319  -24.7374  -54.9006 C.3       19 UNK        -0.1800 
    107 C         -5.9263  -23.4198  -55.9255 C.2       19 UNK         0.5000 
    108 O         -6.0315  -22.9378  -57.0541 O.2       19 UNK        -0.5000 
    109 N         -4.8088  -23.9851  -55.4556 N.am      20 UNK        -0.5000 
    110 CA        -3.5272  -24.0083  -56.1507 C.3       20 UNK         0.1400 
    111 CB        -2.7494  -25.2678  -55.7338 C.3       20 UNK        -0.1800 
    112 C         -2.7535  -22.7287  -55.8001 C.2       20 UNK         0.5000 
    113 O         -2.3254  -22.5805  -54.6520 O.2       20 UNK        -0.5000 
    114 N         -2.6134  -21.8294  -56.7853 N.am      21 UNK        -0.5000 
    115 CA        -1.9786  -20.5084  -56.7035 C.3       21 UNK         0.1400 
    116 CB        -0.4506  -20.6444  -56.5170 C.3       21 UNK        -0.1800 
    117 C         -2.6536  -19.6200  -55.6392 C.2       21 UNK         0.5000 
    118 O         -3.6583  -18.9733  -55.9379 O.2       21 UNK        -0.5000 
    119 N         -2.1096  -19.6371  -54.4209 N.am      22 UNK        -0.5000 
    120 CA        -2.6828  -19.0357  -53.2132 C.3       22 UNK         0.1400 
    121 C         -2.4851  -19.9325  -51.9542 C.2       22 UNK         0.5000 
    122 N         -2.1932  -21.2227  -52.0977 N.am      22 UNK        -0.7600 
    123 O         -2.6246  -19.4655  -50.8296 O.2       22 UNK        -0.5000 
    124 C124       -2.2671  -17.5489  -53.0315 C.3       23 UNK        -0.0398 
    125 S125       -0.4630  -17.2826  -52.8996 S.3       23 UNK        -0.2404 
    126 C126       -0.3081  -16.7900  -51.1520 C.3       23 UNK        -0.0205 
    127 H127        1.1498   -7.9774  -47.1692 H         1 UNK         0.0600 
    128 H128       -0.4323   -8.6764  -46.8097 H         1 UNK         0.0600 
    129 H129        0.4103   -9.1165  -48.2987 H         1 UNK         0.0600 
    130 H130        1.3273  -11.1283  -48.1821 H         1 UNK         0.3000 
    131 H131        3.2198  -11.9791  -46.3595 H         1 UNK         0.0600 
    132 H132        1.4774  -13.7556  -48.1415 H         1 UNK         0.0800 
    133 H133        2.8565  -12.8484  -48.6849 H         1 UNK         0.0800 
    134 H134        5.0817  -15.7211  -48.9296 H         1 UNK         0.0800 
    135 H135        4.1112  -14.5198  -49.7287 H         1 UNK         0.0800 
    136 H136        1.5952  -15.0748  -50.1606 H         1 UNK         0.1150 
    137 H137        0.8457  -19.2160  -50.9348 H         1 UNK         0.1150 
    138 H138        4.4820  -18.0297  -49.0017 H         1 UNK         0.1150 
    139 H139        2.8746  -20.7374  -50.8596 H         1 UNK         0.0800 
    140 H140        4.2524  -20.2883  -49.8916 H         1 UNK         0.0800 
    141 H141        0.6227  -21.3975  -50.0018 H         1 UNK         0.0800 
    142 H142        0.2677  -20.2297  -48.7476 H         1 UNK         0.0800 
    143 H143        0.4278  -23.2492  -48.3391 H         1 UNK         0.0600 
    144 H144        0.4295  -21.2181  -46.3738 H         1 UNK         0.3000 
    145 H145       -1.0901  -23.1349  -43.7426 H         1 UNK         0.0600 
    146 H146        1.0310  -22.3988  -42.6707 H         1 UNK         0.0600 
    147 H147        1.7467  -22.0866  -44.2510 H         1 UNK         0.0600 
    148 H148        1.3175  -23.7262  -43.7857 H         1 UNK         0.0600 
    149 H149       -0.1009  -20.4214  -44.0533 H         1 UNK         0.3000 
    150 H150       -3.2870  -18.9657  -44.7248 H         1 UNK         0.0600 
    151 H151       -3.2360  -19.2257  -42.2501 H         1 UNK         0.0600 
    152 H152       -2.6571  -17.6351  -42.7216 H         1 UNK         0.0600 
    153 H153       -1.5114  -18.8807  -42.2262 H         1 UNK         0.0600 
    154 H154       -0.6314  -17.9155  -44.3410 H         1 UNK         0.3000 
    155 H155        0.4133  -18.1453  -47.7295 H         1 UNK         0.0600 
    156 H156        0.4855  -15.6874  -47.6464 H         1 UNK         0.0600 
    157 H157       -0.6265  -15.6595  -46.2791 H         1 UNK         0.0600 
    158 H158       -1.1715  -16.2203  -47.8566 H         1 UNK         0.0600 
    159 H159        1.6139  -16.6937  -45.6881 H         1 UNK         0.3000 
    160 H160        3.2081  -19.2721  -43.8527 H         1 UNK         0.0600 
    161 H161        4.3154  -17.3375  -45.9631 H         1 UNK         0.0600 
    162 H162        4.5658  -19.0774  -45.9457 H         1 UNK         0.0600 
    163 H163        5.2367  -18.0859  -44.6588 H         1 UNK         0.0600 
    164 H164        3.4937  -16.4518  -43.7811 H         1 UNK         0.3000 
    165 H165        0.9182  -15.3068  -42.2988 H         1 UNK         0.0600 
    166 H166        1.6094  -15.0180  -39.9060 H         1 UNK         0.0600 
    167 H167        0.7548  -16.5236  -40.1956 H         1 UNK         0.0600 
    168 H168        2.4976  -16.5410  -39.9908 H         1 UNK         0.0600 
    169 H169        2.6508  -14.1319  -42.9475 H         1 UNK         0.3000 
    170 H170        5.9744  -13.7460  -41.8411 H         1 UNK         0.0600 
    171 H171        6.4614  -13.6918  -44.2789 H         1 UNK         0.0600 
    172 H172        6.2324  -15.3471  -43.7368 H         1 UNK         0.0600 
    173 H173        4.9506  -14.5291  -44.6238 H         1 UNK         0.0600 
    174 H174        3.6365  -12.6220  -43.3574 H         1 UNK         0.3000 
    175 H175        4.3414   -9.3764  -42.0430 H         1 UNK         0.0600 
    176 H176        4.3712  -10.4061  -44.9272 H         1 UNK         0.0600 
    177 H177        4.0719   -8.7442  -44.4242 H         1 UNK         0.0600 
    178 H178        5.6496   -9.4718  -44.1608 H         1 UNK         0.0600 
    179 H179        2.2182  -10.2694  -43.6889 H         1 UNK         0.3000 
    180 H180       -0.0637  -10.9588  -41.0000 H         1 UNK         0.0600 
    181 H181       -1.2549   -9.1519  -42.2117 H         1 UNK         0.0600 
    182 H182        0.2394   -8.6646  -43.0089 H         1 UNK         0.0600 
    183 H183        0.0709   -8.4930  -41.2654 H         1 UNK         0.0600 
    184 H184        0.2724  -10.9864  -43.9736 H         1 UNK         0.3000 
    185 H185       -0.3790  -14.4282  -44.1432 H         1 UNK         0.0600 
    186 H186       -2.4190  -12.2946  -44.9651 H         1 UNK         0.0600 
    187 H187       -2.2889  -13.9164  -45.6454 H         1 UNK         0.0600 
    188 H188       -2.7606  -13.7034  -43.9680 H         1 UNK         0.0600 
    189 H189       -0.2799  -12.4998  -46.2150 H         1 UNK         0.3000 
    190 H190       -2.1466  -20.8874  -47.4726 H         1 UNK         0.3000 
    191 H191       -3.9679  -21.6041  -49.5100 H         1 UNK         0.0600 
    192 H192       -4.2497  -19.5539  -48.2094 H         1 UNK         0.0600 
    193 H193       -4.4448  -20.4616  -46.7103 H         1 UNK         0.0600 
    194 H194       -5.6704  -20.5592  -47.9686 H         1 UNK         0.0600 
    195 H195       -3.5020  -22.9354  -46.2216 H         1 UNK         0.3000 
    196 H196       -5.6614  -24.8139  -46.3240 H         1 UNK         0.0600 
    197 H197       -4.6842  -24.0017  -44.1919 H         1 UNK         0.0600 
    198 H198       -3.1404  -24.7570  -44.5782 H         1 UNK         0.0600 
    199 H199       -4.5624  -25.7524  -44.2901 H         1 UNK         0.0600 
    200 H200       -2.1547  -25.0907  -47.0587 H         1 UNK         0.3000 
    201 H201       -2.1118  -27.8516  -47.7144 H         1 UNK         0.0600 
    202 H202       -0.0686  -26.4950  -47.2893 H         1 UNK         0.0600 
    203 H203       -0.3618  -25.5579  -48.7532 H         1 UNK         0.0600 
    204 H204        0.0247  -27.2705  -48.8637 H         1 UNK         0.0600 
    205 H205       -2.9261  -24.9936  -49.6345 H         1 UNK         0.3000 
    206 H206       -3.5102  -26.4870  -52.0959 H         1 UNK         0.0600 
    207 H207       -3.7693  -23.5495  -51.2973 H         1 UNK         0.0600 
    208 H208       -2.4356  -24.2604  -52.1996 H         1 UNK         0.0600 
    209 H209       -4.0303  -24.1677  -52.9187 H         1 UNK         0.0600 
    210 H210       -5.0280  -26.9675  -49.5261 H         1 UNK         0.3000 
    211 H211       -6.9754  -27.6397  -48.8389 H         1 UNK         0.0600 
    212 H212       -8.0946  -27.1196  -51.6448 H         1 UNK         0.0600 
    213 H213       -8.8815  -28.0344  -50.3691 H         1 UNK         0.0600 
    214 H214       -7.3839  -28.6262  -51.0711 H         1 UNK         0.0600 
    215 H215       -7.6156  -24.8219  -50.9111 H         1 UNK         0.3000 
    216 H216       -8.4287  -23.1322  -48.7209 H         1 UNK         0.0600 
    217 H217      -10.7543  -22.6913  -49.5466 H         1 UNK         0.0600 
    218 H218      -10.5909  -24.3571  -49.0209 H         1 UNK         0.0600 
    219 H219      -10.5873  -23.9744  -50.7414 H         1 UNK         0.0600 
    220 H220       -6.3018  -22.9551  -50.2434 H         1 UNK         0.3000 
    221 H221       -5.0522  -21.7352  -51.6298 H         1 UNK         0.0600 
    222 H222       -7.2794  -19.6434  -51.4793 H         1 UNK         0.0600 
    223 H223       -5.9893  -19.8485  -50.2970 H         1 UNK         0.0600 
    224 H224       -5.6103  -19.3523  -51.9322 H         1 UNK         0.0600 
    225 H225       -6.6786  -23.7195  -52.9112 H         1 UNK         0.3000 
    226 H226       -7.8337  -22.6410  -55.3375 H         1 UNK         0.0600 
    227 H227       -8.7063  -24.6979  -54.2507 H         1 UNK         0.0600 
    228 H228       -8.1753  -25.0392  -55.8909 H         1 UNK         0.0600 
    229 H229       -7.1743  -25.5237  -54.5278 H         1 UNK         0.0600 
    230 H230       -4.8094  -24.3203  -54.5045 H         1 UNK         0.3000 
    231 H231       -3.6885  -24.0548  -57.2300 H         1 UNK         0.0600 
    232 H232       -1.7855  -25.3136  -56.2421 H         1 UNK         0.0600 
    233 H233       -3.2982  -26.1727  -55.9949 H         1 UNK         0.0600 
    234 H234       -2.5542  -25.2939  -54.6614 H         1 UNK         0.0600 
    235 H235       -3.0514  -22.0346  -57.6726 H         1 UNK         0.3000 
    236 H236       -2.1473  -20.0204  -57.6647 H         1 UNK         0.0600 
    237 H237       -0.1849  -21.2088  -55.6229 H         1 UNK         0.0600 
    238 H238       -0.0010  -21.1534  -57.3695 H         1 UNK         0.0600 
    239 H239        0.0222  -19.6643  -56.4416 H         1 UNK         0.0600 
    240 H240       -1.2957  -20.2143  -54.2661 H         1 UNK         0.3000 
    241 H241       -3.7659  -19.0346  -53.3435 H         1 UNK         0.0600 
    242 H242       -2.0682  -21.7958  -51.2764 H         1 UNK         0.3800 
    243 H243       -2.1678  -21.6615  -53.0157 H         1 UNK         0.3800 
    244 H244       -2.7758  -17.1140  -52.1698 H         1 UNK         0.0800 
    245 H245       -2.6186  -16.9742  -53.8891 H         1 UNK         0.0800 
    246 H246       -1.0480  -17.3154  -50.5470 H         1 UNK         0.0800 
    247 H247       -0.5304  -15.7260  -51.0590 H         1 UNK         0.0800 
@<TRIPOS>BOND
     1    1    2 1    
     2    1  127 1    
     3    1  128 1    
     4    1  129 1    
     5    2    3 2    
     6    2    4 am   BACKBONE|DICT|INTERRES
     7    4    5 1    
     8    4  130 1    
     9    5    6 1    
    10    5   65 1    
    11    5  131 1    
    12    6    7 1    
    13    6  132 1    
    14    6  133 1    
    15    7    8 1    
    16    8    9 1    
    17    8  134 1    
    18    8  135 1    
    19    9   10 ar   
    20    9   14 ar   
    21   10   11 ar   
    22   10  136 1    
    23   11   12 ar   
    24   11  126 1    
    25   12   13 ar   
    26   12  137 1    
    27   13   14 ar   
    28   13   15 1    
    29   14  138 1    
    30   15   16 1    
    31   15  139 1    
    32   15  140 1    
    33   16   17 1    
    34   17   18 1    
    35   17  141 1    
    36   17  142 1    
    37   18   19 1    
    38   18   67 1    
    39   18  143 1    
    40   19   20 am   BACKBONE|DICT|INTERRES
    41   19  144 1    
    42   20   21 2    
    43   20   22 1    
    44   22   23 1    
    45   22   24 1    
    46   22  145 1    
    47   23  146 1    
    48   23  147 1    
    49   23  148 1    
    50   24   25 am   BACKBONE|DICT|INTERRES
    51   24  149 1    
    52   25   26 2    
    53   25   27 1    
    54   27   28 1    
    55   27   29 1    
    56   27  150 1    
    57   28  151 1    
    58   28  152 1    
    59   28  153 1    
    60   29   30 am   BACKBONE|DICT|INTERRES
    61   29  154 1    
    62   30   31 2    
    63   30   32 1    
    64   32   33 1    
    65   32   34 1    
    66   32  155 1    
    67   33  156 1    
    68   33  157 1    
    69   33  158 1    
    70   34   35 am   BACKBONE|DICT|INTERRES
    71   34  159 1    
    72   35   36 2    
    73   35   37 1    
    74   37   38 1    
    75   37   39 1    
    76   37  160 1    
    77   38  161 1    
    78   38  162 1    
    79   38  163 1    
    80   39   40 am   BACKBONE|DICT|INTERRES
    81   39  164 1    
    82   40   41 2    
    83   40   42 1    
    84   42   43 1    
    85   42   44 1    
    86   42  165 1    
    87   43  166 1    
    88   43  167 1    
    89   43  168 1    
    90   44   45 am   BACKBONE|DICT|INTERRES
    91   44  169 1    
    92   45   46 2    
    93   45   47 1    
    94   47   48 1    
    95   47   49 1    
    96   47  170 1    
    97   48  171 1    
    98   48  172 1    
    99   48  173 1    
   100   49   50 am   BACKBONE|DICT|INTERRES
   101   49  174 1    
   102   50   51 2    
   103   50   52 1    
   104   52   53 1    
   105   52   54 1    
   106   52  175 1    
   107   53  176 1    
   108   53  177 1    
   109   53  178 1    
   110   54   55 am   BACKBONE|DICT|INTERRES
   111   54  179 1    
   112   55   56 2    
   113   55   57 1    
   114   57   58 1    
   115   57   59 1    
   116   57  180 1    
   117   58  181 1    
   118   58  182 1    
   119   58  183 1    
   120   59   60 am   BACKBONE|DICT|INTERRES
   121   59  184 1    
   122   60   61 2    
   123   60   62 1    
   124   62   63 1    
   125   62   64 1    
   126   62  185 1    
   127   63  186 1    
   128   63  187 1    
   129   63  188 1    
   130   64   65 am   BACKBONE|DICT|INTERRES
   131   64  189 1    
   132   65   66 2    
   133   67   68 2    
   134   67   69 am   BACKBONE|DICT|INTERRES
   135   69   70 1    
   136   69  190 1    
   137   70   71 1    
   138   70   72 1    
   139   70  191 1    
   140   71  192 1    
   141   71  193 1    
   142   71  194 1    
   143   72   73 2    
   144   72   74 am   BACKBONE|DICT|INTERRES
   145   74   75 1    
   146   74  195 1    
   147   75   76 1    
   148   75   77 1    
   149   75  196 1    
   150   76  197 1    
   151   76  198 1    
   152   76  199 1    
   153   77   78 2    
   154   77   79 am   BACKBONE|DICT|INTERRES
   155   79   80 1    
   156   79  200 1    
   157   80   81 1    
   158   80   82 1    
   159   80  201 1    
   160   81  202 1    
   161   81  203 1    
   162   81  204 1    
   163   82   83 2    
   164   82   84 am   BACKBONE|DICT|INTERRES
   165   84   85 1    
   166   84  205 1    
   167   85   86 1    
   168   85   87 1    
   169   85  206 1    
   170   86  207 1    
   171   86  208 1    
   172   86  209 1    
   173   87   88 2    
   174   87   89 am   BACKBONE|DICT|INTERRES
   175   89   90 1    
   176   89  210 1    
   177   90   91 1    
   178   90   92 1    
   179   90  211 1    
   180   91  212 1    
   181   91  213 1    
   182   91  214 1    
   183   92   93 2    
   184   92   94 am   BACKBONE|DICT|INTERRES
   185   94   95 1    
   186   94  215 1    
   187   95   96 1    
   188   95   97 1    
   189   95  216 1    
   190   96  217 1    
   191   96  218 1    
   192   96  219 1    
   193   97   98 2    
   194   97   99 am   BACKBONE|DICT|INTERRES
   195   99  100 1    
   196   99  220 1    
   197  100  101 1    
   198  100  102 1    
   199  100  221 1    
   200  101  222 1    
   201  101  223 1    
   202  101  224 1    
   203  102  103 2    
   204  102  104 am   BACKBONE|DICT|INTERRES
   205  104  105 1    
   206  104  225 1    
   207  105  106 1    
   208  105  107 1    
   209  105  226 1    
   210  106  227 1    
   211  106  228 1    
   212  106  229 1    
   213  107  108 2    
   214  107  109 am   BACKBONE|DICT|INTERRES
   215  109  110 1    
   216  109  230 1    
   217  110  111 1    
   218  110  112 1    
   219  110  231 1    
   220  111  232 1    
   221  111  233 1    
   222  111  234 1    
   223  112  113 2    
   224  112  114 am   BACKBONE|DICT|INTERRES
   225  114  115 1    
   226  114  235 1    
   227  115  116 1    
   228  115  117 1    
   229  115  236 1    
   230  116  237 1    
   231  116  238 1    
   232  116  239 1    
   233  117  118 2    
   234  117  119 am   BACKBONE|DICT|INTERRES
   235  119  120 1    
   236  119  240 1    
   237  120  121 1    
   238  120  124 1    
   239  120  241 1    
   240  121  122 am   BACKBONE|DICT|INTERRES
   241  121  123 2    
   242  122  242 1    
   243  122  243 1    
   244  124  125 1    
   245  124  244 1    
   246  124  245 1    
   247  125  126 1    
   248  126  246 1    
   249  126  247 1    
@<TRIPOS>SUBSTRUCTURE
     1 UNK         1 GROUP             0       ****    0 ROOT    
