@<TRIPOS>MOLECULE
3R540
247   249    1
SMALL
USER_CHARGES


@<TRIPOS>ATOM
      1 CA         -3.6213  -16.3457  -42.2470 C.3       0 UNK        -0.1800 
      2 C          -4.0871  -15.6273  -43.5064 C.2       0 UNK         0.5000 
      3 O          -4.8231  -14.6452  -43.4146 O.2       0 UNK        -0.5000 
      4 N          -3.6682  -16.1170  -44.6803 N.am      1 UNK        -0.5000 
      5 CA         -4.0820  -15.6050  -45.9951 C.3       1 UNK         0.1400 
      6 C6         -3.7959  -16.6267  -47.1215 C.3       23 UNK        -0.0398 
      7 S7         -4.6873  -18.2015  -46.8853 S.3       23 UNK        -0.2404 
      8 C8         -5.2663  -18.5579  -48.5784 C.3       23 UNK        -0.0205 
      9 C9         -4.1190  -18.6413  -49.5765 C.ar      23 UNK        -0.0193 
     10 C10        -4.0979  -17.8180  -50.7061 C.ar      23 UNK        -0.1150 
     11 C11        -3.0367  -17.8882  -51.6138 C.ar      23 UNK        -0.0193 
     12 C12        -1.9807  -18.7707  -51.3717 C.ar      23 UNK        -0.1150 
     13 C13        -1.9956  -19.6065  -50.2532 C.ar      23 UNK        -0.0193 
     14 C14        -3.0761  -19.5468  -49.3708 C.ar      23 UNK        -0.1150 
     15 C15        -0.8620  -20.5922  -50.0210 C.3       23 UNK        -0.0205 
     16 S16         0.5318  -19.8495  -49.1089 S.3       23 UNK        -0.2404 
     17 C17        -0.1232  -19.6907  -47.4108 C.3       23 UNK        -0.0398 
     18 CA         -0.2480  -21.0627  -46.6895 C.3       11 UNK         0.1400 
     19 N           0.5534  -21.1617  -45.4675 N.am      11 UNK        -0.5000 
     20 C           0.7745  -22.3097  -44.8089 C.2       10 UNK         0.5000 
     21 O           0.3796  -23.4084  -45.2003 O.2       10 UNK        -0.5000 
     22 CA          1.4981  -22.2080  -43.4541 C.3       10 UNK         0.1400 
     23 CB          3.0185  -22.0996  -43.6412 C.3       10 UNK        -0.1800 
     24 N           1.0084  -21.0874  -42.6496 N.am      10 UNK        -0.5000 
     25 C          -0.2477  -20.9897  -42.1889 C.2       9 UNK         0.5000 
     26 O          -1.0995  -21.8655  -42.3392 O.2       9 UNK        -0.5000 
     27 CA         -0.6328  -19.6806  -41.4807 C.3       9 UNK         0.1400 
     28 CB         -0.2025  -19.7175  -40.0073 C.3       9 UNK        -0.1800 
     29 N          -0.0649  -18.5022  -42.1346 N.am      9 UNK        -0.5000 
     30 C          -0.3978  -18.0742  -43.3608 C.2       8 UNK         0.5000 
     31 O          -1.2668  -18.5930  -44.0611 O.2       8 UNK        -0.5000 
     32 CA          0.3941  -16.8807  -43.9163 C.3       8 UNK         0.1400 
     33 CB         -0.1067  -15.5669  -43.3087 C.3       8 UNK        -0.1800 
     34 N           1.8274  -16.9945  -43.6727 N.am      8 UNK        -0.5000 
     35 C           2.6209  -17.9597  -44.1513 C.2       7 UNK         0.5000 
     36 O           2.2309  -18.8701  -44.8809 O.2       7 UNK        -0.5000 
     37 CA          4.0884  -17.9178  -43.6967 C.3       7 UNK         0.1400 
     38 CB          4.8926  -16.9148  -44.5378 C.3       7 UNK        -0.1800 
     39 N           4.2064  -17.5723  -42.2801 N.am      7 UNK        -0.5000 
     40 C           3.8348  -18.3734  -41.2724 C.2       6 UNK         0.5000 
     41 O           3.3750  -19.5052  -41.4295 O.2       6 UNK        -0.5000 
     42 CA          3.9644  -17.7901  -39.8534 C.3       6 UNK         0.1400 
     43 CB          5.4222  -17.8433  -39.3718 C.3       6 UNK        -0.1800 
     44 N           3.4693  -16.4144  -39.7600 N.am      6 UNK        -0.5000 
     45 C           2.1841  -16.0695  -39.9167 C.2       5 UNK         0.5000 
     46 O           1.2868  -16.8739  -40.1615 O.2       5 UNK        -0.5000 
     47 CA          1.8407  -14.5718  -39.8191 C.3       5 UNK         0.1400 
     48 CB          1.6728  -14.1554  -38.3502 C.3       5 UNK        -0.1800 
     49 N           2.7916  -13.6663  -40.4734 N.am      5 UNK        -0.5000 
     50 C           3.2035  -13.7478  -41.7451 C.2       4 UNK         0.5000 
     51 O           2.9576  -14.6959  -42.4911 O.2       4 UNK        -0.5000 
     52 CA          4.0161  -12.5532  -42.2745 C.3       4 UNK         0.1400 
     53 CB          5.4760  -12.6651  -41.8088 C.3       4 UNK        -0.1800 
     54 N           4.0041  -12.4738  -43.7391 N.am      4 UNK        -0.5000 
     55 C           2.9825  -12.1833  -44.5599 C.2       3 UNK         0.5000 
     56 O           3.1237  -12.2358  -45.7839 O.2       3 UNK        -0.5000 
     57 CA          1.6148  -11.7343  -43.9990 C.3       3 UNK         0.1400 
     58 CB          1.6067  -10.2287  -43.6801 C.3       3 UNK        -0.1800 
     59 N           0.6026  -12.0129  -45.0136 N.am      3 UNK        -0.5000 
     60 C          -0.6759  -12.3388  -44.7976 C.2       2 UNK         0.5000 
     61 O          -1.1854  -12.3861  -43.6766 O.2       2 UNK        -0.5000 
     62 CA         -1.5313  -12.6930  -46.0288 C.3       2 UNK         0.1400 
     63 CB         -0.7198  -12.8863  -47.3310 C.3       2 UNK        -0.1800 
     64 N          -2.3115  -13.8967  -45.7448 N.am      2 UNK        -0.5000 
     65 C          -3.4508  -14.2410  -46.3578 C.2       1 UNK         0.5000 
     66 O          -3.9997  -13.5381  -47.2079 O.2       1 UNK        -0.5000 
     67 C          -1.7204  -21.4337  -46.4289 C.2       11 UNK         0.5000 
     68 O          -2.2861  -22.1976  -47.2049 O.2       11 UNK        -0.5000 
     69 N          -2.3120  -20.9315  -45.3361 N.am      12 UNK        -0.5000 
     70 CA         -3.6883  -21.2383  -44.9348 C.3       12 UNK         0.1400 
     71 CB         -4.0827  -20.3787  -43.7248 C.3       12 UNK        -0.1800 
     72 C          -3.9230  -22.7350  -44.6517 C.2       12 UNK         0.5000 
     73 O          -4.9808  -23.2566  -45.0054 O.2       12 UNK        -0.5000 
     74 N          -2.9228  -23.4044  -44.0617 N.am      13 UNK        -0.5000 
     75 CA         -2.9061  -24.8513  -43.8465 C.3       13 UNK         0.1400 
     76 CB         -1.7699  -25.2104  -42.8768 C.3       13 UNK        -0.1800 
     77 C          -2.7808  -25.6494  -45.1599 C.2       13 UNK         0.5000 
     78 O          -3.4419  -26.6782  -45.3068 O.2       13 UNK        -0.5000 
     79 N          -1.9483  -25.1624  -46.0912 N.am      14 UNK        -0.5000 
     80 CA         -1.7502  -25.7485  -47.4210 C.3       14 UNK         0.1400 
     81 CB         -0.4514  -25.1896  -48.0224 C.3       14 UNK        -0.1800 
     82 C          -2.9361  -25.5102  -48.3806 C.2       14 UNK         0.5000 
     83 O          -3.1449  -26.3163  -49.2882 O.2       14 UNK        -0.5000 
     84 N          -3.6754  -24.4175  -48.1445 N.am      15 UNK        -0.5000 
     85 CA         -4.7708  -23.8347  -48.9225 C.3       15 UNK         0.1400 
     86 CB         -5.8678  -24.8698  -49.2459 C.3       15 UNK        -0.1800 
     87 C          -4.2755  -23.1053  -50.1859 C.2       15 UNK         0.5000 
     88 O          -3.1380  -23.2928  -50.6229 O.2       15 UNK        -0.5000 
     89 N          -5.1631  -22.2847  -50.7683 N.am      16 UNK        -0.5000 
     90 CA         -4.9075  -21.4533  -51.9530 C.3       16 UNK         0.1400 
     91 CB         -6.1526  -20.6070  -52.2547 C.3       16 UNK        -0.1800 
     92 C          -4.4692  -22.2418  -53.2005 C.2       16 UNK         0.5000 
     93 O          -3.7200  -21.7131  -54.0208 O.2       16 UNK        -0.5000 
     94 N          -4.8849  -23.5145  -53.2798 N.am      17 UNK        -0.5000 
     95 CA         -4.4900  -24.4882  -54.2986 C.3       17 UNK         0.1400 
     96 CB         -5.2176  -25.8131  -54.0267 C.3       17 UNK        -0.1800 
     97 C          -2.9680  -24.7210  -54.3959 C.2       17 UNK         0.5000 
     98 O          -2.4886  -25.0828  -55.4707 O.2       17 UNK        -0.5000 
     99 N          -2.2233  -24.4579  -53.3101 N.am      18 UNK        -0.5000 
    100 CA        -0.7581  -24.4807  -53.2810 C.3       18 UNK         0.1400 
    101 CB        -0.2822  -24.3686  -51.8257 C.3       18 UNK        -0.1800 
    102 C         -0.1071  -23.3850  -54.1530 C.2       18 UNK         0.5000 
    103 O          1.0445  -23.5466  -54.5577 O.2       18 UNK        -0.5000 
    104 N         -0.8560  -22.3143  -54.4496 N.am      19 UNK        -0.5000 
    105 CA        -0.4866  -21.2407  -55.3719 C.3       19 UNK         0.1400 
    106 CB        -0.5691  -19.9009  -54.6233 C.3       19 UNK        -0.1800 
    107 C         -1.3893  -21.2490  -56.6230 C.2       19 UNK         0.5000 
    108 O         -1.4634  -20.2368  -57.3223 O.2       19 UNK        -0.5000 
    109 N         -2.0637  -22.3803  -56.8852 N.am      20 UNK        -0.5000 
    110 CA        -3.0341  -22.6173  -57.9552 C.3       20 UNK         0.1400 
    111 CB        -2.3368  -22.6345  -59.3340 C.3       20 UNK        -0.1800 
    112 C         -4.2278  -21.6447  -57.8681 C.2       20 UNK         0.5000 
    113 O         -5.1331  -21.8726  -57.0653 O.2       20 UNK        -0.5000 
    114 N         -4.2071  -20.5909  -58.6920 N.am      21 UNK        -0.5000 
    115 CA        -5.2204  -19.5369  -58.7450 C.3       21 UNK         0.1400 
    116 CB        -5.5167  -19.2320  -60.2237 C.3       21 UNK        -0.1800 
    117 C         -4.7910  -18.2554  -58.0000 C.2       21 UNK         0.5000 
    118 O         -5.5577  -17.2914  -57.9966 O.2       21 UNK        -0.5000 
    119 N         -3.5831  -18.2431  -57.4147 N.am      22 UNK        -0.5000 
    120 CA        -2.9429  -17.0905  -56.7485 C.3       22 UNK         0.1400 
    121 C         -2.4924  -15.9560  -57.7222 C.2       22 UNK         0.5000 
    122 N         -2.4105  -16.1928  -59.0260 N.am      22 UNK        -0.7600 
    123 O         -2.1778  -14.8489  -57.2930 O.2       22 UNK        -0.5000 
    124 C124       -3.7424  -16.5438  -55.5286 C.3       23 UNK        -0.0398 
    125 S125       -3.9706  -17.7847  -54.2099 S.3       23 UNK        -0.2404 
    126 C126       -3.0301  -17.0134  -52.8556 C.3       23 UNK        -0.0205 
    127 H127       -3.1753  -17.3135  -42.4741 H         1 UNK         0.0600 
    128 H128       -4.4652  -16.5169  -41.5788 H         1 UNK         0.0600 
    129 H129       -2.8842  -15.7419  -41.7178 H         1 UNK         0.0600 
    130 H130       -3.0936  -16.9494  -44.6962 H         1 UNK         0.3000 
    131 H131       -5.1622  -15.4457  -45.9618 H         1 UNK         0.0600 
    132 H132       -2.7282  -16.8435  -47.1886 H         1 UNK         0.0800 
    133 H133       -4.0824  -16.2078  -48.0881 H         1 UNK         0.0800 
    134 H134       -5.8029  -19.5074  -48.5769 H         1 UNK         0.0800 
    135 H135       -5.9872  -17.7946  -48.8751 H         1 UNK         0.0800 
    136 H136       -4.9095  -17.1272  -50.8865 H         1 UNK         0.1150 
    137 H137       -1.1501  -18.8152  -52.0596 H         1 UNK         0.1150 
    138 H138       -3.1104  -20.1980  -48.5130 H         1 UNK         0.1150 
    139 H139       -0.4934  -20.9452  -50.9853 H         1 UNK         0.0800 
    140 H140       -1.2254  -21.4806  -49.5042 H         1 UNK         0.0800 
    141 H141       -1.0633  -19.1369  -47.4412 H         1 UNK         0.0800 
    142 H142        0.5605  -19.0351  -46.8723 H         1 UNK         0.0800 
    143 H143        0.1414  -21.8381  -47.3529 H         1 UNK         0.0600 
    144 H144        0.9615  -20.3027  -45.1094 H         1 UNK         0.3000 
    145 H145        1.2930  -23.1271  -42.9012 H         1 UNK         0.0600 
    146 H146        3.4018  -22.9487  -44.2084 H         1 UNK         0.0600 
    147 H147        3.5335  -22.0910  -42.6805 H         1 UNK         0.0600 
    148 H148        3.2992  -21.1942  -44.1782 H         1 UNK         0.0600 
    149 H149        1.6666  -20.3428  -42.4515 H         1 UNK         0.3000 
    150 H150       -1.7200  -19.5901  -41.5127 H         1 UNK         0.0600 
    151 H151       -0.6105  -20.5935  -39.5015 H         1 UNK         0.0600 
    152 H152       -0.5599  -18.8378  -39.4718 H         1 UNK         0.0600 
    153 H153        0.8830  -19.7530  -39.9059 H         1 UNK         0.0600 
    154 H154        0.6191  -17.9767  -41.5971 H         1 UNK         0.3000 
    155 H155        0.2411  -16.8442  -44.9969 H         1 UNK         0.0600 
    156 H156       -0.0403  -15.5714  -42.2213 H         1 UNK         0.0600 
    157 H157       -1.1454  -15.3819  -43.5702 H         1 UNK         0.0600 
    158 H158        0.4796  -14.7245  -43.6717 H         1 UNK         0.0600 
    159 H159        2.2509  -16.2573  -43.1126 H         1 UNK         0.3000 
    160 H160        4.5160  -18.9114  -43.8463 H         1 UNK         0.0600 
    161 H161        4.5203  -15.8962  -44.4206 H         1 UNK         0.0600 
    162 H162        4.8370  -17.1639  -45.5982 H         1 UNK         0.0600 
    163 H163        5.9459  -16.9209  -44.2574 H         1 UNK         0.0600 
    164 H164        4.5034  -16.6314  -42.0663 H         1 UNK         0.3000 
    165 H165        3.3639  -18.4113  -39.1852 H         1 UNK         0.0600 
    166 H166        5.5069  -17.5141  -38.3360 H         1 UNK         0.0600 
    167 H167        5.8121  -18.8609  -39.4211 H         1 UNK         0.0600 
    168 H168        6.0727  -17.2125  -39.9789 H         1 UNK         0.0600 
    169 H169        4.1467  -15.6901  -39.5730 H         1 UNK         0.3000 
    170 H170        0.8788  -14.4312  -40.3154 H         1 UNK         0.0600 
    171 H171        1.3014  -13.1337  -38.2690 H         1 UNK         0.0600 
    172 H172        2.6151  -14.2152  -37.8042 H         1 UNK         0.0600 
    173 H173        0.9560  -14.8004  -37.8399 H         1 UNK         0.0600 
    174 H174        3.0689  -12.8614  -39.9300 H         1 UNK         0.3000 
    175 H175        3.5917  -11.6347  -41.8675 H         1 UNK         0.0600 
    176 H176        5.5443  -12.6892  -40.7204 H         1 UNK         0.0600 
    177 H177        5.9511  -13.5715  -42.1872 H         1 UNK         0.0600 
    178 H178        6.0644  -11.8123  -42.1483 H         1 UNK         0.0600 
    179 H179        4.8653  -12.7646  -44.1757 H         1 UNK         0.3000 
    180 H180        1.3721  -12.2990  -43.1001 H         1 UNK         0.0600 
    181 H181        0.6392   -9.9151  -43.2878 H         1 UNK         0.0600 
    182 H182        1.8156   -9.6312  -44.5684 H         1 UNK         0.0600 
    183 H183        2.3565   -9.9733  -42.9318 H         1 UNK         0.0600 
    184 H184        0.9764  -12.0557  -45.9540 H         1 UNK         0.3000 
    185 H185       -2.2177  -11.8559  -46.1709 H         1 UNK         0.0600 
    186 H186       -1.3714  -13.1233  -48.1721 H         1 UNK         0.0600 
    187 H187       -0.1793  -11.9791  -47.6035 H         1 UNK         0.0600 
    188 H188        0.0042  -13.6970  -47.2382 H         1 UNK         0.0600 
    189 H189       -1.9668  -14.4765  -44.9940 H         1 UNK         0.3000 
    190 H190       -1.8097  -20.2586  -44.7630 H         1 UNK         0.3000 
    191 H191       -4.3380  -20.9644  -45.7681 H         1 UNK         0.0600 
    192 H192       -3.9869  -19.3162  -43.9478 H         1 UNK         0.0600 
    193 H193       -5.1205  -20.5579  -43.4418 H         1 UNK         0.0600 
    194 H194       -3.4634  -20.5980  -42.8558 H         1 UNK         0.0600 
    195 H195       -2.1149  -22.8827  -43.7362 H         1 UNK         0.3000 
    196 H196       -3.8508  -25.1325  -43.3765 H         1 UNK         0.0600 
    197 H197       -1.7522  -26.2821  -42.6755 H         1 UNK         0.0600 
    198 H198       -1.8928  -24.7009  -41.9208 H         1 UNK         0.0600 
    199 H199       -0.7943  -24.9350  -43.2776 H         1 UNK         0.0600 
    200 H200       -1.4041  -24.3346  -45.8745 H         1 UNK         0.3000 
    201 H201       -1.6307  -26.8273  -47.3023 H         1 UNK         0.0600 
    202 H202       -0.2105  -25.6926  -48.9587 H         1 UNK         0.0600 
    203 H203        0.3936  -25.3375  -47.3496 H         1 UNK         0.0600 
    204 H204       -0.5313  -24.1224  -48.2325 H         1 UNK         0.0600 
    205 H205       -3.2926  -23.7798  -47.4521 H         1 UNK         0.3000 
    206 H206       -5.2069  -23.0761  -48.2706 H         1 UNK         0.0600 
    207 H207       -6.1600  -25.4259  -48.3550 H         1 UNK         0.0600 
    208 H208       -6.7646  -24.3832  -49.6302 H         1 UNK         0.0600 
    209 H209       -5.5437  -25.5875  -50.0000 H         1 UNK         0.0600 
    210 H210       -6.0797  -22.1921  -50.3556 H         1 UNK         0.3000 
    211 H211       -4.0889  -20.7768  -51.7117 H         1 UNK         0.0600 
    212 H212       -7.0214  -21.2302  -52.4695 H         1 UNK         0.0600 
    213 H213       -5.9857  -19.9649  -53.1206 H         1 UNK         0.0600 
    214 H214       -6.4003  -19.9568  -51.4156 H         1 UNK         0.0600 
    215 H215       -5.4830  -23.8564  -52.5428 H         1 UNK         0.3000 
    216 H216       -4.8220  -24.1028  -55.2646 H         1 UNK         0.0600 
    217 H217       -4.9474  -26.2269  -53.0541 H         1 UNK         0.0600 
    218 H218       -4.9675  -26.5591  -54.7823 H         1 UNK         0.0600 
    219 H219       -6.2996  -25.6818  -54.0482 H         1 UNK         0.0600 
    220 H220       -2.6812  -24.1409  -52.4608 H         1 UNK         0.3000 
    221 H221       -0.4321  -25.4469  -53.6714 H         1 UNK         0.0600 
    222 H222       -0.5504  -23.4074  -51.3872 H         1 UNK         0.0600 
    223 H223       -0.7247  -25.1513  -51.2100 H         1 UNK         0.0600 
    224 H224        0.8015  -24.4703  -51.7574 H         1 UNK         0.0600 
    225 H225       -1.8088  -22.2653  -54.0990 H         1 UNK         0.3000 
    226 H226        0.5381  -21.3703  -55.7243 H         1 UNK         0.0600 
    227 H227        0.0835  -19.9021  -53.7505 H         1 UNK         0.0600 
    228 H228       -0.2577  -19.0704  -55.2576 H         1 UNK         0.0600 
    229 H229       -1.5865  -19.6978  -54.2876 H         1 UNK         0.0600 
    230 H230       -1.9467  -23.1549  -56.2437 H         1 UNK         0.3000 
    231 H231       -3.4410  -23.6153  -57.7852 H         1 UNK         0.0600 
    232 H232       -1.8258  -21.6982  -59.5589 H         1 UNK         0.0600 
    233 H233       -3.0555  -22.8204  -60.1333 H         1 UNK         0.0600 
    234 H234       -1.5937  -23.4306  -59.3802 H         1 UNK         0.0600 
    235 H235       -3.4045  -20.4751  -59.2944 H         1 UNK         0.3000 
    236 H236       -6.1462  -19.8817  -58.2802 H         1 UNK         0.0600 
    237 H237       -4.6356  -18.8511  -60.7413 H         1 UNK         0.0600 
    238 H238       -5.8544  -20.1253  -60.7494 H         1 UNK         0.0600 
    239 H239       -6.3046  -18.4841  -60.3221 H         1 UNK         0.0600 
    240 H240       -3.0055  -19.0774  -57.4649 H         1 UNK         0.3000 
    241 H241       -2.0042  -17.4828  -56.3561 H         1 UNK         0.0600 
    242 H242       -2.1076  -15.4579  -59.6460 H         1 UNK         0.3800 
    243 H243       -2.6412  -17.0999  -59.3973 H         1 UNK         0.3800 
    244 H244       -4.7225  -16.1782  -55.8345 H         1 UNK         0.0800 
    245 H245       -3.2348  -15.6794  -55.0984 H         1 UNK         0.0800 
    246 H246       -2.0049  -16.8328  -53.1832 H         1 UNK         0.0800 
    247 H247       -3.4594  -16.0379  -52.6222 H         1 UNK         0.0800 
@<TRIPOS>BOND
     1    1    2 1    
     2    1  127 1    
     3    1  128 1    
     4    1  129 1    
     5    2    3 2    
     6    2    4 am   BACKBONE|DICT|INTERRES
     7    4    5 1    
     8    4  130 1    
     9    5    6 1    
    10    5   65 1    
    11    5  131 1    
    12    6    7 1    
    13    6  132 1    
    14    6  133 1    
    15    7    8 1    
    16    8    9 1    
    17    8  134 1    
    18    8  135 1    
    19    9   10 ar   
    20    9   14 ar   
    21   10   11 ar   
    22   10  136 1    
    23   11   12 ar   
    24   11  126 1    
    25   12   13 ar   
    26   12  137 1    
    27   13   14 ar   
    28   13   15 1    
    29   14  138 1    
    30   15   16 1    
    31   15  139 1    
    32   15  140 1    
    33   16   17 1    
    34   17   18 1    
    35   17  141 1    
    36   17  142 1    
    37   18   19 1    
    38   18   67 1    
    39   18  143 1    
    40   19   20 am   BACKBONE|DICT|INTERRES
    41   19  144 1    
    42   20   21 2    
    43   20   22 1    
    44   22   23 1    
    45   22   24 1    
    46   22  145 1    
    47   23  146 1    
    48   23  147 1    
    49   23  148 1    
    50   24   25 am   BACKBONE|DICT|INTERRES
    51   24  149 1    
    52   25   26 2    
    53   25   27 1    
    54   27   28 1    
    55   27   29 1    
    56   27  150 1    
    57   28  151 1    
    58   28  152 1    
    59   28  153 1    
    60   29   30 am   BACKBONE|DICT|INTERRES
    61   29  154 1    
    62   30   31 2    
    63   30   32 1    
    64   32   33 1    
    65   32   34 1    
    66   32  155 1    
    67   33  156 1    
    68   33  157 1    
    69   33  158 1    
    70   34   35 am   BACKBONE|DICT|INTERRES
    71   34  159 1    
    72   35   36 2    
    73   35   37 1    
    74   37   38 1    
    75   37   39 1    
    76   37  160 1    
    77   38  161 1    
    78   38  162 1    
    79   38  163 1    
    80   39   40 am   BACKBONE|DICT|INTERRES
    81   39  164 1    
    82   40   41 2    
    83   40   42 1    
    84   42   43 1    
    85   42   44 1    
    86   42  165 1    
    87   43  166 1    
    88   43  167 1    
    89   43  168 1    
    90   44   45 am   BACKBONE|DICT|INTERRES
    91   44  169 1    
    92   45   46 2    
    93   45   47 1    
    94   47   48 1    
    95   47   49 1    
    96   47  170 1    
    97   48  171 1    
    98   48  172 1    
    99   48  173 1    
   100   49   50 am   BACKBONE|DICT|INTERRES
   101   49  174 1    
   102   50   51 2    
   103   50   52 1    
   104   52   53 1    
   105   52   54 1    
   106   52  175 1    
   107   53  176 1    
   108   53  177 1    
   109   53  178 1    
   110   54   55 am   BACKBONE|DICT|INTERRES
   111   54  179 1    
   112   55   56 2    
   113   55   57 1    
   114   57   58 1    
   115   57   59 1    
   116   57  180 1    
   117   58  181 1    
   118   58  182 1    
   119   58  183 1    
   120   59   60 am   BACKBONE|DICT|INTERRES
   121   59  184 1    
   122   60   61 2    
   123   60   62 1    
   124   62   63 1    
   125   62   64 1    
   126   62  185 1    
   127   63  186 1    
   128   63  187 1    
   129   63  188 1    
   130   64   65 am   BACKBONE|DICT|INTERRES
   131   64  189 1    
   132   65   66 2    
   133   67   68 2    
   134   67   69 am   BACKBONE|DICT|INTERRES
   135   69   70 1    
   136   69  190 1    
   137   70   71 1    
   138   70   72 1    
   139   70  191 1    
   140   71  192 1    
   141   71  193 1    
   142   71  194 1    
   143   72   73 2    
   144   72   74 am   BACKBONE|DICT|INTERRES
   145   74   75 1    
   146   74  195 1    
   147   75   76 1    
   148   75   77 1    
   149   75  196 1    
   150   76  197 1    
   151   76  198 1    
   152   76  199 1    
   153   77   78 2    
   154   77   79 am   BACKBONE|DICT|INTERRES
   155   79   80 1    
   156   79  200 1    
   157   80   81 1    
   158   80   82 1    
   159   80  201 1    
   160   81  202 1    
   161   81  203 1    
   162   81  204 1    
   163   82   83 2    
   164   82   84 am   BACKBONE|DICT|INTERRES
   165   84   85 1    
   166   84  205 1    
   167   85   86 1    
   168   85   87 1    
   169   85  206 1    
   170   86  207 1    
   171   86  208 1    
   172   86  209 1    
   173   87   88 2    
   174   87   89 am   BACKBONE|DICT|INTERRES
   175   89   90 1    
   176   89  210 1    
   177   90   91 1    
   178   90   92 1    
   179   90  211 1    
   180   91  212 1    
   181   91  213 1    
   182   91  214 1    
   183   92   93 2    
   184   92   94 am   BACKBONE|DICT|INTERRES
   185   94   95 1    
   186   94  215 1    
   187   95   96 1    
   188   95   97 1    
   189   95  216 1    
   190   96  217 1    
   191   96  218 1    
   192   96  219 1    
   193   97   98 2    
   194   97   99 am   BACKBONE|DICT|INTERRES
   195   99  100 1    
   196   99  220 1    
   197  100  101 1    
   198  100  102 1    
   199  100  221 1    
   200  101  222 1    
   201  101  223 1    
   202  101  224 1    
   203  102  103 2    
   204  102  104 am   BACKBONE|DICT|INTERRES
   205  104  105 1    
   206  104  225 1    
   207  105  106 1    
   208  105  107 1    
   209  105  226 1    
   210  106  227 1    
   211  106  228 1    
   212  106  229 1    
   213  107  108 2    
   214  107  109 am   BACKBONE|DICT|INTERRES
   215  109  110 1    
   216  109  230 1    
   217  110  111 1    
   218  110  112 1    
   219  110  231 1    
   220  111  232 1    
   221  111  233 1    
   222  111  234 1    
   223  112  113 2    
   224  112  114 am   BACKBONE|DICT|INTERRES
   225  114  115 1    
   226  114  235 1    
   227  115  116 1    
   228  115  117 1    
   229  115  236 1    
   230  116  237 1    
   231  116  238 1    
   232  116  239 1    
   233  117  118 2    
   234  117  119 am   BACKBONE|DICT|INTERRES
   235  119  120 1    
   236  119  240 1    
   237  120  121 1    
   238  120  124 1    
   239  120  241 1    
   240  121  122 am   BACKBONE|DICT|INTERRES
   241  121  123 2    
   242  122  242 1    
   243  122  243 1    
   244  124  125 1    
   245  124  244 1    
   246  124  245 1    
   247  125  126 1    
   248  126  246 1    
   249  126  247 1    
@<TRIPOS>SUBSTRUCTURE
     1 UNK         1 GROUP             0       ****    0 ROOT    
