@<TRIPOS>MOLECULE
3R540
247   249    1
SMALL
USER_CHARGES


@<TRIPOS>ATOM
      1 CA          1.5188   -8.7976  -51.0587 C.3       0 UNK        -0.1800 
      2 C           1.4986   -9.9365  -50.0489 C.2       0 UNK         0.5000 
      3 O           1.2343   -9.7044  -48.8689 O.2       0 UNK        -0.5000 
      4 N           1.7821  -11.1630  -50.5048 N.am      1 UNK        -0.5000 
      5 CA          1.7486  -12.3864  -49.7013 C.3       1 UNK         0.1400 
      6 C6          2.6208  -13.5003  -50.3375 C.3       23 UNK        -0.0398 
      7 S7          3.2521  -14.6897  -49.1051 S.3       23 UNK        -0.2404 
      8 C8          2.0579  -16.0549  -49.2428 C.3       23 UNK        -0.0205 
      9 C9          2.5198  -17.1699  -50.1758 C.ar      23 UNK        -0.0193 
     10 C10         2.5502  -16.9709  -51.5585 C.ar      23 UNK        -0.1150 
     11 C11         2.9980  -17.9800  -52.4131 C.ar      23 UNK        -0.0193 
     12 C12         3.3689  -19.2176  -51.8784 C.ar      23 UNK        -0.1150 
     13 C13         3.3237  -19.4514  -50.4994 C.ar      23 UNK        -0.0193 
     14 C14         2.9110  -18.4099  -49.6557 C.ar      23 UNK        -0.1150 
     15 C15         3.7893  -20.8191  -49.9832 C.3       23 UNK        -0.0205 
     16 S16         3.5249  -21.1627  -48.2032 S.3       23 UNK        -0.2404 
     17 C17         1.8432  -21.8809  -48.1543 C.3       23 UNK        -0.0398 
     18 CA          1.7402  -23.1433  -47.2547 C.3       11 UNK         0.1400 
     19 N           2.2295  -22.8875  -45.8985 N.am      11 UNK        -0.5000 
     20 C           2.6199  -23.8286  -45.0306 C.2       10 UNK         0.5000 
     21 O           2.7970  -25.0080  -45.3434 O.2       10 UNK        -0.5000 
     22 CA          2.7946  -23.3832  -43.5635 C.3       10 UNK         0.1400 
     23 CB          3.7189  -24.3113  -42.7470 C.3       10 UNK        -0.1800 
     24 N           3.1844  -21.9775  -43.4249 N.am      10 UNK        -0.5000 
     25 C           4.3454  -21.4067  -43.7795 C.2       9 UNK         0.5000 
     26 O           5.2956  -22.0282  -44.2572 O.2       9 UNK        -0.5000 
     27 CA          4.4792  -19.8821  -43.5721 C.3       9 UNK         0.1400 
     28 CB          4.6659  -19.1678  -44.9213 C.3       9 UNK        -0.1800 
     29 N           3.3424  -19.2778  -42.8718 N.am      9 UNK        -0.5000 
     30 C           3.0959  -19.3697  -41.5581 C.2       8 UNK         0.5000 
     31 O           3.8468  -19.9323  -40.7609 O.2       8 UNK        -0.5000 
     32 CA          1.7660  -18.7694  -41.0574 C.3       8 UNK         0.1400 
     33 CB          1.9315  -17.2797  -40.7223 C.3       8 UNK        -0.1800 
     34 N           0.6614  -18.9393  -42.0072 N.am      8 UNK        -0.5000 
     35 C           0.1411  -20.1232  -42.3651 C.2       7 UNK         0.5000 
     36 O           0.5162  -21.2001  -41.9012 O.2       7 UNK        -0.5000 
     37 CA         -0.9350  -20.1122  -43.4680 C.3       7 UNK         0.1400 
     38 CB         -2.3151  -19.7553  -42.8972 C.3       7 UNK        -0.1800 
     39 N          -0.6056  -19.2019  -44.5644 N.am      7 UNK        -0.5000 
     40 C           0.4612  -19.3435  -45.3623 C.2       6 UNK         0.5000 
     41 O           1.2539  -20.2804  -45.2813 O.2       6 UNK        -0.5000 
     42 CA          0.7172  -18.2275  -46.3877 C.3       6 UNK         0.1400 
     43 CB         -0.2263  -18.3526  -47.5925 C.3       6 UNK        -0.1800 
     44 N           0.5825  -16.8933  -45.8092 N.am      6 UNK        -0.5000 
     45 C           1.3383  -16.4052  -44.8169 C.2       5 UNK         0.5000 
     46 O           2.2779  -17.0124  -44.3085 O.2       5 UNK        -0.5000 
     47 CA          0.9368  -15.0296  -44.2604 C.3       5 UNK         0.1400 
     48 CB          1.5131  -13.8954  -45.1231 C.3       5 UNK        -0.1800 
     49 N          -0.5168  -14.8936  -44.1579 N.am      5 UNK        -0.5000 
     50 C          -1.2820  -15.5869  -43.3012 C.2       4 UNK         0.5000 
     51 O          -0.8353  -16.3770  -42.4694 O.2       4 UNK        -0.5000 
     52 CA         -2.8049  -15.3975  -43.4307 C.3       4 UNK         0.1400 
     53 CB         -3.2594  -14.1299  -42.6921 C.3       4 UNK        -0.1800 
     54 N          -3.2385  -15.3285  -44.8274 N.am      4 UNK        -0.5000 
     55 C          -3.1836  -16.3572  -45.6857 C.2       3 UNK         0.5000 
     56 O          -2.8255  -17.4897  -45.3660 O.2       3 UNK        -0.5000 
     57 CA         -3.5281  -16.0551  -47.1579 C.3       3 UNK         0.1400 
     58 CB         -5.0243  -16.2648  -47.4244 C.3       3 UNK        -0.1800 
     59 N          -3.1353  -14.7052  -47.5767 N.am      3 UNK        -0.5000 
     60 C          -1.8679  -14.2724  -47.6213 C.2       2 UNK         0.5000 
     61 O          -0.9010  -14.9834  -47.3412 O.2       2 UNK        -0.5000 
     62 CA         -1.6647  -12.7822  -47.9515 C.3       2 UNK         0.1400 
     63 CB         -2.0241  -11.9179  -46.7314 C.3       2 UNK        -0.1800 
     64 N          -0.2876  -12.4754  -48.3378 N.am      2 UNK        -0.5000 
     65 C           0.2792  -12.8171  -49.5005 C.2       1 UNK         0.5000 
     66 O          -0.3207  -13.3926  -50.4107 O.2       1 UNK        -0.5000 
     67 C           0.2808  -23.6546  -47.1610 C.2       11 UNK         0.5000 
     68 O          -0.3859  -23.4288  -46.1471 O.2       11 UNK        -0.5000 
     69 N          -0.2154  -24.3117  -48.2190 N.am      12 UNK        -0.5000 
     70 CA         -1.5267  -24.9833  -48.2981 C.3       12 UNK         0.1400 
     71 CB         -1.5540  -25.8479  -49.5705 C.3       12 UNK        -0.1800 
     72 C          -2.7840  -24.0790  -48.2145 C.2       12 UNK         0.5000 
     73 O          -3.8824  -24.5249  -48.5531 O.2       12 UNK        -0.5000 
     74 N          -2.6287  -22.8339  -47.7523 N.am      13 UNK        -0.5000 
     75 CA         -3.6785  -21.8266  -47.6003 C.3       13 UNK         0.1400 
     76 CB         -3.0313  -20.5074  -47.1712 C.3       13 UNK        -0.1800 
     77 C          -4.8007  -22.2184  -46.6265 C.2       13 UNK         0.5000 
     78 O          -5.9379  -21.7850  -46.8088 O.2       13 UNK        -0.5000 
     79 N          -4.4779  -23.0729  -45.6462 N.am      14 UNK        -0.5000 
     80 CA         -5.4327  -23.6605  -44.7049 C.3       14 UNK         0.1400 
     81 CB         -4.6585  -24.4560  -43.6432 C.3       14 UNK        -0.1800 
     82 C          -6.4956  -24.5507  -45.3837 C.2       14 UNK         0.5000 
     83 O          -7.6019  -24.6727  -44.8566 O.2       14 UNK        -0.5000 
     84 N          -6.1487  -25.1386  -46.5372 N.am      15 UNK        -0.5000 
     85 CA         -7.0530  -25.9209  -47.3759 C.3       15 UNK         0.1400 
     86 CB         -6.3083  -27.1612  -47.8959 C.3       15 UNK        -0.1800 
     87 C          -7.5877  -25.0836  -48.5501 C.2       15 UNK         0.5000 
     88 O          -8.7763  -25.1671  -48.8610 O.2       15 UNK        -0.5000 
     89 N          -6.7029  -24.3097  -49.1948 N.am      16 UNK        -0.5000 
     90 CA         -6.9932  -23.5818  -50.4313 C.3       16 UNK         0.1400 
     91 CB         -5.6669  -23.2244  -51.1154 C.3       16 UNK        -0.1800 
     92 C          -7.8418  -22.3096  -50.2516 C.2       16 UNK         0.5000 
     93 O          -8.4382  -21.8574  -51.2291 O.2       16 UNK        -0.5000 
     94 N          -7.8385  -21.7183  -49.0476 N.am      17 UNK        -0.5000 
     95 CA         -8.4605  -20.4452  -48.6435 C.3       17 UNK         0.1400 
     96 CB         -9.9806  -20.4384  -48.8951 C.3       17 UNK        -0.1800 
     97 C          -7.7808  -19.1886  -49.2319 C.2       17 UNK         0.5000 
     98 O          -7.6943  -18.1721  -48.5421 O.2       17 UNK        -0.5000 
     99 N          -7.2758  -19.2844  -50.4678 N.am      18 UNK        -0.5000 
    100 CA        -6.3013  -18.3734  -51.0701 C.3       18 UNK         0.1400 
    101 CB        -6.3072  -18.6047  -52.5908 C.3       18 UNK        -0.1800 
    102 C         -4.8948  -18.6101  -50.4783 C.2       18 UNK         0.5000 
    103 O         -4.7256  -19.4797  -49.6222 O.2       18 UNK        -0.5000 
    104 N         -3.8853  -17.8703  -50.9554 N.am      19 UNK        -0.5000 
    105 CA        -2.4778  -18.0290  -50.5698 C.3       19 UNK         0.1400 
    106 CB        -1.7116  -16.7388  -50.9102 C.3       19 UNK        -0.1800 
    107 C         -1.8411  -19.2910  -51.1927 C.2       19 UNK         0.5000 
    108 O         -0.8947  -19.1944  -51.9729 O.2       19 UNK        -0.5000 
    109 N         -2.4029  -20.4594  -50.8551 N.am      20 UNK        -0.5000 
    110 CA        -2.1414  -21.7684  -51.4520 C.3       20 UNK         0.1400 
    111 CB        -0.7064  -22.2412  -51.1360 C.3       20 UNK        -0.1800 
    112 C         -2.5063  -21.7430  -52.9496 C.2       20 UNK         0.5000 
    113 O         -3.6619  -21.4704  -53.2775 O.2       20 UNK        -0.5000 
    114 N         -1.5301  -21.9968  -53.8278 N.am      21 UNK        -0.5000 
    115 CA        -1.6798  -21.8751  -55.2784 C.3       21 UNK         0.1400 
    116 CB        -0.5884  -22.7208  -55.9541 C.3       21 UNK        -0.1800 
    117 C         -1.6125  -20.4149  -55.7748 C.2       21 UNK         0.5000 
    118 O         -2.0027  -20.1523  -56.9137 O.2       21 UNK        -0.5000 
    119 N         -1.0930  -19.5046  -54.9430 N.am      22 UNK        -0.5000 
    120 CA        -0.8651  -18.0914  -55.2693 C.3       22 UNK         0.1400 
    121 C         -2.1113  -17.2073  -54.9848 C.2       22 UNK         0.5000 
    122 N         -2.1811  -16.0252  -55.5824 N.am      22 UNK        -0.7600 
    123 O         -3.0063  -17.5590  -54.2190 O.2       22 UNK        -0.5000 
    124 C124        0.3965  -17.5428  -54.5505 C.3       23 UNK        -0.0398 
    125 S125        1.8808  -18.5467  -54.9069 S.3       23 UNK        -0.2404 
    126 C126        3.1451  -17.7098  -53.9049 C.3       23 UNK        -0.0205 
    127 H127        1.7749   -9.1467  -52.0594 H         1 UNK         0.0600 
    128 H128        2.2516   -8.0469  -50.7628 H         1 UNK         0.0600 
    129 H129        0.5400   -8.3204  -51.1052 H         1 UNK         0.0600 
    130 H130        1.9598  -11.2916  -51.4909 H         1 UNK         0.3000 
    131 H131        2.1765  -12.1484  -48.7244 H         1 UNK         0.0600 
    132 H132        2.1008  -14.0073  -51.1492 H         1 UNK         0.0800 
    133 H133        3.5047  -13.0551  -50.7965 H         1 UNK         0.0800 
    134 H134        1.0835  -15.6813  -49.5564 H         1 UNK         0.0800 
    135 H135        1.9217  -16.4430  -48.2358 H         1 UNK         0.0800 
    136 H136        2.2521  -16.0214  -51.9743 H         1 UNK         0.1150 
    137 H137        3.7157  -19.9971  -52.5424 H         1 UNK         0.1150 
    138 H138        2.9049  -18.5534  -48.5880 H         1 UNK         0.1150 
    139 H139        3.3298  -21.6104  -50.5769 H         1 UNK         0.0800 
    140 H140        4.8616  -20.8901  -50.1700 H         1 UNK         0.0800 
    141 H141        1.5413  -22.1228  -49.1722 H         1 UNK         0.0800 
    142 H142        1.1596  -21.1093  -47.8080 H         1 UNK         0.0800 
    143 H143        2.3484  -23.9327  -47.7010 H         1 UNK         0.0600 
    144 H144        2.0528  -21.9485  -45.5490 H         1 UNK         0.3000 
    145 H145        1.8002  -23.4520  -43.1205 H         1 UNK         0.0600 
    146 H146        3.8185  -23.9632  -41.7189 H         1 UNK         0.0600 
    147 H147        3.3170  -25.3243  -42.7075 H         1 UNK         0.0600 
    148 H148        4.7175  -24.3757  -43.1794 H         1 UNK         0.0600 
    149 H149        2.4605  -21.3693  -43.0634 H         1 UNK         0.3000 
    150 H150        5.3778  -19.7164  -42.9746 H         1 UNK         0.0600 
    151 H151        5.5280  -19.5614  -45.4610 H         1 UNK         0.0600 
    152 H152        4.8308  -18.0992  -44.7832 H         1 UNK         0.0600 
    153 H153        3.7946  -19.2918  -45.5645 H         1 UNK         0.0600 
    154 H154        2.7093  -18.7270  -43.4442 H         1 UNK         0.3000 
    155 H155        1.4951  -19.2930  -40.1383 H         1 UNK         0.0600 
    156 H156        2.7234  -17.1304  -39.9873 H         1 UNK         0.0600 
    157 H157        1.0148  -16.8659  -40.3017 H         1 UNK         0.0600 
    158 H158        2.1884  -16.6939  -41.6048 H         1 UNK         0.0600 
    159 H159        0.2703  -18.0920  -42.4063 H         1 UNK         0.3000 
    160 H160       -0.9925  -21.1211  -43.8832 H         1 UNK         0.0600 
    161 H161       -2.3362  -18.7405  -42.4991 H         1 UNK         0.0600 
    162 H162       -2.5910  -20.4334  -42.0888 H         1 UNK         0.0600 
    163 H163       -3.0878  -19.8296  -43.6628 H         1 UNK         0.0600 
    164 H164       -1.2468  -18.4308  -44.7280 H         1 UNK         0.3000 
    165 H165        1.7456  -18.3342  -46.7312 H         1 UNK         0.0600 
    166 H166       -0.0674  -17.5608  -48.3205 H         1 UNK         0.0600 
    167 H167       -0.0921  -19.2979  -48.1149 H         1 UNK         0.0600 
    168 H168       -1.2649  -18.2899  -47.2800 H         1 UNK         0.0600 
    169 H169       -0.1263  -16.2882  -46.2151 H         1 UNK         0.3000 
    170 H170        1.3565  -14.9378  -43.2565 H         1 UNK         0.0600 
    171 H171        2.6027  -13.9414  -45.1421 H         1 UNK         0.0600 
    172 H172        1.1712  -13.9515  -46.1561 H         1 UNK         0.0600 
    173 H173        1.2359  -12.9178  -44.7287 H         1 UNK         0.0600 
    174 H174       -0.9659  -14.3077  -44.8441 H         1 UNK         0.3000 
    175 H175       -3.2892  -16.2581  -42.9642 H         1 UNK         0.0600 
    176 H176       -2.9600  -14.1616  -41.6436 H         1 UNK         0.0600 
    177 H177       -2.8276  -13.2290  -43.1300 H         1 UNK         0.0600 
    178 H178       -4.3445  -14.0281  -42.7159 H         1 UNK         0.0600 
    179 H179       -3.5558  -14.4327  -45.1658 H         1 UNK         0.3000 
    180 H180       -2.9767  -16.7649  -47.7733 H         1 UNK         0.0600 
    181 H181       -5.3264  -17.2800  -47.1623 H         1 UNK         0.0600 
    182 H182       -5.6403  -15.5772  -46.8438 H         1 UNK         0.0600 
    183 H183       -5.2621  -16.1224  -48.4786 H         1 UNK         0.0600 
    184 H184       -3.8838  -14.0686  -47.8100 H         1 UNK         0.3000 
    185 H185       -2.3252  -12.5190  -48.7803 H         1 UNK         0.0600 
    186 H186       -3.0595  -12.0715  -46.4253 H         1 UNK         0.0600 
    187 H187       -1.3898  -12.1460  -45.8738 H         1 UNK         0.0600 
    188 H188       -1.9114  -10.8568  -46.9557 H         1 UNK         0.0600 
    189 H189        0.2651  -11.9694  -47.6615 H         1 UNK         0.3000 
    190 H190        0.3833  -24.4477  -49.0206 H         1 UNK         0.3000 
    191 H191       -1.5903  -25.6580  -47.4422 H         1 UNK         0.0600 
    192 H192       -1.5270  -25.2363  -50.4725 H         1 UNK         0.0600 
    193 H193       -2.4575  -26.4576  -49.6167 H         1 UNK         0.0600 
    194 H194       -0.7071  -26.5336  -49.6024 H         1 UNK         0.0600 
    195 H195       -1.7186  -22.6025  -47.3735 H         1 UNK         0.3000 
    196 H196       -4.1405  -21.6929  -48.5769 H         1 UNK         0.0600 
    197 H197       -3.7771  -19.7225  -47.0361 H         1 UNK         0.0600 
    198 H198       -2.3391  -20.1694  -47.9383 H         1 UNK         0.0600 
    199 H199       -2.4840  -20.6089  -46.2338 H         1 UNK         0.0600 
    200 H200       -3.5172  -23.3745  -45.5707 H         1 UNK         0.3000 
    201 H201       -5.9581  -22.8428  -44.2071 H         1 UNK         0.0600 
    202 H202       -5.3372  -24.8877  -42.9064 H         1 UNK         0.0600 
    203 H203       -4.0922  -25.2753  -44.0880 H         1 UNK         0.0600 
    204 H204       -3.9589  -23.8172  -43.1036 H         1 UNK         0.0600 
    205 H205       -5.2273  -24.9604  -46.9158 H         1 UNK         0.3000 
    206 H206       -7.9094  -26.2663  -46.7928 H         1 UNK         0.0600 
    207 H207       -5.9726  -27.7910  -47.0719 H         1 UNK         0.0600 
    208 H208       -6.9571  -27.7700  -48.5268 H         1 UNK         0.0600 
    209 H209       -5.4328  -26.8915  -48.4880 H         1 UNK         0.0600 
    210 H210       -5.7293  -24.3311  -48.9048 H         1 UNK         0.3000 
    211 H211       -7.5442  -24.2504  -51.0963 H         1 UNK         0.0600 
    212 H212       -5.8411  -22.7843  -52.0981 H         1 UNK         0.0600 
    213 H213       -5.0393  -24.1042  -51.2593 H         1 UNK         0.0600 
    214 H214       -5.1049  -22.4981  -50.5301 H         1 UNK         0.0600 
    215 H215       -7.2475  -22.1257  -48.3299 H         1 UNK         0.3000 
    216 H216       -8.3135  -20.3907  -47.5637 H         1 UNK         0.0600 
    217 H217      -10.4402  -19.5542  -48.4520 H         1 UNK         0.0600 
    218 H218      -10.4580  -21.3112  -48.4498 H         1 UNK         0.0600 
    219 H219      -10.2214  -20.4275  -49.9581 H         1 UNK         0.0600 
    220 H220       -7.4372  -20.1576  -50.9558 H         1 UNK         0.3000 
    221 H221       -6.5953  -17.3432  -50.8605 H         1 UNK         0.0600 
    222 H222       -5.9567  -19.6064  -52.8450 H         1 UNK         0.0600 
    223 H223       -7.3090  -18.4861  -53.0040 H         1 UNK         0.0600 
    224 H224       -5.6620  -17.8922  -53.1058 H         1 UNK         0.0600 
    225 H225       -4.0620  -17.2343  -51.7205 H         1 UNK         0.3000 
    226 H226       -2.4279  -18.1623  -49.4894 H         1 UNK         0.0600 
    227 H227       -2.1010  -15.8878  -50.3515 H         1 UNK         0.0600 
    228 H228       -0.6553  -16.8343  -50.6597 H         1 UNK         0.0600 
    229 H229       -1.7725  -16.4997  -51.9716 H         1 UNK         0.0600 
    230 H230       -3.2332  -20.3961  -50.2719 H         1 UNK         0.3000 
    231 H231       -2.8242  -22.4730  -50.9787 H         1 UNK         0.0600 
    232 H232       -0.5565  -22.2590  -50.0589 H         1 UNK         0.0600 
    233 H233        0.0583  -21.5919  -51.5632 H         1 UNK         0.0600 
    234 H234       -0.5310  -23.2518  -51.5054 H         1 UNK         0.0600 
    235 H235       -0.6019  -22.1919  -53.4822 H         1 UNK         0.3000 
    236 H236       -2.6517  -22.2784  -55.5708 H         1 UNK         0.0600 
    237 H237       -0.6566  -23.7668  -55.6545 H         1 UNK         0.0600 
    238 H238       -0.6849  -22.6884  -57.0402 H         1 UNK         0.0600 
    239 H239        0.4108  -22.3623  -55.7029 H         1 UNK         0.0600 
    240 H240       -0.8726  -19.7635  -53.9883 H         1 UNK         0.3000 
    241 H241       -0.6760  -18.0237  -56.3426 H         1 UNK         0.0600 
    242 H242       -1.4691  -15.7078  -56.2218 H         1 UNK         0.3800 
    243 H243       -2.9805  -15.4378  -55.4041 H         1 UNK         0.3800 
    244 H244        0.5984  -16.5178  -54.8651 H         1 UNK         0.0800 
    245 H245        0.2460  -17.5044  -53.4717 H         1 UNK         0.0800 
    246 H246        3.1202  -16.6387  -54.1115 H         1 UNK         0.0800 
    247 H247        4.1279  -18.0548  -54.2291 H         1 UNK         0.0800 
@<TRIPOS>BOND
     1    1    2 1    
     2    1  127 1    
     3    1  128 1    
     4    1  129 1    
     5    2    3 2    
     6    2    4 am   BACKBONE|DICT|INTERRES
     7    4    5 1    
     8    4  130 1    
     9    5    6 1    
    10    5   65 1    
    11    5  131 1    
    12    6    7 1    
    13    6  132 1    
    14    6  133 1    
    15    7    8 1    
    16    8    9 1    
    17    8  134 1    
    18    8  135 1    
    19    9   10 ar   
    20    9   14 ar   
    21   10   11 ar   
    22   10  136 1    
    23   11   12 ar   
    24   11  126 1    
    25   12   13 ar   
    26   12  137 1    
    27   13   14 ar   
    28   13   15 1    
    29   14  138 1    
    30   15   16 1    
    31   15  139 1    
    32   15  140 1    
    33   16   17 1    
    34   17   18 1    
    35   17  141 1    
    36   17  142 1    
    37   18   19 1    
    38   18   67 1    
    39   18  143 1    
    40   19   20 am   BACKBONE|DICT|INTERRES
    41   19  144 1    
    42   20   21 2    
    43   20   22 1    
    44   22   23 1    
    45   22   24 1    
    46   22  145 1    
    47   23  146 1    
    48   23  147 1    
    49   23  148 1    
    50   24   25 am   BACKBONE|DICT|INTERRES
    51   24  149 1    
    52   25   26 2    
    53   25   27 1    
    54   27   28 1    
    55   27   29 1    
    56   27  150 1    
    57   28  151 1    
    58   28  152 1    
    59   28  153 1    
    60   29   30 am   BACKBONE|DICT|INTERRES
    61   29  154 1    
    62   30   31 2    
    63   30   32 1    
    64   32   33 1    
    65   32   34 1    
    66   32  155 1    
    67   33  156 1    
    68   33  157 1    
    69   33  158 1    
    70   34   35 am   BACKBONE|DICT|INTERRES
    71   34  159 1    
    72   35   36 2    
    73   35   37 1    
    74   37   38 1    
    75   37   39 1    
    76   37  160 1    
    77   38  161 1    
    78   38  162 1    
    79   38  163 1    
    80   39   40 am   BACKBONE|DICT|INTERRES
    81   39  164 1    
    82   40   41 2    
    83   40   42 1    
    84   42   43 1    
    85   42   44 1    
    86   42  165 1    
    87   43  166 1    
    88   43  167 1    
    89   43  168 1    
    90   44   45 am   BACKBONE|DICT|INTERRES
    91   44  169 1    
    92   45   46 2    
    93   45   47 1    
    94   47   48 1    
    95   47   49 1    
    96   47  170 1    
    97   48  171 1    
    98   48  172 1    
    99   48  173 1    
   100   49   50 am   BACKBONE|DICT|INTERRES
   101   49  174 1    
   102   50   51 2    
   103   50   52 1    
   104   52   53 1    
   105   52   54 1    
   106   52  175 1    
   107   53  176 1    
   108   53  177 1    
   109   53  178 1    
   110   54   55 am   BACKBONE|DICT|INTERRES
   111   54  179 1    
   112   55   56 2    
   113   55   57 1    
   114   57   58 1    
   115   57   59 1    
   116   57  180 1    
   117   58  181 1    
   118   58  182 1    
   119   58  183 1    
   120   59   60 am   BACKBONE|DICT|INTERRES
   121   59  184 1    
   122   60   61 2    
   123   60   62 1    
   124   62   63 1    
   125   62   64 1    
   126   62  185 1    
   127   63  186 1    
   128   63  187 1    
   129   63  188 1    
   130   64   65 am   BACKBONE|DICT|INTERRES
   131   64  189 1    
   132   65   66 2    
   133   67   68 2    
   134   67   69 am   BACKBONE|DICT|INTERRES
   135   69   70 1    
   136   69  190 1    
   137   70   71 1    
   138   70   72 1    
   139   70  191 1    
   140   71  192 1    
   141   71  193 1    
   142   71  194 1    
   143   72   73 2    
   144   72   74 am   BACKBONE|DICT|INTERRES
   145   74   75 1    
   146   74  195 1    
   147   75   76 1    
   148   75   77 1    
   149   75  196 1    
   150   76  197 1    
   151   76  198 1    
   152   76  199 1    
   153   77   78 2    
   154   77   79 am   BACKBONE|DICT|INTERRES
   155   79   80 1    
   156   79  200 1    
   157   80   81 1    
   158   80   82 1    
   159   80  201 1    
   160   81  202 1    
   161   81  203 1    
   162   81  204 1    
   163   82   83 2    
   164   82   84 am   BACKBONE|DICT|INTERRES
   165   84   85 1    
   166   84  205 1    
   167   85   86 1    
   168   85   87 1    
   169   85  206 1    
   170   86  207 1    
   171   86  208 1    
   172   86  209 1    
   173   87   88 2    
   174   87   89 am   BACKBONE|DICT|INTERRES
   175   89   90 1    
   176   89  210 1    
   177   90   91 1    
   178   90   92 1    
   179   90  211 1    
   180   91  212 1    
   181   91  213 1    
   182   91  214 1    
   183   92   93 2    
   184   92   94 am   BACKBONE|DICT|INTERRES
   185   94   95 1    
   186   94  215 1    
   187   95   96 1    
   188   95   97 1    
   189   95  216 1    
   190   96  217 1    
   191   96  218 1    
   192   96  219 1    
   193   97   98 2    
   194   97   99 am   BACKBONE|DICT|INTERRES
   195   99  100 1    
   196   99  220 1    
   197  100  101 1    
   198  100  102 1    
   199  100  221 1    
   200  101  222 1    
   201  101  223 1    
   202  101  224 1    
   203  102  103 2    
   204  102  104 am   BACKBONE|DICT|INTERRES
   205  104  105 1    
   206  104  225 1    
   207  105  106 1    
   208  105  107 1    
   209  105  226 1    
   210  106  227 1    
   211  106  228 1    
   212  106  229 1    
   213  107  108 2    
   214  107  109 am   BACKBONE|DICT|INTERRES
   215  109  110 1    
   216  109  230 1    
   217  110  111 1    
   218  110  112 1    
   219  110  231 1    
   220  111  232 1    
   221  111  233 1    
   222  111  234 1    
   223  112  113 2    
   224  112  114 am   BACKBONE|DICT|INTERRES
   225  114  115 1    
   226  114  235 1    
   227  115  116 1    
   228  115  117 1    
   229  115  236 1    
   230  116  237 1    
   231  116  238 1    
   232  116  239 1    
   233  117  118 2    
   234  117  119 am   BACKBONE|DICT|INTERRES
   235  119  120 1    
   236  119  240 1    
   237  120  121 1    
   238  120  124 1    
   239  120  241 1    
   240  121  122 am   BACKBONE|DICT|INTERRES
   241  121  123 2    
   242  122  242 1    
   243  122  243 1    
   244  124  125 1    
   245  124  244 1    
   246  124  245 1    
   247  125  126 1    
   248  126  246 1    
   249  126  247 1    
@<TRIPOS>SUBSTRUCTURE
     1 UNK         1 GROUP             0       ****    0 ROOT    
