@<TRIPOS>MOLECULE
3R540
247   249    1
SMALL
USER_CHARGES


@<TRIPOS>ATOM
      1 CA         -0.8815   -9.7302  -45.7373 C.3       0 UNK        -0.1800 
      2 C          -1.4505   -9.2093  -47.0569 C.2       0 UNK         0.5000 
      3 O          -1.8597   -8.0512  -47.1130 O.2       0 UNK        -0.5000 
      4 N          -1.5182  -10.0022  -48.1374 N.am      1 UNK        -0.5000 
      5 CA         -1.0441  -11.3826  -48.3077 C.3       1 UNK         0.1400 
      6 C6         -1.7374  -12.3950  -47.3487 C.3       23 UNK        -0.0398 
      7 S7         -1.9435  -14.0555  -48.0797 S.3       23 UNK        -0.2404 
      8 C8         -3.6690  -13.9774  -48.6529 C.3       23 UNK        -0.0205 
      9 C9         -4.1995  -15.3625  -48.9841 C.ar      23 UNK        -0.0193 
     10 C10        -3.8882  -15.9661  -50.2065 C.ar      23 UNK        -0.1150 
     11 C11        -4.3578  -17.2498  -50.5015 C.ar      23 UNK        -0.0193 
     12 C12        -5.1540  -17.9222  -49.5725 C.ar      23 UNK        -0.1150 
     13 C13        -5.4677  -17.3308  -48.3469 C.ar      23 UNK        -0.0193 
     14 C14        -4.9945  -16.0475  -48.0601 C.ar      23 UNK        -0.1150 
     15 C15        -6.2789  -18.1051  -47.3203 C.3       23 UNK        -0.0205 
     16 S16        -5.3155  -18.5602  -45.8380 S.3       23 UNK        -0.2404 
     17 C17        -3.7199  -19.1596  -46.5046 C.3       23 UNK        -0.0398 
     18 CA         -3.6894  -20.6640  -46.8650 C.3       11 UNK         0.1400 
     19 N          -2.5053  -20.9607  -47.6791 N.am      11 UNK        -0.5000 
     20 C          -2.0853  -22.1671  -48.0844 C.2       10 UNK         0.5000 
     21 O          -2.7390  -23.1998  -47.9505 O.2       10 UNK        -0.5000 
     22 CA         -0.6594  -22.2553  -48.6657 C.3       10 UNK         0.1400 
     23 CB         -0.7016  -22.3425  -50.1961 C.3       10 UNK        -0.1800 
     24 N           0.2300  -21.1583  -48.2622 N.am      10 UNK        -0.5000 
     25 C           0.5298  -20.8241  -46.9985 C.2       9 UNK         0.5000 
     26 O           0.1179  -21.4445  -46.0138 O.2       9 UNK        -0.5000 
     27 CA          1.3313  -19.5244  -46.8198 C.3       9 UNK         0.1400 
     28 CB          0.4766  -18.3219  -47.2601 C.3       9 UNK        -0.1800 
     29 N           1.7216  -19.3407  -45.4237 N.am      9 UNK        -0.5000 
     30 C           2.7917  -19.9083  -44.8501 C.2       8 UNK         0.5000 
     31 O           3.6039  -20.5973  -45.4695 O.2       8 UNK        -0.5000 
     32 CA          3.0004  -19.6723  -43.3408 C.3       8 UNK         0.1400 
     33 CB          4.4276  -19.1868  -43.0316 C.3       8 UNK        -0.1800 
     34 N           2.0433  -18.7009  -42.8079 N.am      8 UNK        -0.5000 
     35 C           1.1182  -18.9692  -41.8785 C.2       7 UNK         0.5000 
     36 O           1.0214  -20.0547  -41.3051 O.2       7 UNK        -0.5000 
     37 CA          0.1193  -17.8510  -41.5225 C.3       7 UNK         0.1400 
     38 CB          0.5535  -17.1298  -40.2386 C.3       7 UNK        -0.1800 
     39 N          -0.1083  -16.8657  -42.5845 N.am      7 UNK        -0.5000 
     40 C          -0.7060  -17.1345  -43.7541 C.2       6 UNK         0.5000 
     41 O          -1.0019  -18.2759  -44.1080 O.2       6 UNK        -0.5000 
     42 CA         -1.0205  -15.9644  -44.7069 C.3       6 UNK         0.1400 
     43 CB         -2.5402  -15.7173  -44.8066 C.3       6 UNK        -0.1800 
     44 N          -0.2735  -14.7342  -44.4286 N.am      6 UNK        -0.5000 
     45 C          -0.5034  -13.8012  -43.4956 C.2       5 UNK         0.5000 
     46 O          -1.4188  -13.8497  -42.6734 O.2       5 UNK        -0.5000 
     47 CA          0.5091  -12.6388  -43.4726 C.3       5 UNK         0.1400 
     48 CB          0.1435  -11.5286  -42.4662 C.3       5 UNK        -0.1800 
     49 N           1.8781  -13.1144  -43.2515 N.am      5 UNK        -0.5000 
     50 C           2.3301  -13.8352  -42.2128 C.2       4 UNK         0.5000 
     51 O           1.6387  -14.1558  -41.2463 O.2       4 UNK        -0.5000 
     52 CA          3.8085  -14.2743  -42.2871 C.3       4 UNK         0.1400 
     53 CB          4.1402  -15.4547  -41.3482 C.3       4 UNK        -0.1800 
     54 N           4.2492  -14.5599  -43.6586 N.am      4 UNK        -0.5000 
     55 C           3.7727  -15.5159  -44.4690 C.2       3 UNK         0.5000 
     56 O           2.8681  -16.2968  -44.1634 O.2       3 UNK        -0.5000 
     57 CA          4.3981  -15.5491  -45.8770 C.3       3 UNK         0.1400 
     58 CB          4.1974  -16.8988  -46.5899 C.3       3 UNK        -0.1800 
     59 N           3.9277  -14.4484  -46.7280 N.am      3 UNK        -0.5000 
     60 C           2.6580  -14.1290  -47.0196 C.2       2 UNK         0.5000 
     61 O           1.6685  -14.6882  -46.5384 O.2       2 UNK        -0.5000 
     62 CA          2.4613  -12.9835  -48.0242 C.3       2 UNK         0.1400 
     63 CB          2.9638  -13.3706  -49.4269 C.3       2 UNK        -0.1800 
     64 N           1.0393  -12.6691  -48.0931 N.am      2 UNK        -0.5000 
     65 C           0.5024  -11.4712  -48.3335 C.2       1 UNK         0.5000 
     66 O           1.1749  -10.4662  -48.5775 O.2       1 UNK        -0.5000 
     67 C          -3.7643  -21.5372  -45.5911 C.2       11 UNK         0.5000 
     68 O          -4.8260  -22.0782  -45.2813 O.2       11 UNK        -0.5000 
     69 N          -2.6224  -21.6820  -44.9072 N.am      12 UNK        -0.5000 
     70 CA         -2.4692  -22.5029  -43.7128 C.3       12 UNK         0.1400 
     71 CB         -1.5759  -21.7546  -42.7112 C.3       12 UNK        -0.1800 
     72 C          -1.8630  -23.8708  -44.0610 C.2       12 UNK         0.5000 
     73 O          -2.3707  -24.8941  -43.6024 O.2       12 UNK        -0.5000 
     74 N          -0.7874  -23.8674  -44.8610 N.am      13 UNK        -0.5000 
     75 CA          0.0467  -25.0390  -45.1378 C.3       13 UNK         0.1400 
     76 CB          1.3811  -24.5707  -45.7392 C.3       13 UNK        -0.1800 
     77 C          -0.6129  -26.0983  -46.0404 C.2       13 UNK         0.5000 
     78 O          -0.2464  -27.2706  -45.9488 O.2       13 UNK        -0.5000 
     79 N          -1.5586  -25.6802  -46.8898 N.am      14 UNK        -0.5000 
     80 CA         -2.2779  -26.5371  -47.8345 C.3       14 UNK         0.1400 
     81 CB         -1.7356  -26.2803  -49.2528 C.3       14 UNK        -0.1800 
     82 C          -3.7988  -26.3108  -47.7582 C.2       14 UNK         0.5000 
     83 O          -4.5100  -26.6892  -48.6888 O.2       14 UNK        -0.5000 
     84 N          -4.2756  -25.6664  -46.6804 N.am      15 UNK        -0.5000 
     85 CA         -5.6762  -25.3085  -46.4120 C.3       15 UNK         0.1400 
     86 CB         -6.4856  -26.5741  -46.0612 C.3       15 UNK        -0.1800 
     87 C          -6.3388  -24.4733  -47.5347 C.2       15 UNK         0.5000 
     88 O          -7.5435  -24.5952  -47.7626 O.2       15 UNK        -0.5000 
     89 N          -5.5267  -23.6635  -48.2309 N.am      16 UNK        -0.5000 
     90 CA         -5.8530  -22.8274  -49.3902 C.3       16 UNK         0.1400 
     91 CB         -6.9609  -21.8083  -49.0506 C.3       16 UNK        -0.1800 
     92 C          -6.1664  -23.6179  -50.6791 C.2       16 UNK         0.5000 
     93 O          -6.6252  -23.0118  -51.6484 O.2       16 UNK        -0.5000 
     94 N          -5.9045  -24.9354  -50.7015 N.am      17 UNK        -0.5000 
     95 CA         -6.1173  -25.7881  -51.8750 C.3       17 UNK         0.1400 
     96 CB         -6.0763  -27.2672  -51.4640 C.3       17 UNK        -0.1800 
     97 C          -5.0943  -25.5048  -52.9888 C.2       17 UNK         0.5000 
     98 O          -5.4588  -25.4869  -54.1651 O.2       17 UNK        -0.5000 
     99 N          -3.8418  -25.2341  -52.5971 N.am      18 UNK        -0.5000 
    100 CA        -2.7556  -24.8129  -53.4818 C.3       18 UNK         0.1400 
    101 CB        -1.4140  -25.3007  -52.9058 C.3       18 UNK        -0.1800 
    102 C         -2.7989  -23.2871  -53.6970 C.2       18 UNK         0.5000 
    103 O         -1.8343  -22.5856  -53.3902 O.2       18 UNK        -0.5000 
    104 N         -3.9321  -22.7953  -54.2164 N.am      19 UNK        -0.5000 
    105 CA        -4.2323  -21.3749  -54.4255 C.3       19 UNK         0.1400 
    106 CB        -5.6545  -21.2395  -54.9877 C.3       19 UNK        -0.1800 
    107 C         -3.2207  -20.6423  -55.3289 C.2       19 UNK         0.5000 
    108 O         -2.9703  -19.4533  -55.1320 O.2       19 UNK        -0.5000 
    109 N         -2.6273  -21.3764  -56.2790 N.am      20 UNK        -0.5000 
    110 CA        -1.5832  -20.8934  -57.1814 C.3       20 UNK         0.1400 
    111 CB        -1.3695  -21.9344  -58.2911 C.3       20 UNK        -0.1800 
    112 C         -0.2474  -20.5744  -56.4788 C.2       20 UNK         0.5000 
    113 O          0.5350  -19.7927  -57.0210 O.2       20 UNK        -0.5000 
    114 N          0.0037  -21.1773  -55.3064 N.am      21 UNK        -0.5000 
    115 CA         1.2152  -20.9472  -54.5204 C.3       21 UNK         0.1400 
    116 CB         1.4836  -22.1538  -53.6083 C.3       21 UNK        -0.1800 
    117 C          1.1288  -19.6454  -53.7062 C.2       21 UNK         0.5000 
    118 O          2.1058  -18.8963  -53.6656 O.2       21 UNK        -0.5000 
    119 N         -0.0298  -19.3954  -53.0813 N.am      22 UNK        -0.5000 
    120 CA        -0.3088  -18.1585  -52.3324 C.3       22 UNK         0.1400 
    121 C         -0.7492  -16.9613  -53.2210 C.2       22 UNK         0.5000 
    122 N         -1.3648  -17.1788  -54.3765 N.am      22 UNK        -0.7600 
    123 O         -0.5144  -15.8118  -52.8601 O.2       22 UNK        -0.5000 
    124 C124       -1.2768  -18.3855  -51.1426 C.3       23 UNK        -0.0398 
    125 S125       -2.8093  -19.2834  -51.5669 S.3       23 UNK        -0.2404 
    126 C126       -3.9988  -17.9271  -51.8135 C.3       23 UNK        -0.0205 
    127 H127       -0.7225   -8.9044  -45.0435 H         1 UNK         0.0600 
    128 H128        0.0794  -10.2223  -45.8745 H         1 UNK         0.0600 
    129 H129       -1.5765  -10.4239  -45.2656 H         1 UNK         0.0600 
    130 H130       -1.8822   -9.5913  -48.9855 H         1 UNK         0.3000 
    131 H131       -1.3521  -11.6352  -49.3235 H         1 UNK         0.0600 
    132 H132       -1.1892  -12.5000  -46.4121 H         1 UNK         0.0800 
    133 H133       -2.7228  -12.0256  -47.0624 H         1 UNK         0.0800 
    134 H134       -3.7320  -13.3328  -49.5308 H         1 UNK         0.0800 
    135 H135       -4.2947  -13.5190  -47.8857 H         1 UNK         0.0800 
    136 H136       -3.2648  -15.4426  -50.9183 H         1 UNK         0.1150 
    137 H137       -5.5041  -18.9199  -49.7973 H         1 UNK         0.1150 
    138 H138       -5.2254  -15.5950  -47.1058 H         1 UNK         0.1150 
    139 H139       -7.1346  -17.5028  -47.0126 H         1 UNK         0.0800 
    140 H140       -6.6920  -19.0114  -47.7625 H         1 UNK         0.0800 
    141 H141       -2.9532  -18.9396  -45.7609 H         1 UNK         0.0800 
    142 H142       -3.4371  -18.5603  -47.3686 H         1 UNK         0.0800 
    143 H143       -4.5594  -20.8900  -47.4809 H         1 UNK         0.0600 
    144 H144       -1.8911  -20.1820  -47.8576 H         1 UNK         0.3000 
    145 H145       -0.2303  -23.1856  -48.2914 H         1 UNK         0.0600 
    146 H146        0.2586  -22.6711  -50.5924 H         1 UNK         0.0600 
    147 H147       -1.4532  -23.0568  -50.5309 H         1 UNK         0.0600 
    148 H148       -0.9450  -21.3861  -50.6551 H         1 UNK         0.0600 
    149 H149        0.6198  -20.6082  -49.0131 H         1 UNK         0.3000 
    150 H150        2.2270  -19.5704  -47.4427 H         1 UNK         0.0600 
    151 H151        0.3438  -18.3074  -48.3414 H         1 UNK         0.0600 
    152 H152        0.9396  -17.3747  -46.9881 H         1 UNK         0.0600 
    153 H153       -0.5161  -18.3467  -46.8102 H         1 UNK         0.0600 
    154 H154        1.0506  -18.8745  -44.8278 H         1 UNK         0.3000 
    155 H155        2.8679  -20.6445  -42.8627 H         1 UNK         0.0600 
    156 H156        4.6524  -18.2443  -43.5291 H         1 UNK         0.0600 
    157 H157        5.1705  -19.9152  -43.3585 H         1 UNK         0.0600 
    158 H158        4.5685  -19.0398  -41.9607 H         1 UNK         0.0600 
    159 H159        2.0874  -17.7716  -43.2217 H         1 UNK         0.3000 
    160 H160       -0.8396  -18.3341  -41.3234 H         1 UNK         0.0600 
    161 H161        1.5323  -16.6651  -40.3505 H         1 UNK         0.0600 
    162 H162        0.6189  -17.8277  -39.4030 H         1 UNK         0.0600 
    163 H163       -0.1579  -16.3524  -39.9588 H         1 UNK         0.0600 
    164 H164        0.1293  -15.9059  -42.3733 H         1 UNK         0.3000 
    165 H165       -0.6842  -16.2663  -45.6971 H         1 UNK         0.0600 
    166 H166       -2.7680  -14.8216  -45.3823 H         1 UNK         0.0600 
    167 H167       -3.0003  -15.6077  -43.8243 H         1 UNK         0.0600 
    168 H168       -3.0348  -16.5519  -45.3014 H         1 UNK         0.0600 
    169 H169        0.5429  -14.6233  -45.0272 H         1 UNK         0.3000 
    170 H170        0.4937  -12.1965  -44.4692 H         1 UNK         0.0600 
    171 H171       -0.8451  -11.1205  -42.6796 H         1 UNK         0.0600 
    172 H172        0.1302  -11.8962  -41.4397 H         1 UNK         0.0600 
    173 H173        0.8529  -10.7027  -42.5171 H         1 UNK         0.0600 
    174 H174        2.5319  -12.9281  -43.9976 H         1 UNK         0.3000 
    175 H175        4.3911  -13.4160  -41.9495 H         1 UNK         0.0600 
    176 H176        3.5682  -16.3482  -41.5977 H         1 UNK         0.0600 
    177 H177        5.1978  -15.7126  -41.4000 H         1 UNK         0.0600 
    178 H178        3.9194  -15.2051  -40.3098 H         1 UNK         0.0600 
    179 H179        4.9754  -13.9537  -44.0147 H         1 UNK         0.3000 
    180 H180        5.4730  -15.4116  -45.7499 H         1 UNK         0.0600 
    181 H181        3.1458  -17.1041  -46.7740 H         1 UNK         0.0600 
    182 H182        4.5939  -17.7198  -45.9926 H         1 UNK         0.0600 
    183 H183        4.7126  -16.9177  -47.5501 H         1 UNK         0.0600 
    184 H184        4.6604  -13.9035  -47.1608 H         1 UNK         0.3000 
    185 H185        3.0152  -12.1164  -47.6584 H         1 UNK         0.0600 
    186 H186        4.0316  -13.5911  -49.4212 H         1 UNK         0.0600 
    187 H187        2.4469  -14.2526  -49.8075 H         1 UNK         0.0600 
    188 H188        2.8074  -12.5599  -50.1388 H         1 UNK         0.0600 
    189 H189        0.4359  -13.4511  -47.8629 H         1 UNK         0.3000 
    190 H190       -1.7750  -21.2542  -45.2638 H         1 UNK         0.3000 
    191 H191       -3.4387  -22.6709  -43.2390 H         1 UNK         0.0600 
    192 H192       -1.4306  -22.3375  -41.8009 H         1 UNK         0.0600 
    193 H193       -2.0214  -20.8026  -42.4216 H         1 UNK         0.0600 
    194 H194       -0.5900  -21.5427  -43.1276 H         1 UNK         0.0600 
    195 H195       -0.4401  -22.9773  -45.2126 H         1 UNK         0.3000 
    196 H196        0.2641  -25.5225  -44.1830 H         1 UNK         0.0600 
    197 H197        1.2411  -24.0744  -46.6990 H         1 UNK         0.0600 
    198 H198        1.8901  -23.8719  -45.0748 H         1 UNK         0.0600 
    199 H199        2.0544  -25.4134  -45.9015 H         1 UNK         0.0600 
    200 H200       -1.8088  -24.6982  -46.9167 H         1 UNK         0.3000 
    201 H201       -2.1191  -27.5895  -47.5925 H         1 UNK         0.0600 
    202 H202       -1.9396  -25.2606  -49.5776 H         1 UNK         0.0600 
    203 H203       -2.1906  -26.9548  -49.9792 H         1 UNK         0.0600 
    204 H204       -0.6579  -26.4372  -49.2984 H         1 UNK         0.0600 
    205 H205       -3.6133  -25.3983  -45.9664 H         1 UNK         0.3000 
    206 H206       -5.6642  -24.6701  -45.5279 H         1 UNK         0.0600 
    207 H207       -6.0107  -27.1350  -45.2563 H         1 UNK         0.0600 
    208 H208       -7.4910  -26.3177  -45.7254 H         1 UNK         0.0600 
    209 H209       -6.5860  -27.2390  -46.9198 H         1 UNK         0.0600 
    210 H210       -4.5422  -23.6552  -47.9732 H         1 UNK         0.3000 
    211 H211       -4.9452  -22.2617  -49.6047 H         1 UNK         0.0600 
    212 H212       -7.0042  -21.0160  -49.7985 H         1 UNK         0.0600 
    213 H213       -6.7892  -21.3392  -48.0830 H         1 UNK         0.0600 
    214 H214       -7.9446  -22.2775  -49.0192 H         1 UNK         0.0600 
    215 H215       -5.5272  -25.3862  -49.8738 H         1 UNK         0.3000 
    216 H216       -7.1128  -25.5778  -52.2718 H         1 UNK         0.0600 
    217 H217       -5.0842  -27.5658  -51.1237 H         1 UNK         0.0600 
    218 H218       -6.3389  -27.9105  -52.3046 H         1 UNK         0.0600 
    219 H219       -6.7834  -27.4748  -50.6606 H         1 UNK         0.0600 
    220 H220       -3.6448  -25.2332  -51.6075 H         1 UNK         0.3000 
    221 H221       -2.8797  -25.2811  -54.4605 H         1 UNK         0.0600 
    222 H222       -1.4002  -26.3862  -52.8070 H         1 UNK         0.0600 
    223 H223       -1.2117  -24.8751  -51.9244 H         1 UNK         0.0600 
    224 H224       -0.5851  -25.0241  -53.5587 H         1 UNK         0.0600 
    225 H225       -4.6759  -23.4507  -54.4238 H         1 UNK         0.3000 
    226 H226       -4.2124  -20.8940  -53.4480 H         1 UNK         0.0600 
    227 H227       -5.7553  -21.7378  -55.9526 H         1 UNK         0.0600 
    228 H228       -6.3888  -21.6716  -54.3071 H         1 UNK         0.0600 
    229 H229       -5.9208  -20.1910  -55.1280 H         1 UNK         0.0600 
    230 H230       -2.8899  -22.3469  -56.3649 H         1 UNK         0.3000 
    231 H231       -1.9377  -19.9693  -57.6428 H         1 UNK         0.0600 
    232 H232       -1.0311  -22.8893  -57.8868 H         1 UNK         0.0600 
    233 H233       -0.6181  -21.5959  -59.0057 H         1 UNK         0.0600 
    234 H234       -2.2891  -22.1116  -58.8491 H         1 UNK         0.0600 
    235 H235       -0.7019  -21.7727  -54.8867 H         1 UNK         0.3000 
    236 H236        2.0643  -20.8587  -55.2019 H         1 UNK         0.0600 
    237 H237        1.5740  -23.0736  -54.1863 H         1 UNK         0.0600 
    238 H238        2.4138  -22.0235  -53.0542 H         1 UNK         0.0600 
    239 H239        0.6875  -22.2948  -52.8793 H         1 UNK         0.0600 
    240 H240       -0.7954  -20.0495  -53.1696 H         1 UNK         0.3000 
    241 H241        0.6315  -17.8371  -51.8794 H         1 UNK         0.0600 
    242 H242       -1.6847  -18.1068  -54.6372 H         1 UNK         0.3800 
    243 H243       -1.6301  -16.3911  -54.9447 H         1 UNK         0.3800 
    244 H244       -1.5131  -17.4444  -50.6443 H         1 UNK         0.0800 
    245 H245       -0.7659  -18.9822  -50.3883 H         1 UNK         0.0800 
    246 H246       -4.9039  -18.3350  -52.2655 H         1 UNK         0.0800 
    247 H247       -3.6015  -17.2079  -52.5300 H         1 UNK         0.0800 
@<TRIPOS>BOND
     1    1    2 1    
     2    1  127 1    
     3    1  128 1    
     4    1  129 1    
     5    2    3 2    
     6    2    4 am   BACKBONE|DICT|INTERRES
     7    4    5 1    
     8    4  130 1    
     9    5    6 1    
    10    5   65 1    
    11    5  131 1    
    12    6    7 1    
    13    6  132 1    
    14    6  133 1    
    15    7    8 1    
    16    8    9 1    
    17    8  134 1    
    18    8  135 1    
    19    9   10 ar   
    20    9   14 ar   
    21   10   11 ar   
    22   10  136 1    
    23   11   12 ar   
    24   11  126 1    
    25   12   13 ar   
    26   12  137 1    
    27   13   14 ar   
    28   13   15 1    
    29   14  138 1    
    30   15   16 1    
    31   15  139 1    
    32   15  140 1    
    33   16   17 1    
    34   17   18 1    
    35   17  141 1    
    36   17  142 1    
    37   18   19 1    
    38   18   67 1    
    39   18  143 1    
    40   19   20 am   BACKBONE|DICT|INTERRES
    41   19  144 1    
    42   20   21 2    
    43   20   22 1    
    44   22   23 1    
    45   22   24 1    
    46   22  145 1    
    47   23  146 1    
    48   23  147 1    
    49   23  148 1    
    50   24   25 am   BACKBONE|DICT|INTERRES
    51   24  149 1    
    52   25   26 2    
    53   25   27 1    
    54   27   28 1    
    55   27   29 1    
    56   27  150 1    
    57   28  151 1    
    58   28  152 1    
    59   28  153 1    
    60   29   30 am   BACKBONE|DICT|INTERRES
    61   29  154 1    
    62   30   31 2    
    63   30   32 1    
    64   32   33 1    
    65   32   34 1    
    66   32  155 1    
    67   33  156 1    
    68   33  157 1    
    69   33  158 1    
    70   34   35 am   BACKBONE|DICT|INTERRES
    71   34  159 1    
    72   35   36 2    
    73   35   37 1    
    74   37   38 1    
    75   37   39 1    
    76   37  160 1    
    77   38  161 1    
    78   38  162 1    
    79   38  163 1    
    80   39   40 am   BACKBONE|DICT|INTERRES
    81   39  164 1    
    82   40   41 2    
    83   40   42 1    
    84   42   43 1    
    85   42   44 1    
    86   42  165 1    
    87   43  166 1    
    88   43  167 1    
    89   43  168 1    
    90   44   45 am   BACKBONE|DICT|INTERRES
    91   44  169 1    
    92   45   46 2    
    93   45   47 1    
    94   47   48 1    
    95   47   49 1    
    96   47  170 1    
    97   48  171 1    
    98   48  172 1    
    99   48  173 1    
   100   49   50 am   BACKBONE|DICT|INTERRES
   101   49  174 1    
   102   50   51 2    
   103   50   52 1    
   104   52   53 1    
   105   52   54 1    
   106   52  175 1    
   107   53  176 1    
   108   53  177 1    
   109   53  178 1    
   110   54   55 am   BACKBONE|DICT|INTERRES
   111   54  179 1    
   112   55   56 2    
   113   55   57 1    
   114   57   58 1    
   115   57   59 1    
   116   57  180 1    
   117   58  181 1    
   118   58  182 1    
   119   58  183 1    
   120   59   60 am   BACKBONE|DICT|INTERRES
   121   59  184 1    
   122   60   61 2    
   123   60   62 1    
   124   62   63 1    
   125   62   64 1    
   126   62  185 1    
   127   63  186 1    
   128   63  187 1    
   129   63  188 1    
   130   64   65 am   BACKBONE|DICT|INTERRES
   131   64  189 1    
   132   65   66 2    
   133   67   68 2    
   134   67   69 am   BACKBONE|DICT|INTERRES
   135   69   70 1    
   136   69  190 1    
   137   70   71 1    
   138   70   72 1    
   139   70  191 1    
   140   71  192 1    
   141   71  193 1    
   142   71  194 1    
   143   72   73 2    
   144   72   74 am   BACKBONE|DICT|INTERRES
   145   74   75 1    
   146   74  195 1    
   147   75   76 1    
   148   75   77 1    
   149   75  196 1    
   150   76  197 1    
   151   76  198 1    
   152   76  199 1    
   153   77   78 2    
   154   77   79 am   BACKBONE|DICT|INTERRES
   155   79   80 1    
   156   79  200 1    
   157   80   81 1    
   158   80   82 1    
   159   80  201 1    
   160   81  202 1    
   161   81  203 1    
   162   81  204 1    
   163   82   83 2    
   164   82   84 am   BACKBONE|DICT|INTERRES
   165   84   85 1    
   166   84  205 1    
   167   85   86 1    
   168   85   87 1    
   169   85  206 1    
   170   86  207 1    
   171   86  208 1    
   172   86  209 1    
   173   87   88 2    
   174   87   89 am   BACKBONE|DICT|INTERRES
   175   89   90 1    
   176   89  210 1    
   177   90   91 1    
   178   90   92 1    
   179   90  211 1    
   180   91  212 1    
   181   91  213 1    
   182   91  214 1    
   183   92   93 2    
   184   92   94 am   BACKBONE|DICT|INTERRES
   185   94   95 1    
   186   94  215 1    
   187   95   96 1    
   188   95   97 1    
   189   95  216 1    
   190   96  217 1    
   191   96  218 1    
   192   96  219 1    
   193   97   98 2    
   194   97   99 am   BACKBONE|DICT|INTERRES
   195   99  100 1    
   196   99  220 1    
   197  100  101 1    
   198  100  102 1    
   199  100  221 1    
   200  101  222 1    
   201  101  223 1    
   202  101  224 1    
   203  102  103 2    
   204  102  104 am   BACKBONE|DICT|INTERRES
   205  104  105 1    
   206  104  225 1    
   207  105  106 1    
   208  105  107 1    
   209  105  226 1    
   210  106  227 1    
   211  106  228 1    
   212  106  229 1    
   213  107  108 2    
   214  107  109 am   BACKBONE|DICT|INTERRES
   215  109  110 1    
   216  109  230 1    
   217  110  111 1    
   218  110  112 1    
   219  110  231 1    
   220  111  232 1    
   221  111  233 1    
   222  111  234 1    
   223  112  113 2    
   224  112  114 am   BACKBONE|DICT|INTERRES
   225  114  115 1    
   226  114  235 1    
   227  115  116 1    
   228  115  117 1    
   229  115  236 1    
   230  116  237 1    
   231  116  238 1    
   232  116  239 1    
   233  117  118 2    
   234  117  119 am   BACKBONE|DICT|INTERRES
   235  119  120 1    
   236  119  240 1    
   237  120  121 1    
   238  120  124 1    
   239  120  241 1    
   240  121  122 am   BACKBONE|DICT|INTERRES
   241  121  123 2    
   242  122  242 1    
   243  122  243 1    
   244  124  125 1    
   245  124  244 1    
   246  124  245 1    
   247  125  126 1    
   248  126  246 1    
   249  126  247 1    
@<TRIPOS>SUBSTRUCTURE
     1 UNK         1 GROUP             0       ****    0 ROOT    
