@<TRIPOS>MOLECULE
3R540
247   249    1
SMALL
USER_CHARGES


@<TRIPOS>ATOM
      1 CA         -3.1682  -18.5808  -46.0039 C.3       0 UNK        -0.1800 
      2 C          -2.6004  -17.4933  -46.9017 C.2       0 UNK         0.5000 
      3 O          -3.3570  -16.7243  -47.4946 O.2       0 UNK        -0.5000 
      4 N          -1.2691  -17.4494  -47.0232 N.am      1 UNK        -0.5000 
      5 CA         -0.5305  -16.4675  -47.8170 C.3       1 UNK         0.1400 
      6 C6          0.9223  -16.9465  -48.0545 C.3       23 UNK        -0.0398 
      7 S7          1.8145  -15.9572  -49.2998 S.3       23 UNK        -0.2404 
      8 C8          3.4114  -16.8287  -49.3677 C.3       23 UNK        -0.0205 
      9 C9          3.3208  -18.1224  -50.1639 C.ar      23 UNK        -0.0193 
     10 C10         3.1286  -18.0751  -51.5474 C.ar      23 UNK        -0.1150 
     11 C11         3.0332  -19.2525  -52.2944 C.ar      23 UNK        -0.0193 
     12 C12         3.1637  -20.4852  -51.6505 C.ar      23 UNK        -0.1150 
     13 C13         3.3570  -20.5470  -50.2679 C.ar      23 UNK        -0.0193 
     14 C14         3.4346  -19.3623  -49.5278 C.ar      23 UNK        -0.1150 
     15 C15         3.4685  -21.8990  -49.5811 C.3       23 UNK        -0.0205 
     16 S16         1.8423  -22.7015  -49.4282 S.3       23 UNK        -0.2404 
     17 C17         1.0110  -21.6045  -48.2295 C.3       23 UNK        -0.0398 
     18 CA          0.1548  -22.3926  -47.2117 C.3       11 UNK         0.1400 
     19 N          -0.1631  -21.5703  -46.0480 N.am      11 UNK        -0.5000 
     20 C          -0.7118  -21.9985  -44.9060 C.2       10 UNK         0.5000 
     21 O          -1.0075  -23.1755  -44.6925 O.2       10 UNK        -0.5000 
     22 CA         -0.9175  -20.9274  -43.8125 C.3       10 UNK         0.1400 
     23 CB         -1.5160  -21.5012  -42.5165 C.3       10 UNK        -0.1800 
     24 N           0.3277  -20.2341  -43.4833 N.am      10 UNK        -0.5000 
     25 C           0.9330  -19.2861  -44.2087 C.2       9 UNK         0.5000 
     26 O           0.4967  -18.8946  -45.2950 O.2       9 UNK        -0.5000 
     27 CA          2.2482  -18.7068  -43.6382 C.3       9 UNK         0.1400 
     28 CB          2.6761  -17.4148  -44.3548 C.3       9 UNK        -0.1800 
     29 N           2.1808  -18.4452  -42.1981 N.am      9 UNK        -0.5000 
     30 C           2.2739  -19.3590  -41.2221 C.2       8 UNK         0.5000 
     31 O           2.4315  -20.5624  -41.4298 O.2       8 UNK        -0.5000 
     32 CA          2.1017  -18.8506  -39.7821 C.3       8 UNK         0.1400 
     33 CB          3.4063  -18.2305  -39.2578 C.3       8 UNK        -0.1800 
     34 N           1.0212  -17.8678  -39.7081 N.am      8 UNK        -0.5000 
     35 C          -0.2764  -18.1808  -39.5811 C.2       7 UNK         0.5000 
     36 O          -0.6885  -19.3299  -39.4199 O.2       7 UNK        -0.5000 
     37 CA         -1.2898  -17.0206  -39.6467 C.3       7 UNK         0.1400 
     38 CB         -1.5889  -16.4882  -38.2371 C.3       7 UNK        -0.1800 
     39 N          -0.8396  -15.9120  -40.4895 N.am      7 UNK        -0.5000 
     40 C          -0.7516  -15.9590  -41.8263 C.2       6 UNK         0.5000 
     41 O          -1.1094  -16.9250  -42.4993 O.2       6 UNK        -0.5000 
     42 CA         -0.1347  -14.7294  -42.5246 C.3       6 UNK         0.1400 
     43 CB         -1.2408  -13.7628  -42.9746 C.3       6 UNK        -0.1800 
     44 N           0.8485  -13.9925  -41.7190 N.am      6 UNK        -0.5000 
     45 C           1.9653  -14.5108  -41.1895 C.2       5 UNK         0.5000 
     46 O           2.2784  -15.6964  -41.3019 O.2       5 UNK        -0.5000 
     47 CA          2.8840  -13.5304  -40.4431 C.3       5 UNK         0.1400 
     48 CB          4.0865  -14.2251  -39.7786 C.3       5 UNK        -0.1800 
     49 N           3.3688  -12.5480  -41.4048 N.am      5 UNK        -0.5000 
     50 C           3.2232  -11.2201  -41.3188 C.2       4 UNK         0.5000 
     51 O           2.7411  -10.6424  -40.3441 O.2       4 UNK        -0.5000 
     52 CA          3.6666  -10.4002  -42.5502 C.3       4 UNK         0.1400 
     53 CB          5.0907   -9.8591  -42.3521 C.3       4 UNK        -0.1800 
     54 N           3.6134  -11.1647  -43.8027 N.am      4 UNK        -0.5000 
     55 C           2.4863  -11.6327  -44.3560 C.2       3 UNK         0.5000 
     56 O           1.3621  -11.3988  -43.9049 O.2       3 UNK        -0.5000 
     57 CA          2.6641  -12.5644  -45.5697 C.3       3 UNK         0.1400 
     58 CB          3.3168  -13.8903  -45.1413 C.3       3 UNK        -0.1800 
     59 N           1.3805  -12.8778  -46.1866 N.am      3 UNK        -0.5000 
     60 C           0.7074  -12.1040  -47.0421 C.2       2 UNK         0.5000 
     61 O           1.1512  -11.0461  -47.4935 O.2       2 UNK        -0.5000 
     62 CA         -0.6883  -12.6178  -47.4682 C.3       2 UNK         0.1400 
     63 CB         -1.3262  -11.7571  -48.5736 C.3       2 UNK        -0.1800 
     64 N          -0.6703  -14.0147  -47.9154 N.am      2 UNK        -0.5000 
     65 C          -0.5758  -15.0906  -47.1234 C.2       1 UNK         0.5000 
     66 O          -0.4811  -15.0211  -45.8963 O.2       1 UNK        -0.5000 
     67 C          -1.1285  -22.9288  -47.8711 C.2       11 UNK         0.5000 
     68 O          -2.0254  -22.1423  -48.1830 O.2       11 UNK        -0.5000 
     69 N          -1.1712  -24.2417  -48.1310 N.am      12 UNK        -0.5000 
     70 CA         -2.2983  -24.9318  -48.7637 C.3       12 UNK         0.1400 
     71 CB         -2.0392  -26.4453  -48.7428 C.3       12 UNK        -0.1800 
     72 C          -2.6032  -24.4614  -50.1987 C.2       12 UNK         0.5000 
     73 O          -3.7415  -24.6109  -50.6442 O.2       12 UNK        -0.5000 
     74 N          -1.5912  -23.8996  -50.8757 N.am      13 UNK        -0.5000 
     75 CA         -1.6799  -23.3018  -52.2089 C.3       13 UNK         0.1400 
     76 CB         -0.2875  -23.3391  -52.8579 C.3       13 UNK        -0.1800 
     77 C          -2.2271  -21.8595  -52.2046 C.2       13 UNK         0.5000 
     78 O          -2.4743  -21.3123  -53.2815 O.2       13 UNK        -0.5000 
     79 N          -2.3966  -21.2646  -51.0168 N.am      14 UNK        -0.5000 
     80 CA         -3.0075  -19.9520  -50.8181 C.3       14 UNK         0.1400 
     81 CB         -2.0481  -19.0751  -49.9992 C.3       14 UNK        -0.1800 
     82 C          -4.3555  -20.0754  -50.0874 C.2       14 UNK         0.5000 
     83 O          -5.2912  -19.3454  -50.4115 O.2       14 UNK        -0.5000 
     84 N          -4.4291  -20.9909  -49.1111 N.am      15 UNK        -0.5000 
     85 CA         -5.5477  -21.1715  -48.1843 C.3       15 UNK         0.1400 
     86 CB         -5.0434  -21.9856  -46.9794 C.3       15 UNK        -0.1800 
     87 C          -6.8133  -21.8231  -48.7809 C.2       15 UNK         0.5000 
     88 O          -7.7868  -21.9846  -48.0442 O.2       15 UNK        -0.5000 
     89 N          -6.7867  -22.2123  -50.0654 N.am      16 UNK        -0.5000 
     90 CA         -7.8512  -22.9171  -50.7967 C.3       16 UNK         0.1400 
     91 CB         -9.1873  -22.1436  -50.7715 C.3       16 UNK        -0.1800 
     92 C          -7.9985  -24.3967  -50.3841 C.2       16 UNK         0.5000 
     93 O          -9.0157  -25.0165  -50.6993 O.2       16 UNK        -0.5000 
     94 N          -6.9823  -24.9460  -49.7036 N.am      17 UNK        -0.5000 
     95 CA         -6.9350  -26.3422  -49.2724 C.3       17 UNK         0.1400 
     96 CB         -6.0161  -26.4724  -48.0488 C.3       17 UNK        -0.1800 
     97 C          -6.4776  -27.2631  -50.4154 C.2       17 UNK         0.5000 
     98 O          -7.1197  -28.2839  -50.6657 O.2       17 UNK        -0.5000 
     99 N          -5.3959  -26.8691  -51.0992 N.am      18 UNK        -0.5000 
    100 CA        -4.8813  -27.5220  -52.3024 C.3       18 UNK         0.1400 
    101 CB        -3.3744  -27.7823  -52.1445 C.3       18 UNK        -0.1800 
    102 C         -5.1510  -26.6522  -53.5399 C.2       18 UNK         0.5000 
    103 O         -5.4972  -27.1897  -54.5924 O.2       18 UNK        -0.5000 
    104 N         -5.0150  -25.3290  -53.3905 N.am      19 UNK        -0.5000 
    105 CA        -5.2859  -24.3221  -54.4104 C.3       19 UNK         0.1400 
    106 CB        -4.1436  -24.2838  -55.4462 C.3       19 UNK        -0.1800 
    107 C         -5.4473  -22.9625  -53.7188 C.2       19 UNK         0.5000 
    108 O         -5.1477  -22.8396  -52.5300 O.2       19 UNK        -0.5000 
    109 N         -5.9081  -21.9617  -54.4723 N.am      20 UNK        -0.5000 
    110 CA        -5.9813  -20.5631  -54.0373 C.3       20 UNK         0.1400 
    111 CB        -7.4491  -20.1058  -54.0850 C.3       20 UNK        -0.1800 
    112 C         -5.0746  -19.6608  -54.8995 C.2       20 UNK         0.5000 
    113 O         -5.1682  -18.4363  -54.8049 O.2       20 UNK        -0.5000 
    114 N         -4.2175  -20.2730  -55.7311 N.am      21 UNK        -0.5000 
    115 CA        -3.3369  -19.6240  -56.7052 C.3       21 UNK         0.1400 
    116 CB        -2.5910  -20.7089  -57.4973 C.3       21 UNK        -0.1800 
    117 C         -2.3386  -18.6267  -56.0898 C.2       21 UNK         0.5000 
    118 O         -2.0352  -17.6111  -56.7174 O.2       21 UNK        -0.5000 
    119 N         -1.8703  -18.9216  -54.8728 N.am      22 UNK        -0.5000 
    120 CA        -1.0037  -18.0413  -54.0764 C.3       22 UNK         0.1400 
    121 C         -1.7879  -17.0114  -53.2065 C.2       22 UNK         0.5000 
    122 N         -3.1136  -16.9439  -53.2616 N.am      22 UNK        -0.7600 
    123 O         -1.1795  -16.2413  -52.4694 O.2       22 UNK        -0.5000 
    124 C124       -0.0031  -18.8583  -53.2244 C.3       23 UNK        -0.0398 
    125 S125        1.1299  -19.8869  -54.2226 S.3       23 UNK        -0.2404 
    126 C126        2.7597  -19.1911  -53.7912 C.3       23 UNK        -0.0205 
    127 H127       -3.0145  -18.3237  -44.9557 H         1 UNK         0.0600 
    128 H128       -2.6831  -19.5348  -46.2107 H         1 UNK         0.0600 
    129 H129       -4.2376  -18.7048  -46.1753 H         1 UNK         0.0600 
    130 H130       -0.6944  -18.0406  -46.4268 H         1 UNK         0.3000 
    131 H131       -1.0262  -16.3842  -48.7866 H         1 UNK         0.0600 
    132 H132        1.4874  -16.9400  -47.1221 H         1 UNK         0.0800 
    133 H133        0.9141  -17.9816  -48.3996 H         1 UNK         0.0800 
    134 H134        3.7725  -17.0131  -48.3547 H         1 UNK         0.0800 
    135 H135        4.1469  -16.1752  -49.8389 H         1 UNK         0.0800 
    136 H136        3.0293  -17.1163  -52.0369 H         1 UNK         0.1150 
    137 H137        3.0857  -21.3990  -52.2229 H         1 UNK         0.1150 
    138 H138        3.5819  -19.4051  -48.4579 H         1 UNK         0.1150 
    139 H139        4.1277  -22.5455  -50.1622 H         1 UNK         0.0800 
    140 H140        3.9279  -21.8019  -48.5962 H         1 UNK         0.0800 
    141 H141        0.4195  -20.8617  -48.7691 H         1 UNK         0.0800 
    142 H142        1.7763  -21.0422  -47.6932 H         1 UNK         0.0800 
    143 H143        0.7435  -23.2371  -46.8462 H         1 UNK         0.0600 
    144 H144        0.0586  -20.5822  -46.1102 H         1 UNK         0.3000 
    145 H145       -1.6249  -20.1956  -44.2017 H         1 UNK         0.0600 
    146 H146       -1.7005  -20.7121  -41.7868 H         1 UNK         0.0600 
    147 H147       -2.4703  -21.9933  -42.7086 H         1 UNK         0.0600 
    148 H148       -0.8520  -22.2336  -42.0559 H         1 UNK         0.0600 
    149 H149        0.7992  -20.5353  -42.6382 H         1 UNK         0.3000 
    150 H150        3.0257  -19.4530  -43.8127 H         1 UNK         0.0600 
    151 H151        2.9248  -17.6132  -45.3973 H         1 UNK         0.0600 
    152 H152        3.5598  -16.9753  -43.8916 H         1 UNK         0.0600 
    153 H153        1.8819  -16.6685  -44.3393 H         1 UNK         0.0600 
    154 H154        2.0673  -17.4721  -41.9279 H         1 UNK         0.3000 
    155 H155        1.8585  -19.7047  -39.1462 H         1 UNK         0.0600 
    156 H156        3.7412  -17.3980  -39.8767 H         1 UNK         0.0600 
    157 H157        4.2083  -18.9696  -39.2458 H         1 UNK         0.0600 
    158 H158        3.2870  -17.8636  -38.2383 H         1 UNK         0.0600 
    159 H159        1.2757  -16.9090  -39.9078 H         1 UNK         0.3000 
    160 H160       -2.2175  -17.4153  -40.0666 H         1 UNK         0.0600 
    161 H161       -0.6997  -16.0636  -37.7693 H         1 UNK         0.0600 
    162 H162       -1.9521  -17.2860  -37.5877 H         1 UNK         0.0600 
    163 H163       -2.3578  -15.7158  -38.2617 H         1 UNK         0.0600 
    164 H164       -0.5377  -15.0724  -40.0180 H         1 UNK         0.3000 
    165 H165        0.3838  -15.0926  -43.4123 H         1 UNK         0.0600 
    166 H166       -0.8362  -12.9595  -43.5897 H         1 UNK         0.0600 
    167 H167       -1.9890  -14.2796  -43.5774 H         1 UNK         0.0600 
    168 H168       -1.7548  -13.3131  -42.1244 H         1 UNK         0.0600 
    169 H169        0.6856  -13.0004  -41.6188 H         1 UNK         0.3000 
    170 H170        2.2866  -13.0544  -39.6630 H         1 UNK         0.0600 
    171 H171        3.7556  -14.9630  -39.0468 H         1 UNK         0.0600 
    172 H172        4.7113  -14.7408  -40.5091 H         1 UNK         0.0600 
    173 H173        4.7134  -13.5051  -39.2525 H         1 UNK         0.0600 
    174 H174        3.7585  -12.9252  -42.2562 H         1 UNK         0.3000 
    175 H175        2.9864   -9.5509  -42.6423 H         1 UNK         0.0600 
    176 H176        5.8206  -10.6656  -42.2705 H         1 UNK         0.0600 
    177 H177        5.3885   -9.2177  -43.1818 H         1 UNK         0.0600 
    178 H178        5.1583   -9.2622  -41.4415 H         1 UNK         0.0600 
    179 H179        4.5010  -11.3872  -44.2305 H         1 UNK         0.3000 
    180 H180        3.3051  -12.0695  -46.3021 H         1 UNK         0.0600 
    181 H181        2.7461  -14.3793  -44.3512 H         1 UNK         0.0600 
    182 H182        4.3291  -13.7344  -44.7674 H         1 UNK         0.0600 
    183 H183        3.3880  -14.5847  -45.9793 H         1 UNK         0.0600 
    184 H184        0.9023  -13.7071  -45.8477 H         1 UNK         0.3000 
    185 H185       -1.3294  -12.5486  -46.5867 H         1 UNK         0.0600 
    186 H186       -1.4174  -10.7169  -48.2583 H         1 UNK         0.0600 
    187 H187       -0.7329  -11.7738  -49.4887 H         1 UNK         0.0600 
    188 H188       -2.3293  -12.1079  -48.8172 H         1 UNK         0.0600 
    189 H189       -0.6860  -14.1546  -48.9155 H         1 UNK         0.3000 
    190 H190       -0.3895  -24.8202  -47.8582 H         1 UNK         0.3000 
    191 H191       -3.1837  -24.7237  -48.1613 H         1 UNK         0.0600 
    192 H192       -2.8722  -26.9942  -49.1833 H         1 UNK         0.0600 
    193 H193       -1.9169  -26.8107  -47.7230 H         1 UNK         0.0600 
    194 H194       -1.1419  -26.7076  -49.3048 H         1 UNK         0.0600 
    195 H195       -0.6919  -23.8395  -50.4202 H         1 UNK         0.3000 
    196 H196       -2.3578  -23.9058  -52.8132 H         1 UNK         0.0600 
    197 H197        0.4307  -22.7322  -52.3046 H         1 UNK         0.0600 
    198 H198        0.0989  -24.3571  -52.9082 H         1 UNK         0.0600 
    199 H199       -0.3206  -22.9543  -53.8782 H         1 UNK         0.0600 
    200 H200       -2.1711  -21.7848  -50.1782 H         1 UNK         0.3000 
    201 H201       -3.1924  -19.4610  -51.7752 H         1 UNK         0.0600 
    202 H202       -1.0739  -18.9720  -50.4722 H         1 UNK         0.0600 
    203 H203       -1.8816  -19.4863  -49.0035 H         1 UNK         0.0600 
    204 H204       -2.4563  -18.0708  -49.8831 H         1 UNK         0.0600 
    205 H205       -3.5869  -21.5079  -48.8731 H         1 UNK         0.3000 
    206 H206       -5.8430  -20.1842  -47.8236 H         1 UNK         0.0600 
    207 H207       -4.1892  -21.5043  -46.5037 H         1 UNK         0.0600 
    208 H208       -5.8171  -22.0884  -46.2175 H         1 UNK         0.0600 
    209 H209       -4.7383  -22.9897  -47.2749 H         1 UNK         0.0600 
    210 H210       -5.9336  -22.0694  -50.5944 H         1 UNK         0.3000 
    211 H211       -7.5479  -22.9392  -51.8398 H         1 UNK         0.0600 
    212 H212       -9.8869  -22.5558  -51.4993 H         1 UNK         0.0600 
    213 H213       -9.0408  -21.0934  -51.0238 H         1 UNK         0.0600 
    214 H214       -9.6731  -22.1930  -49.7971 H         1 UNK         0.0600 
    215 H215       -6.1679  -24.3772  -49.5236 H         1 UNK         0.3000 
    216 H216       -7.9367  -26.6543  -48.9686 H         1 UNK         0.0600 
    217 H217       -4.9958  -26.1713  -48.2769 H         1 UNK         0.0600 
    218 H218       -5.9823  -27.5035  -47.6948 H         1 UNK         0.0600 
    219 H219       -6.3706  -25.8556  -47.2228 H         1 UNK         0.0600 
    220 H220       -4.9288  -26.0079  -50.8281 H         1 UNK         0.3000 
    221 H221       -5.3737  -28.4841  -52.4581 H         1 UNK         0.0600 
    222 H222       -3.1728  -28.4110  -51.2774 H         1 UNK         0.0600 
    223 H223       -2.8100  -26.8570  -52.0279 H         1 UNK         0.0600 
    224 H224       -2.9765  -28.2983  -53.0191 H         1 UNK         0.0600 
    225 H225       -4.7459  -24.9378  -52.4919 H         1 UNK         0.3000 
    226 H226       -6.2274  -24.5654  -54.9070 H         1 UNK         0.0600 
    227 H227       -3.1963  -23.9888  -54.9949 H         1 UNK         0.0600 
    228 H228       -3.9979  -25.2556  -55.9174 H         1 UNK         0.0600 
    229 H229       -4.3587  -23.5747  -56.2459 H         1 UNK         0.0600 
    230 H230       -6.1692  -22.1423  -55.4319 H         1 UNK         0.3000 
    231 H231       -5.6277  -20.4559  -53.0101 H         1 UNK         0.0600 
    232 H232       -7.8466  -20.1340  -55.1000 H         1 UNK         0.0600 
    233 H233       -7.5553  -19.0849  -53.7160 H         1 UNK         0.0600 
    234 H234       -8.0775  -20.7405  -53.4602 H         1 UNK         0.0600 
    235 H235       -4.1502  -21.2770  -55.6738 H         1 UNK         0.3000 
    236 H236       -3.9704  -19.0668  -57.3983 H         1 UNK         0.0600 
    237 H237       -3.2861  -21.3669  -58.0191 H         1 UNK         0.0600 
    238 H238       -1.9383  -20.2646  -58.2501 H         1 UNK         0.0600 
    239 H239       -1.9691  -21.3245  -56.8456 H         1 UNK         0.0600 
    240 H240       -2.1669  -19.7837  -54.4223 H         1 UNK         0.3000 
    241 H241       -0.4075  -17.4342  -54.7600 H         1 UNK         0.0600 
    242 H242       -3.5895  -16.2592  -52.6970 H         1 UNK         0.3800 
    243 H243       -3.6535  -17.5310  -53.8879 H         1 UNK         0.3800 
    244 H244       -0.5363  -19.5271  -52.5538 H         1 UNK         0.0800 
    245 H245        0.5757  -18.1924  -52.5853 H         1 UNK         0.0800 
    246 H246        2.8150  -18.1642  -54.1558 H         1 UNK         0.0800 
    247 H247        3.5345  -19.7477  -54.3199 H         1 UNK         0.0800 
@<TRIPOS>BOND
     1    1    2 1    
     2    1  127 1    
     3    1  128 1    
     4    1  129 1    
     5    2    3 2    
     6    2    4 am   BACKBONE|DICT|INTERRES
     7    4    5 1    
     8    4  130 1    
     9    5    6 1    
    10    5   65 1    
    11    5  131 1    
    12    6    7 1    
    13    6  132 1    
    14    6  133 1    
    15    7    8 1    
    16    8    9 1    
    17    8  134 1    
    18    8  135 1    
    19    9   10 ar   
    20    9   14 ar   
    21   10   11 ar   
    22   10  136 1    
    23   11   12 ar   
    24   11  126 1    
    25   12   13 ar   
    26   12  137 1    
    27   13   14 ar   
    28   13   15 1    
    29   14  138 1    
    30   15   16 1    
    31   15  139 1    
    32   15  140 1    
    33   16   17 1    
    34   17   18 1    
    35   17  141 1    
    36   17  142 1    
    37   18   19 1    
    38   18   67 1    
    39   18  143 1    
    40   19   20 am   BACKBONE|DICT|INTERRES
    41   19  144 1    
    42   20   21 2    
    43   20   22 1    
    44   22   23 1    
    45   22   24 1    
    46   22  145 1    
    47   23  146 1    
    48   23  147 1    
    49   23  148 1    
    50   24   25 am   BACKBONE|DICT|INTERRES
    51   24  149 1    
    52   25   26 2    
    53   25   27 1    
    54   27   28 1    
    55   27   29 1    
    56   27  150 1    
    57   28  151 1    
    58   28  152 1    
    59   28  153 1    
    60   29   30 am   BACKBONE|DICT|INTERRES
    61   29  154 1    
    62   30   31 2    
    63   30   32 1    
    64   32   33 1    
    65   32   34 1    
    66   32  155 1    
    67   33  156 1    
    68   33  157 1    
    69   33  158 1    
    70   34   35 am   BACKBONE|DICT|INTERRES
    71   34  159 1    
    72   35   36 2    
    73   35   37 1    
    74   37   38 1    
    75   37   39 1    
    76   37  160 1    
    77   38  161 1    
    78   38  162 1    
    79   38  163 1    
    80   39   40 am   BACKBONE|DICT|INTERRES
    81   39  164 1    
    82   40   41 2    
    83   40   42 1    
    84   42   43 1    
    85   42   44 1    
    86   42  165 1    
    87   43  166 1    
    88   43  167 1    
    89   43  168 1    
    90   44   45 am   BACKBONE|DICT|INTERRES
    91   44  169 1    
    92   45   46 2    
    93   45   47 1    
    94   47   48 1    
    95   47   49 1    
    96   47  170 1    
    97   48  171 1    
    98   48  172 1    
    99   48  173 1    
   100   49   50 am   BACKBONE|DICT|INTERRES
   101   49  174 1    
   102   50   51 2    
   103   50   52 1    
   104   52   53 1    
   105   52   54 1    
   106   52  175 1    
   107   53  176 1    
   108   53  177 1    
   109   53  178 1    
   110   54   55 am   BACKBONE|DICT|INTERRES
   111   54  179 1    
   112   55   56 2    
   113   55   57 1    
   114   57   58 1    
   115   57   59 1    
   116   57  180 1    
   117   58  181 1    
   118   58  182 1    
   119   58  183 1    
   120   59   60 am   BACKBONE|DICT|INTERRES
   121   59  184 1    
   122   60   61 2    
   123   60   62 1    
   124   62   63 1    
   125   62   64 1    
   126   62  185 1    
   127   63  186 1    
   128   63  187 1    
   129   63  188 1    
   130   64   65 am   BACKBONE|DICT|INTERRES
   131   64  189 1    
   132   65   66 2    
   133   67   68 2    
   134   67   69 am   BACKBONE|DICT|INTERRES
   135   69   70 1    
   136   69  190 1    
   137   70   71 1    
   138   70   72 1    
   139   70  191 1    
   140   71  192 1    
   141   71  193 1    
   142   71  194 1    
   143   72   73 2    
   144   72   74 am   BACKBONE|DICT|INTERRES
   145   74   75 1    
   146   74  195 1    
   147   75   76 1    
   148   75   77 1    
   149   75  196 1    
   150   76  197 1    
   151   76  198 1    
   152   76  199 1    
   153   77   78 2    
   154   77   79 am   BACKBONE|DICT|INTERRES
   155   79   80 1    
   156   79  200 1    
   157   80   81 1    
   158   80   82 1    
   159   80  201 1    
   160   81  202 1    
   161   81  203 1    
   162   81  204 1    
   163   82   83 2    
   164   82   84 am   BACKBONE|DICT|INTERRES
   165   84   85 1    
   166   84  205 1    
   167   85   86 1    
   168   85   87 1    
   169   85  206 1    
   170   86  207 1    
   171   86  208 1    
   172   86  209 1    
   173   87   88 2    
   174   87   89 am   BACKBONE|DICT|INTERRES
   175   89   90 1    
   176   89  210 1    
   177   90   91 1    
   178   90   92 1    
   179   90  211 1    
   180   91  212 1    
   181   91  213 1    
   182   91  214 1    
   183   92   93 2    
   184   92   94 am   BACKBONE|DICT|INTERRES
   185   94   95 1    
   186   94  215 1    
   187   95   96 1    
   188   95   97 1    
   189   95  216 1    
   190   96  217 1    
   191   96  218 1    
   192   96  219 1    
   193   97   98 2    
   194   97   99 am   BACKBONE|DICT|INTERRES
   195   99  100 1    
   196   99  220 1    
   197  100  101 1    
   198  100  102 1    
   199  100  221 1    
   200  101  222 1    
   201  101  223 1    
   202  101  224 1    
   203  102  103 2    
   204  102  104 am   BACKBONE|DICT|INTERRES
   205  104  105 1    
   206  104  225 1    
   207  105  106 1    
   208  105  107 1    
   209  105  226 1    
   210  106  227 1    
   211  106  228 1    
   212  106  229 1    
   213  107  108 2    
   214  107  109 am   BACKBONE|DICT|INTERRES
   215  109  110 1    
   216  109  230 1    
   217  110  111 1    
   218  110  112 1    
   219  110  231 1    
   220  111  232 1    
   221  111  233 1    
   222  111  234 1    
   223  112  113 2    
   224  112  114 am   BACKBONE|DICT|INTERRES
   225  114  115 1    
   226  114  235 1    
   227  115  116 1    
   228  115  117 1    
   229  115  236 1    
   230  116  237 1    
   231  116  238 1    
   232  116  239 1    
   233  117  118 2    
   234  117  119 am   BACKBONE|DICT|INTERRES
   235  119  120 1    
   236  119  240 1    
   237  120  121 1    
   238  120  124 1    
   239  120  241 1    
   240  121  122 am   BACKBONE|DICT|INTERRES
   241  121  123 2    
   242  122  242 1    
   243  122  243 1    
   244  124  125 1    
   245  124  244 1    
   246  124  245 1    
   247  125  126 1    
   248  126  246 1    
   249  126  247 1    
@<TRIPOS>SUBSTRUCTURE
     1 UNK         1 GROUP             0       ****    0 ROOT    
