@<TRIPOS>MOLECULE
3R540
247   249    1
SMALL
USER_CHARGES


@<TRIPOS>ATOM
      1 CA          0.5886   -8.2648  -51.1033 C.3       0 UNK        -0.1800 
      2 C           0.7823   -9.3340  -50.0376 C.2       0 UNK         0.5000 
      3 O           1.7426   -9.2689  -49.2688 O.2       0 UNK        -0.5000 
      4 N          -0.1228  -10.3185  -49.9866 N.am      1 UNK        -0.5000 
      5 CA         -0.1378  -11.4142  -49.0139 C.3       1 UNK         0.1400 
      6 C6         -0.8397  -12.6805  -49.5680 C.3       23 UNK        -0.0398 
      7 S7         -2.5099  -12.4087  -50.2673 S.3       23 UNK        -0.2404 
      8 C8         -3.5032  -13.5888  -49.2966 C.3       23 UNK        -0.0205 
      9 C9         -3.1074  -15.0291  -49.5881 C.ar      23 UNK        -0.0193 
     10 C10        -3.4120  -15.5992  -50.8272 C.ar      23 UNK        -0.1150 
     11 C11        -3.0204  -16.9070  -51.1230 C.ar      23 UNK        -0.0193 
     12 C12        -2.3221  -17.6477  -50.1655 C.ar      23 UNK        -0.1150 
     13 C13        -2.0541  -17.1073  -48.9029 C.ar      23 UNK        -0.0193 
     14 C14        -2.4405  -15.7928  -48.6243 C.ar      23 UNK        -0.1150 
     15 C15        -1.3592  -17.9421  -47.8341 C.3       23 UNK        -0.0205 
     16 S16        -2.5511  -18.6748  -46.6597 S.3       23 UNK        -0.2404 
     17 C17        -3.3798  -19.9288  -47.7080 C.3       23 UNK        -0.0398 
     18 CA         -3.0917  -21.4115  -47.3402 C.3       11 UNK         0.1400 
     19 N          -1.7280  -21.6217  -46.8435 N.am      11 UNK        -0.5000 
     20 C          -1.0388  -22.7659  -46.9179 C.2       10 UNK         0.5000 
     21 O          -1.4718  -23.7876  -47.4439 O.2       10 UNK        -0.5000 
     22 CA          0.3328  -22.7863  -46.2196 C.3       10 UNK         0.1400 
     23 CB          1.4297  -22.2472  -47.1474 C.3       10 UNK        -0.1800 
     24 N           0.3402  -22.0273  -44.9666 N.am      10 UNK        -0.5000 
     25 C          -0.4158  -22.3145  -43.8980 C.2       9 UNK         0.5000 
     26 O          -1.2234  -23.2442  -43.8853 O.2       9 UNK        -0.5000 
     27 CA         -0.3064  -21.3934  -42.6670 C.3       9 UNK         0.1400 
     28 CB         -0.3156  -22.1877  -41.3455 C.3       9 UNK        -0.1800 
     29 N           0.8113  -20.4434  -42.7052 N.am      9 UNK        -0.5000 
     30 C           2.1281  -20.7067  -42.6538 C.2       8 UNK         0.5000 
     31 O           2.6015  -21.8428  -42.6402 O.2       8 UNK        -0.5000 
     32 CA          3.0843  -19.4946  -42.6186 C.3       8 UNK         0.1400 
     33 CB          3.7020  -19.2630  -44.0058 C.3       8 UNK        -0.1800 
     34 N           2.4328  -18.2608  -42.1705 N.am      8 UNK        -0.5000 
     35 C           1.9776  -18.0542  -40.9249 C.2       7 UNK         0.5000 
     36 O           2.1867  -18.8318  -39.9928 O.2       7 UNK        -0.5000 
     37 CA          1.1200  -16.7973  -40.6678 C.3       7 UNK         0.1400 
     38 CB          1.9186  -15.7668  -39.8536 C.3       7 UNK        -0.1800 
     39 N           0.5845  -16.1500  -41.8704 N.am      7 UNK        -0.5000 
     40 C          -0.2330  -16.7052  -42.7781 C.2       6 UNK         0.5000 
     41 O          -0.6479  -17.8624  -42.7052 O.2       6 UNK        -0.5000 
     42 CA         -0.5950  -15.8444  -44.0057 C.3       6 UNK         0.1400 
     43 CB         -1.8631  -15.0209  -43.7426 C.3       6 UNK        -0.1800 
     44 N           0.4881  -14.9485  -44.4214 N.am      6 UNK        -0.5000 
     45 C           1.6863  -15.3568  -44.8654 C.2       5 UNK         0.5000 
     46 O           2.0019  -16.5398  -44.9886 O.2       5 UNK        -0.5000 
     47 CA          2.7149  -14.2599  -45.1820 C.3       5 UNK         0.1400 
     48 CB          2.4579  -13.6490  -46.5697 C.3       5 UNK        -0.1800 
     49 N           2.6872  -13.2123  -44.1609 N.am      5 UNK        -0.5000 
     50 C           3.3190  -13.2968  -42.9809 C.2       4 UNK         0.5000 
     51 O           4.0596  -14.2304  -42.6718 O.2       4 UNK        -0.5000 
     52 CA          3.0822  -12.1604  -41.9644 C.3       4 UNK         0.1400 
     53 CB          4.1719  -11.0862  -42.0986 C.3       4 UNK        -0.1800 
     54 N           1.7699  -11.5234  -42.0869 N.am      4 UNK        -0.5000 
     55 C           0.5992  -12.1240  -41.8309 C.2       3 UNK         0.5000 
     56 O           0.5006  -13.2806  -41.4272 O.2       3 UNK        -0.5000 
     57 CA         -0.6794  -11.3196  -42.1402 C.3       3 UNK         0.1400 
     58 CB         -1.1126  -10.5070  -40.9113 C.3       3 UNK        -0.1800 
     59 N          -0.5583  -10.4237  -43.2962 N.am      3 UNK        -0.5000 
     60 C          -0.1853  -10.7986  -44.5275 C.2       2 UNK         0.5000 
     61 O           0.1264  -11.9579  -44.8151 O.2       2 UNK        -0.5000 
     62 CA         -0.0881   -9.6745  -45.5794 C.3       2 UNK         0.1400 
     63 CB          1.0497   -8.7015  -45.2256 C.3       2 UNK        -0.1800 
     64 N           0.1537  -10.1787  -46.9305 N.am      2 UNK        -0.5000 
     65 C          -0.6840  -10.9338  -47.6504 C.2       1 UNK         0.5000 
     66 O          -1.8269  -11.2174  -47.2881 O.2       1 UNK        -0.5000 
     67 C          -4.1845  -22.0222  -46.4345 C.2       11 UNK         0.5000 
     68 O          -5.3484  -22.0108  -46.8331 O.2       11 UNK        -0.5000 
     69 N          -3.8145  -22.5683  -45.2680 N.am      12 UNK        -0.5000 
     70 CA         -4.6885  -23.3993  -44.4407 C.3       12 UNK         0.1400 
     71 CB         -4.5109  -23.0323  -42.9582 C.3       12 UNK        -0.1800 
     72 C          -4.3823  -24.8862  -44.6872 C.2       12 UNK         0.5000 
     73 O          -5.3087  -25.6719  -44.8868 O.2       12 UNK        -0.5000 
     74 N          -3.0888  -25.2411  -44.6900 N.am      13 UNK        -0.5000 
     75 CA         -2.5861  -26.6023  -44.8839 C.3       13 UNK         0.1400 
     76 CB         -1.0814  -26.6270  -44.5744 C.3       13 UNK        -0.1800 
     77 C          -2.8561  -27.1658  -46.2917 C.2       13 UNK         0.5000 
     78 O          -3.2139  -28.3374  -46.4181 O.2       13 UNK        -0.5000 
     79 N          -2.6928  -26.3210  -47.3151 N.am      14 UNK        -0.5000 
     80 CA         -2.9130  -26.6281  -48.7247 C.3       14 UNK         0.1400 
     81 CB         -1.5583  -26.6564  -49.4553 C.3       14 UNK        -0.1800 
     82 C          -3.8953  -25.6013  -49.3106 C.2       14 UNK         0.5000 
     83 O          -3.6230  -24.9871  -50.3451 O.2       14 UNK        -0.5000 
     84 N          -5.0336  -25.4271  -48.6244 N.am      15 UNK        -0.5000 
     85 CA         -6.1112  -24.5027  -48.9868 C.3       15 UNK         0.1400 
     86 CB         -7.2051  -24.5550  -47.9093 C.3       15 UNK        -0.1800 
     87 C          -6.7166  -24.7796  -50.3743 C.2       15 UNK         0.5000 
     88 O          -6.9796  -23.8381  -51.1219 O.2       15 UNK        -0.5000 
     89 N          -6.8746  -26.0673  -50.7125 N.am      16 UNK        -0.5000 
     90 CA         -7.3988  -26.5401  -51.9975 C.3       16 UNK         0.1400 
     91 CB         -7.6601  -28.0510  -51.9029 C.3       16 UNK        -0.1800 
     92 C          -6.4793  -26.2269  -53.1951 C.2       16 UNK         0.5000 
     93 O          -6.9693  -26.1020  -54.3178 O.2       16 UNK        -0.5000 
     94 N          -5.1729  -26.0913  -52.9329 N.am      17 UNK        -0.5000 
     95 CA         -4.1551  -25.7113  -53.9128 C.3       17 UNK         0.1400 
     96 CB         -2.8646  -26.4867  -53.5979 C.3       17 UNK        -0.1800 
     97 C          -3.8750  -24.1963  -53.9060 C.2       17 UNK         0.5000 
     98 O          -3.0379  -23.7448  -54.6875 O.2       17 UNK        -0.5000 
     99 N          -4.5200  -23.4468  -52.9969 N.am      18 UNK        -0.5000 
    100 CA        -4.2909  -22.0304  -52.6938 C.3       18 UNK         0.1400 
    101 CB        -4.7835  -21.1422  -53.8512 C.3       18 UNK        -0.1800 
    102 C         -2.8211  -21.7718  -52.3018 C.2       18 UNK         0.5000 
    103 O         -2.1388  -20.9438  -52.9140 O.2       18 UNK        -0.5000 
    104 N         -2.3419  -22.5793  -51.3414 N.am      19 UNK        -0.5000 
    105 CA        -0.9646  -22.6698  -50.8365 C.3       19 UNK         0.1400 
    106 CB        -0.5014  -21.3157  -50.2590 C.3       19 UNK        -0.1800 
    107 C          0.0522  -23.2120  -51.8630 C.2       19 UNK         0.5000 
    108 O          1.2497  -23.2094  -51.5771 O.2       19 UNK        -0.5000 
    109 N         -0.4303  -23.6162  -53.0496 N.am      20 UNK        -0.5000 
    110 CA         0.3258  -23.8476  -54.2853 C.3       20 UNK         0.1400 
    111 CB         1.2903  -25.0427  -54.1394 C.3       20 UNK        -0.1800 
    112 C          1.0177  -22.5629  -54.7994 C.2       20 UNK         0.5000 
    113 O          1.9887  -22.6511  -55.5528 O.2       20 UNK        -0.5000 
    114 N          0.5100  -21.3956  -54.3761 N.am      21 UNK        -0.5000 
    115 CA         1.0731  -20.0791  -54.6536 C.3       21 UNK         0.1400 
    116 CB         1.2268  -19.3074  -53.3318 C.3       21 UNK        -0.1800 
    117 C          0.1776  -19.3059  -55.6274 C.2       21 UNK         0.5000 
    118 O          0.6799  -18.7938  -56.6289 O.2       21 UNK        -0.5000 
    119 N         -1.1255  -19.2364  -55.3230 N.am      22 UNK        -0.5000 
    120 CA        -2.1064  -18.4727  -56.1152 C.3       22 UNK         0.1400 
    121 C         -2.7701  -19.2932  -57.2595 C.2       22 UNK         0.5000 
    122 N         -2.5281  -20.5934  -57.3750 N.am      22 UNK        -0.7600 
    123 O         -3.5107  -18.7371  -58.0659 O.2       22 UNK        -0.5000 
    124 C124       -3.1787  -17.7850  -55.2317 C.3       23 UNK        -0.0398 
    125 S125       -2.4828  -16.8088  -53.8509 S.3       23 UNK        -0.2404 
    126 C126       -3.3960  -17.5346  -52.4557 C.3       23 UNK        -0.0205 
    127 H127       -0.2968   -8.4538  -51.7109 H         1 UNK         0.0600 
    128 H128        0.4783   -7.2860  -50.6364 H         1 UNK         0.0600 
    129 H129        1.4546   -8.2330  -51.7644 H         1 UNK         0.0600 
    130 H130       -0.9053  -10.3097  -50.6262 H         1 UNK         0.3000 
    131 H131        0.8982  -11.7109  -48.8337 H         1 UNK         0.0600 
    132 H132       -0.8726  -13.4485  -48.7947 H         1 UNK         0.0800 
    133 H133       -0.2279  -13.1052  -50.3649 H         1 UNK         0.0800 
    134 H134       -4.5574  -13.4494  -49.5396 H         1 UNK         0.0800 
    135 H135       -3.4003  -13.3612  -48.2342 H         1 UNK         0.0800 
    136 H136       -3.9441  -15.0190  -51.5682 H         1 UNK         0.1150 
    137 H137       -2.0131  -18.6567  -50.3976 H         1 UNK         0.1150 
    138 H138       -2.2236  -15.3673  -47.6543 H         1 UNK         0.1150 
    139 H139       -0.7600  -18.7316  -48.2902 H         1 UNK         0.0800 
    140 H140       -0.6596  -17.3136  -47.2808 H         1 UNK         0.0800 
    141 H141       -3.0787  -19.7799  -48.7409 H         1 UNK         0.0800 
    142 H142       -4.4491  -19.7099  -47.7118 H         1 UNK         0.0800 
    143 H143       -3.1780  -21.9772  -48.2713 H         1 UNK         0.0600 
    144 H144       -1.3118  -20.8310  -46.3723 H         1 UNK         0.3000 
    145 H145        0.5673  -23.8258  -45.9820 H         1 UNK         0.0600 
    146 H146        2.4115  -22.3190  -46.6790 H         1 UNK         0.0600 
    147 H147        1.4723  -22.8213  -48.0741 H         1 UNK         0.0600 
    148 H148        1.2598  -21.2023  -47.4102 H         1 UNK         0.0600 
    149 H149        0.9805  -21.2505  -44.9017 H         1 UNK         0.3000 
    150 H150       -1.2089  -20.7806  -42.6816 H         1 UNK         0.0600 
    151 H151       -1.2326  -22.7692  -41.2435 H         1 UNK         0.0600 
    152 H152       -0.2590  -21.5209  -40.4850 H         1 UNK         0.0600 
    153 H153        0.5194  -22.8860  -41.2854 H         1 UNK         0.0600 
    154 H154        0.5250  -19.4686  -42.7259 H         1 UNK         0.3000 
    155 H155        3.8897  -19.7279  -41.9191 H         1 UNK         0.0600 
    156 H156        2.9380  -19.0668  -44.7588 H         1 UNK         0.0600 
    157 H157        4.2659  -20.1376  -44.3328 H         1 UNK         0.0600 
    158 H158        4.3897  -18.4171  -43.9974 H         1 UNK         0.0600 
    159 H159        2.2271  -17.5732  -42.8841 H         1 UNK         0.3000 
    160 H160        0.2671  -17.1171  -40.0662 H         1 UNK         0.0600 
    161 H161        1.2810  -14.9496  -39.5172 H         1 UNK         0.0600 
    162 H162        2.7348  -15.3404  -40.4373 H         1 UNK         0.0600 
    163 H163        2.3537  -16.2187  -38.9612 H         1 UNK         0.0600 
    164 H164        0.8059  -15.1648  -41.9745 H         1 UNK         0.3000 
    165 H165       -0.7986  -16.5243  -44.8352 H         1 UNK         0.0600 
    166 H166       -2.1362  -14.4247  -44.6137 H         1 UNK         0.0600 
    167 H167       -2.7080  -15.6719  -43.5147 H         1 UNK         0.0600 
    168 H168       -1.7331  -14.3446  -42.8980 H         1 UNK         0.0600 
    169 H169        0.3044  -13.9517  -44.3780 H         1 UNK         0.3000 
    170 H170        3.7060  -14.7186  -45.1979 H         1 UNK         0.0600 
    171 H171        3.1751  -12.8590  -46.7924 H         1 UNK         0.0600 
    172 H172        2.5552  -14.4061  -47.3487 H         1 UNK         0.0600 
    173 H173        1.4571  -13.2262  -46.6534 H         1 UNK         0.0600 
    174 H174        2.0339  -12.4538  -44.3173 H         1 UNK         0.3000 
    175 H175        3.1519  -12.5956  -40.9652 H         1 UNK         0.0600 
    176 H176        4.0668  -10.3190  -41.3312 H         1 UNK         0.0600 
    177 H177        5.1658  -11.5216  -41.9867 H         1 UNK         0.0600 
    178 H178        4.1359  -10.5959  -43.0723 H         1 UNK         0.0600 
    179 H179        1.7559  -10.5721  -42.4230 H         1 UNK         0.3000 
    180 H180       -1.4696  -12.0368  -42.3680 H         1 UNK         0.0600 
    181 H181       -0.3791   -9.7412  -40.6558 H         1 UNK         0.0600 
    182 H182       -1.2320  -11.1515  -40.0393 H         1 UNK         0.0600 
    183 H183       -2.0696  -10.0133  -41.0813 H         1 UNK         0.0600 
    184 H184       -0.7869   -9.4539  -43.1322 H         1 UNK         0.3000 
    185 H185       -1.0347   -9.1307  -45.5835 H         1 UNK         0.0600 
    186 H186        2.0147   -9.2091  -45.1880 H         1 UNK         0.0600 
    187 H187        1.1238   -7.8992  -45.9602 H         1 UNK         0.0600 
    188 H188        0.8877   -8.2309  -44.2553 H         1 UNK         0.0600 
    189 H189        1.0472   -9.9457  -47.3467 H         1 UNK         0.3000 
    190 H190       -2.8356  -22.5591  -45.0121 H         1 UNK         0.3000 
    191 H191       -5.7361  -23.2275  -44.6966 H         1 UNK         0.0600 
    192 H192       -4.7330  -21.9792  -42.7858 H         1 UNK         0.0600 
    193 H193       -3.4984  -23.2219  -42.6031 H         1 UNK         0.0600 
    194 H194       -5.1887  -23.6141  -42.3324 H         1 UNK         0.0600 
    195 H195       -2.3898  -24.5356  -44.4708 H         1 UNK         0.3000 
    196 H196       -3.0922  -27.2497  -44.1649 H         1 UNK         0.0600 
    197 H197       -0.6765  -27.6345  -44.6778 H         1 UNK         0.0600 
    198 H198       -0.8833  -26.2991  -43.5537 H         1 UNK         0.0600 
    199 H199       -0.5227  -25.9764  -45.2480 H         1 UNK         0.0600 
    200 H200       -2.3754  -25.3710  -47.1316 H         1 UNK         0.3000 
    201 H201       -3.3809  -27.6077  -48.8386 H         1 UNK         0.0600 
    202 H202       -0.8939  -27.4013  -49.0177 H         1 UNK         0.0600 
    203 H203       -1.0528  -25.6923  -49.4070 H         1 UNK         0.0600 
    204 H204       -1.6834  -26.9138  -50.5068 H         1 UNK         0.0600 
    205 H205       -5.1613  -25.9538  -47.7717 H         1 UNK         0.3000 
    206 H206       -5.6902  -23.4962  -49.0093 H         1 UNK         0.0600 
    207 H207       -6.8062  -24.3032  -46.9270 H         1 UNK         0.0600 
    208 H208       -8.0009  -23.8414  -48.1266 H         1 UNK         0.0600 
    209 H209       -7.6585  -25.5445  -47.8402 H         1 UNK         0.0600 
    210 H210       -6.6240  -26.7747  -50.0373 H         1 UNK         0.3000 
    211 H211       -8.3520  -26.0383  -52.1769 H         1 UNK         0.0600 
    212 H212       -6.7431  -28.6063  -51.7016 H         1 UNK         0.0600 
    213 H213       -8.0781  -28.4345  -52.8347 H         1 UNK         0.0600 
    214 H214       -8.3732  -28.2797  -51.1107 H         1 UNK         0.0600 
    215 H215       -4.8586  -26.1755  -51.9759 H         1 UNK         0.3000 
    216 H216       -4.4807  -25.9831  -54.9189 H         1 UNK         0.0600 
    217 H217       -2.0996  -26.2998  -54.3527 H         1 UNK         0.0600 
    218 H218       -3.0429  -27.5619  -53.5781 H         1 UNK         0.0600 
    219 H219       -2.4478  -26.1959  -52.6336 H         1 UNK         0.0600 
    220 H220       -5.1994  -23.9066  -52.4041 H         1 UNK         0.3000 
    221 H221       -4.8965  -21.7997  -51.8161 H         1 UNK         0.0600 
    222 H222       -4.1383  -21.2125  -54.7278 H         1 UNK         0.0600 
    223 H223       -5.7932  -21.4168  -54.1563 H         1 UNK         0.0600 
    224 H224       -4.8169  -20.1000  -53.5388 H         1 UNK         0.0600 
    225 H225       -2.9620  -23.3007  -50.9790 H         1 UNK         0.3000 
    226 H226       -0.9876  -23.3930  -50.0225 H         1 UNK         0.0600 
    227 H227       -1.2021  -20.9404  -49.5185 H         1 UNK         0.0600 
    228 H228        0.4678  -21.4063  -49.7706 H         1 UNK         0.0600 
    229 H229       -0.3949  -20.5553  -51.0311 H         1 UNK         0.0600 
    230 H230       -1.4322  -23.5667  -53.1834 H         1 UNK         0.3000 
    231 H231       -0.4086  -24.1150  -55.0455 H         1 UNK         0.0600 
    232 H232        0.7733  -25.9205  -53.7516 H         1 UNK         0.0600 
    233 H233        2.1212  -24.8180  -53.4706 H         1 UNK         0.0600 
    234 H234        1.7167  -25.3184  -55.1045 H         1 UNK         0.0600 
    235 H235       -0.3179  -21.4124  -53.7911 H         1 UNK         0.3000 
    236 H236        2.0631  -20.1728  -55.1047 H         1 UNK         0.0600 
    237 H237        1.6867  -18.3332  -53.5017 H         1 UNK         0.0600 
    238 H238        0.2654  -19.1337  -52.8467 H         1 UNK         0.0600 
    239 H239        1.8612  -19.8504  -52.6308 H         1 UNK         0.0600 
    240 H240       -1.4738  -19.6889  -54.4855 H         1 UNK         0.3000 
    241 H241       -1.5750  -17.6637  -56.6201 H         1 UNK         0.0600 
    242 H242       -2.9591  -21.1153  -58.1217 H         1 UNK         0.3800 
    243 H243       -1.9250  -21.0607  -56.7176 H         1 UNK         0.3800 
    244 H244       -3.7840  -17.1077  -55.8367 H         1 UNK         0.0800 
    245 H245       -3.8709  -18.5292  -54.8423 H         1 UNK         0.0800 
    246 H246       -3.2107  -18.6078  -52.4308 H         1 UNK         0.0800 
    247 H247       -4.4671  -17.4084  -52.6199 H         1 UNK         0.0800 
@<TRIPOS>BOND
     1    1    2 1    
     2    1  127 1    
     3    1  128 1    
     4    1  129 1    
     5    2    3 2    
     6    2    4 am   BACKBONE|DICT|INTERRES
     7    4    5 1    
     8    4  130 1    
     9    5    6 1    
    10    5   65 1    
    11    5  131 1    
    12    6    7 1    
    13    6  132 1    
    14    6  133 1    
    15    7    8 1    
    16    8    9 1    
    17    8  134 1    
    18    8  135 1    
    19    9   10 ar   
    20    9   14 ar   
    21   10   11 ar   
    22   10  136 1    
    23   11   12 ar   
    24   11  126 1    
    25   12   13 ar   
    26   12  137 1    
    27   13   14 ar   
    28   13   15 1    
    29   14  138 1    
    30   15   16 1    
    31   15  139 1    
    32   15  140 1    
    33   16   17 1    
    34   17   18 1    
    35   17  141 1    
    36   17  142 1    
    37   18   19 1    
    38   18   67 1    
    39   18  143 1    
    40   19   20 am   BACKBONE|DICT|INTERRES
    41   19  144 1    
    42   20   21 2    
    43   20   22 1    
    44   22   23 1    
    45   22   24 1    
    46   22  145 1    
    47   23  146 1    
    48   23  147 1    
    49   23  148 1    
    50   24   25 am   BACKBONE|DICT|INTERRES
    51   24  149 1    
    52   25   26 2    
    53   25   27 1    
    54   27   28 1    
    55   27   29 1    
    56   27  150 1    
    57   28  151 1    
    58   28  152 1    
    59   28  153 1    
    60   29   30 am   BACKBONE|DICT|INTERRES
    61   29  154 1    
    62   30   31 2    
    63   30   32 1    
    64   32   33 1    
    65   32   34 1    
    66   32  155 1    
    67   33  156 1    
    68   33  157 1    
    69   33  158 1    
    70   34   35 am   BACKBONE|DICT|INTERRES
    71   34  159 1    
    72   35   36 2    
    73   35   37 1    
    74   37   38 1    
    75   37   39 1    
    76   37  160 1    
    77   38  161 1    
    78   38  162 1    
    79   38  163 1    
    80   39   40 am   BACKBONE|DICT|INTERRES
    81   39  164 1    
    82   40   41 2    
    83   40   42 1    
    84   42   43 1    
    85   42   44 1    
    86   42  165 1    
    87   43  166 1    
    88   43  167 1    
    89   43  168 1    
    90   44   45 am   BACKBONE|DICT|INTERRES
    91   44  169 1    
    92   45   46 2    
    93   45   47 1    
    94   47   48 1    
    95   47   49 1    
    96   47  170 1    
    97   48  171 1    
    98   48  172 1    
    99   48  173 1    
   100   49   50 am   BACKBONE|DICT|INTERRES
   101   49  174 1    
   102   50   51 2    
   103   50   52 1    
   104   52   53 1    
   105   52   54 1    
   106   52  175 1    
   107   53  176 1    
   108   53  177 1    
   109   53  178 1    
   110   54   55 am   BACKBONE|DICT|INTERRES
   111   54  179 1    
   112   55   56 2    
   113   55   57 1    
   114   57   58 1    
   115   57   59 1    
   116   57  180 1    
   117   58  181 1    
   118   58  182 1    
   119   58  183 1    
   120   59   60 am   BACKBONE|DICT|INTERRES
   121   59  184 1    
   122   60   61 2    
   123   60   62 1    
   124   62   63 1    
   125   62   64 1    
   126   62  185 1    
   127   63  186 1    
   128   63  187 1    
   129   63  188 1    
   130   64   65 am   BACKBONE|DICT|INTERRES
   131   64  189 1    
   132   65   66 2    
   133   67   68 2    
   134   67   69 am   BACKBONE|DICT|INTERRES
   135   69   70 1    
   136   69  190 1    
   137   70   71 1    
   138   70   72 1    
   139   70  191 1    
   140   71  192 1    
   141   71  193 1    
   142   71  194 1    
   143   72   73 2    
   144   72   74 am   BACKBONE|DICT|INTERRES
   145   74   75 1    
   146   74  195 1    
   147   75   76 1    
   148   75   77 1    
   149   75  196 1    
   150   76  197 1    
   151   76  198 1    
   152   76  199 1    
   153   77   78 2    
   154   77   79 am   BACKBONE|DICT|INTERRES
   155   79   80 1    
   156   79  200 1    
   157   80   81 1    
   158   80   82 1    
   159   80  201 1    
   160   81  202 1    
   161   81  203 1    
   162   81  204 1    
   163   82   83 2    
   164   82   84 am   BACKBONE|DICT|INTERRES
   165   84   85 1    
   166   84  205 1    
   167   85   86 1    
   168   85   87 1    
   169   85  206 1    
   170   86  207 1    
   171   86  208 1    
   172   86  209 1    
   173   87   88 2    
   174   87   89 am   BACKBONE|DICT|INTERRES
   175   89   90 1    
   176   89  210 1    
   177   90   91 1    
   178   90   92 1    
   179   90  211 1    
   180   91  212 1    
   181   91  213 1    
   182   91  214 1    
   183   92   93 2    
   184   92   94 am   BACKBONE|DICT|INTERRES
   185   94   95 1    
   186   94  215 1    
   187   95   96 1    
   188   95   97 1    
   189   95  216 1    
   190   96  217 1    
   191   96  218 1    
   192   96  219 1    
   193   97   98 2    
   194   97   99 am   BACKBONE|DICT|INTERRES
   195   99  100 1    
   196   99  220 1    
   197  100  101 1    
   198  100  102 1    
   199  100  221 1    
   200  101  222 1    
   201  101  223 1    
   202  101  224 1    
   203  102  103 2    
   204  102  104 am   BACKBONE|DICT|INTERRES
   205  104  105 1    
   206  104  225 1    
   207  105  106 1    
   208  105  107 1    
   209  105  226 1    
   210  106  227 1    
   211  106  228 1    
   212  106  229 1    
   213  107  108 2    
   214  107  109 am   BACKBONE|DICT|INTERRES
   215  109  110 1    
   216  109  230 1    
   217  110  111 1    
   218  110  112 1    
   219  110  231 1    
   220  111  232 1    
   221  111  233 1    
   222  111  234 1    
   223  112  113 2    
   224  112  114 am   BACKBONE|DICT|INTERRES
   225  114  115 1    
   226  114  235 1    
   227  115  116 1    
   228  115  117 1    
   229  115  236 1    
   230  116  237 1    
   231  116  238 1    
   232  116  239 1    
   233  117  118 2    
   234  117  119 am   BACKBONE|DICT|INTERRES
   235  119  120 1    
   236  119  240 1    
   237  120  121 1    
   238  120  124 1    
   239  120  241 1    
   240  121  122 am   BACKBONE|DICT|INTERRES
   241  121  123 2    
   242  122  242 1    
   243  122  243 1    
   244  124  125 1    
   245  124  244 1    
   246  124  245 1    
   247  125  126 1    
   248  126  246 1    
   249  126  247 1    
@<TRIPOS>SUBSTRUCTURE
     1 UNK         1 GROUP             0       ****    0 ROOT    
