@<TRIPOS>MOLECULE
3R540
247   249    1
SMALL
USER_CHARGES


@<TRIPOS>ATOM
      1 CA          1.3271  -11.7292  -52.3636 C.3       0 UNK        -0.1800 
      2 C           1.9051  -12.7154  -51.3585 C.2       0 UNK         0.5000 
      3 O           3.1188  -12.9182  -51.3308 O.2       0 UNK        -0.5000 
      4 N           1.0397  -13.3289  -50.5397 N.am      1 UNK        -0.5000 
      5 CA          1.4042  -14.2761  -49.4772 C.3       1 UNK         0.1400 
      6 C6          0.1564  -15.0371  -48.9637 C.3       23 UNK        -0.0398 
      7 S7          0.5335  -16.6959  -48.2978 S.3       23 UNK        -0.2404 
      8 C8         -0.3908  -17.8250  -49.3995 C.3       23 UNK        -0.0205 
      9 C9         -1.8559  -17.4401  -49.5719 C.ar      23 UNK        -0.0193 
     10 C10        -2.3596  -17.1628  -50.8467 C.ar      23 UNK        -0.1150 
     11 C11        -3.6871  -16.7584  -51.0171 C.ar      23 UNK        -0.0193 
     12 C12        -4.5185  -16.6539  -49.8983 C.ar      23 UNK        -0.1150 
     13 C13        -4.0333  -16.9416  -48.6188 C.ar      23 UNK        -0.0193 
     14 C14        -2.7004  -17.3356  -48.4629 C.ar      23 UNK        -0.1150 
     15 C15        -4.9411  -16.7760  -47.4086 C.3       23 UNK        -0.0205 
     16 S16        -5.6110  -18.3646  -46.8204 S.3       23 UNK        -0.2404 
     17 C17        -4.2622  -18.9605  -45.7468 C.3       23 UNK        -0.0398 
     18 CA         -3.5756  -20.2374  -46.2963 C.3       11 UNK         0.1400 
     19 N          -2.1560  -20.3026  -45.9405 N.am      11 UNK        -0.5000 
     20 C          -1.2853  -21.2261  -46.3710 C.2       10 UNK         0.5000 
     21 O          -1.5665  -22.1037  -47.1851 O.2       10 UNK        -0.5000 
     22 CA          0.1228  -21.2026  -45.7465 C.3       10 UNK         0.1400 
     23 CB          1.0455  -20.2393  -46.5059 C.3       10 UNK        -0.1800 
     24 N           0.1070  -20.8547  -44.3236 N.am      10 UNK        -0.5000 
     25 C          -0.4820  -21.5895  -43.3688 C.2       9 UNK         0.5000 
     26 O          -1.0275  -22.6714  -43.5831 O.2       9 UNK        -0.5000 
     27 CA         -0.5221  -20.9933  -41.9491 C.3       9 UNK         0.1400 
     28 CB          0.8172  -21.1971  -41.2264 C.3       9 UNK        -0.1800 
     29 N          -0.8782  -19.5733  -41.9476 N.am      9 UNK        -0.5000 
     30 C          -2.0568  -19.0890  -42.3667 C.2       8 UNK         0.5000 
     31 O          -2.9933  -19.7980  -42.7382 O.2       8 UNK        -0.5000 
     32 CA         -2.1878  -17.5553  -42.4462 C.3       8 UNK         0.1400 
     33 CB         -2.5034  -16.9529  -41.0695 C.3       8 UNK        -0.1800 
     34 N          -0.9908  -16.9208  -43.0028 N.am      8 UNK        -0.5000 
     35 C          -0.5343  -17.1334  -44.2448 C.2       7 UNK         0.5000 
     36 O          -1.1170  -17.8303  -45.0704 O.2       7 UNK        -0.5000 
     37 CA          0.8252  -16.5212  -44.6112 C.3       7 UNK         0.1400 
     38 CB          0.6715  -15.0677  -45.0760 C.3       7 UNK        -0.1800 
     39 N           1.7852  -16.6209  -43.5123 N.am      7 UNK        -0.5000 
     40 C           2.3206  -17.7790  -43.0982 C.2       6 UNK         0.5000 
     41 O           2.1268  -18.8564  -43.6588 O.2       6 UNK        -0.5000 
     42 CA          3.1612  -17.7442  -41.8105 C.3       6 UNK         0.1400 
     43 CB          4.6472  -17.5182  -42.1207 C.3       6 UNK        -0.1800 
     44 N           2.6802  -16.7260  -40.8764 N.am      6 UNK        -0.5000 
     45 C           1.5591  -16.8607  -40.1534 C.2       5 UNK         0.5000 
     46 O           0.8593  -17.8737  -40.1726 O.2       5 UNK        -0.5000 
     47 CA          1.1186  -15.6546  -39.3020 C.3       5 UNK         0.1400 
     48 CB          1.7501  -15.7235  -37.9040 C.3       5 UNK        -0.1800 
     49 N           1.4365  -14.3618  -39.9119 N.am      5 UNK        -0.5000 
     50 C           0.9247  -13.9110  -41.0655 C.2       4 UNK         0.5000 
     51 O           0.1110  -14.5485  -41.7339 O.2       4 UNK        -0.5000 
     52 CA          1.4138  -12.5369  -41.5774 C.3       4 UNK         0.1400 
     53 CB          2.1591  -11.7075  -40.5086 C.3       4 UNK        -0.1800 
     54 N           2.2386  -12.6286  -42.7896 N.am      4 UNK        -0.5000 
     55 C           3.3161  -13.3988  -42.9911 C.2       3 UNK         0.5000 
     56 O           3.7005  -14.2362  -42.1731 O.2       3 UNK        -0.5000 
     57 CA          4.1142  -13.2048  -44.3051 C.3       3 UNK         0.1400 
     58 CB          4.9197  -14.4614  -44.6808 C.3       3 UNK        -0.1800 
     59 N           3.3506  -12.7917  -45.4885 N.am      3 UNK        -0.5000 
     60 C           2.7939  -11.6018  -45.7273 C.2       2 UNK         0.5000 
     61 O           2.6839  -10.7272  -44.8679 O.2       2 UNK        -0.5000 
     62 CA          2.3023  -11.3019  -47.1609 C.3       2 UNK         0.1400 
     63 CB          3.4403  -10.6647  -47.9799 C.3       2 UNK        -0.1800 
     64 N           1.6815  -12.3889  -47.9372 N.am      2 UNK        -0.5000 
     65 C           2.1859  -13.5660  -48.3455 C.2       1 UNK         0.5000 
     66 O           3.2389  -14.0517  -47.9319 O.2       1 UNK        -0.5000 
     67 C          -4.3369  -21.5048  -45.8587 C.2       11 UNK         0.5000 
     68 O          -5.0929  -22.0710  -46.6488 O.2       11 UNK        -0.5000 
     69 N          -4.1021  -21.9306  -44.6091 N.am      12 UNK        -0.5000 
     70 CA         -4.6836  -23.1352  -44.0199 C.3       12 UNK         0.1400 
     71 CB         -4.4359  -23.1291  -42.5035 C.3       12 UNK        -0.1800 
     72 C          -4.1508  -24.4303  -44.6605 C.2       12 UNK         0.5000 
     73 O          -4.9302  -25.3568  -44.8869 O.2       12 UNK        -0.5000 
     74 N          -2.8407  -24.4720  -44.9401 N.am      13 UNK        -0.5000 
     75 CA         -2.1638  -25.6002  -45.5794 C.3       13 UNK         0.1400 
     76 CB         -0.6430  -25.4267  -45.4442 C.3       13 UNK        -0.1800 
     77 C          -2.5572  -25.7778  -47.0570 C.2       13 UNK         0.5000 
     78 O          -2.8004  -26.9075  -47.4842 O.2       13 UNK        -0.5000 
     79 N          -2.6096  -24.6609  -47.7979 N.am      14 UNK        -0.5000 
     80 CA         -2.8518  -24.5619  -49.2373 C.3       14 UNK         0.1400 
     81 CB         -4.3256  -24.8790  -49.5705 C.3       14 UNK        -0.1800 
     82 C          -1.8131  -25.3688  -50.0455 C.2       14 UNK         0.5000 
     83 O          -0.6150  -25.2001  -49.8066 O.2       14 UNK        -0.5000 
     84 N          -2.2725  -26.2065  -50.9878 N.am      15 UNK        -0.5000 
     85 CA         -1.4751  -27.0805  -51.8551 C.3       15 UNK         0.1400 
     86 CB         -0.8921  -28.2550  -51.0370 C.3       15 UNK        -0.1800 
     87 C          -0.4202  -26.2810  -52.6473 C.2       15 UNK         0.5000 
     88 O          -0.7956  -25.5026  -53.5250 O.2       15 UNK        -0.5000 
     89 N           0.8626  -26.4382  -52.2932 N.am      16 UNK        -0.5000 
     90 CA          2.0062  -25.7282  -52.8714 C.3       16 UNK         0.1400 
     91 CB          3.2998  -26.3045  -52.2757 C.3       16 UNK        -0.1800 
     92 C           1.9655  -24.1961  -52.6901 C.2       16 UNK         0.5000 
     93 O           2.5798  -23.4852  -53.4863 O.2       16 UNK        -0.5000 
     94 N           1.2337  -23.7071  -51.6767 N.am      17 UNK        -0.5000 
     95 CA          0.9891  -22.2786  -51.4565 C.3       17 UNK         0.1400 
     96 CB          0.5408  -22.0584  -50.0037 C.3       17 UNK        -0.1800 
     97 C          -0.0482  -21.6820  -52.4309 C.2       17 UNK         0.5000 
     98 O          -0.1502  -20.4586  -52.5155 O.2       17 UNK        -0.5000 
     99 N          -0.8118  -22.5457  -53.1219 N.am      18 UNK        -0.5000 
    100 CA        -1.8522  -22.2448  -54.1148 C.3       18 UNK         0.1400 
    101 CB        -1.2562  -21.5141  -55.3350 C.3       18 UNK        -0.1800 
    102 C         -3.0898  -21.5126  -53.5553 C.2       18 UNK         0.5000 
    103 O         -3.9383  -21.0804  -54.3369 O.2       18 UNK        -0.5000 
    104 N         -3.2058  -21.4165  -52.2230 N.am      19 UNK        -0.5000 
    105 CA        -4.2319  -20.6526  -51.5042 C.3       19 UNK         0.1400 
    106 CB        -3.8740  -20.6171  -50.0143 C.3       19 UNK        -0.1800 
    107 C         -5.6780  -21.1539  -51.6992 C.2       19 UNK         0.5000 
    108 O         -6.6217  -20.4299  -51.3831 O.2       19 UNK        -0.5000 
    109 N         -5.8322  -22.3753  -52.2264 N.am      20 UNK        -0.5000 
    110 CA        -7.1141  -22.9517  -52.6288 C.3       20 UNK         0.1400 
    111 CB        -6.9404  -24.4689  -52.8031 C.3       20 UNK        -0.1800 
    112 C         -7.6874  -22.3234  -53.9171 C.2       20 UNK         0.5000 
    113 O         -8.8887  -22.4557  -54.1558 O.2       20 UNK        -0.5000 
    114 N         -6.8354  -21.6756  -54.7254 N.am      21 UNK        -0.5000 
    115 CA        -7.1991  -21.0671  -56.0051 C.3       21 UNK         0.1400 
    116 CB        -6.5176  -21.8451  -57.1429 C.3       21 UNK        -0.1800 
    117 C         -6.8166  -19.5800  -56.0637 C.2       21 UNK         0.5000 
    118 O         -7.6216  -18.7731  -56.5302 O.2       21 UNK        -0.5000 
    119 N         -5.6013  -19.2454  -55.6072 N.am      22 UNK        -0.5000 
    120 CA        -4.9963  -17.8995  -55.6344 C.3       22 UNK         0.1400 
    121 C         -4.7388  -17.3255  -57.0638 C.2       22 UNK         0.5000 
    122 N         -4.6860  -18.1472  -58.1054 N.am      22 UNK        -0.7600 
    123 O         -4.5483  -16.1244  -57.2356 O.2       22 UNK        -0.5000 
    124 C124       -5.7136  -16.8891  -54.6940 C.3       23 UNK        -0.0398 
    125 S125       -5.6053  -17.3935  -52.9446 S.3       23 UNK        -0.2404 
    126 C126       -4.1984  -16.3741  -52.3996 C.3       23 UNK        -0.0205 
    127 H127        1.7468  -10.7369  -52.1984 H         1 UNK         0.0600 
    128 H128        0.2421  -11.6568  -52.2843 H         1 UNK         0.0600 
    129 H129        1.5734  -12.0401  -53.3789 H         1 UNK         0.0600 
    130 H130        0.0554  -13.1205  -50.6283 H         1 UNK         0.3000 
    131 H131        2.0801  -15.0046  -49.9309 H         1 UNK         0.0600 
    132 H132       -0.5497  -15.1557  -49.7848 H         1 UNK         0.0800 
    133 H133       -0.3818  -14.4648  -48.2068 H         1 UNK         0.0800 
    134 H134       -0.3439  -18.8321  -48.9850 H         1 UNK         0.0800 
    135 H135        0.1160  -17.8660  -50.3650 H         1 UNK         0.0800 
    136 H136       -1.7077  -17.2367  -51.7060 H         1 UNK         0.1150 
    137 H137       -5.5428  -16.3329  -50.0262 H         1 UNK         0.1150 
    138 H138       -2.3062  -17.5398  -47.4781 H         1 UNK         0.1150 
    139 H139       -4.4080  -16.2643  -46.6061 H         1 UNK         0.0800 
    140 H140       -5.7808  -16.1275  -47.6630 H         1 UNK         0.0800 
    141 H141       -4.6600  -19.1132  -44.7421 H         1 UNK         0.0800 
    142 H142       -3.5386  -18.1568  -45.6360 H         1 UNK         0.0800 
    143 H143       -3.5977  -20.1977  -47.3834 H         1 UNK         0.0600 
    144 H144       -1.8062  -19.5611  -45.3397 H         1 UNK         0.3000 
    145 H145        0.5407  -22.2070  -45.8355 H         1 UNK         0.0600 
    146 H146        2.0534  -20.2469  -46.0911 H         1 UNK         0.0600 
    147 H147        0.6764  -19.2154  -46.4705 H         1 UNK         0.0600 
    148 H148        1.1263  -20.5203  -47.5550 H         1 UNK         0.0600 
    149 H149        0.5895  -20.0006  -44.0607 H         1 UNK         0.3000 
    150 H150       -1.2919  -21.5273  -41.3881 H         1 UNK         0.0600 
    151 H151        1.0691  -22.2566  -41.1669 H         1 UNK         0.0600 
    152 H152        0.7779  -20.8136  -40.2067 H         1 UNK         0.0600 
    153 H153        1.6358  -20.6953  -41.7413 H         1 UNK         0.0600 
    154 H154       -0.1783  -18.9252  -41.6029 H         1 UNK         0.3000 
    155 H155       -3.0223  -17.3283  -43.1128 H         1 UNK         0.0600 
    156 H156       -3.4290  -17.3666  -40.6677 H         1 UNK         0.0600 
    157 H157       -2.6289  -15.8717  -41.1316 H         1 UNK         0.0600 
    158 H158       -1.7139  -17.1567  -40.3469 H         1 UNK         0.0600 
    159 H159       -0.4912  -16.2676  -42.4067 H         1 UNK         0.3000 
    160 H160        1.2217  -17.0939  -45.4511 H         1 UNK         0.0600 
    161 H161        0.4410  -14.3875  -44.2587 H         1 UNK         0.0600 
    162 H162       -0.1301  -14.9740  -45.8089 H         1 UNK         0.0600 
    163 H163        1.5848  -14.7288  -45.5573 H         1 UNK         0.0600 
    164 H164        1.9588  -15.7866  -42.9699 H         1 UNK         0.3000 
    165 H165        3.0715  -18.7211  -41.3308 H         1 UNK         0.0600 
    166 H166        5.2470  -17.5366  -41.2107 H         1 UNK         0.0600 
    167 H167        5.0295  -18.2993  -42.7789 H         1 UNK         0.0600 
    168 H168        4.8181  -16.5638  -42.6148 H         1 UNK         0.0600 
    169 H169        3.1673  -15.8365  -40.8808 H         1 UNK         0.3000 
    170 H170        0.0341  -15.7113  -39.1886 H         1 UNK         0.0600 
    171 H171        2.8369  -15.6423  -37.9485 H         1 UNK         0.0600 
    172 H172        1.3787  -14.9236  -37.2631 H         1 UNK         0.0600 
    173 H173        1.5111  -16.6683  -37.4139 H         1 UNK         0.0600 
    174 H174        2.1191  -13.7910  -39.4350 H         1 UNK         0.3000 
    175 H175        0.5159  -11.9839  -41.8564 H         1 UNK         0.0600 
    176 H176        3.1063  -12.1642  -40.2188 H         1 UNK         0.0600 
    177 H177        2.3804  -10.7073  -40.8815 H         1 UNK         0.0600 
    178 H178        1.5546  -11.5845  -39.6089 H         1 UNK         0.0600 
    179 H179        2.0360  -11.9465  -43.5134 H         1 UNK         0.3000 
    180 H180        4.8332  -12.4099  -44.0982 H         1 UNK         0.0600 
    181 H181        5.4998  -14.3023  -45.5900 H         1 UNK         0.0600 
    182 H182        4.2667  -15.3193  -44.8474 H         1 UNK         0.0600 
    183 H183        5.6285  -14.7266  -43.8958 H         1 UNK         0.0600 
    184 H184        3.3857  -13.4291  -46.2826 H         1 UNK         0.3000 
    185 H185        1.5214  -10.5473  -47.0544 H         1 UNK         0.0600 
    186 H186        3.0828  -10.3210  -48.9507 H         1 UNK         0.0600 
    187 H187        3.8603   -9.7999  -47.4643 H         1 UNK         0.0600 
    188 H188        4.2546  -11.3689  -48.1545 H         1 UNK         0.0600 
    189 H189        0.7909  -12.1322  -48.3386 H         1 UNK         0.3000 
    190 H190       -3.4858  -21.3841  -44.0167 H         1 UNK         0.3000 
    191 H191       -5.7624  -23.1023  -44.1857 H         1 UNK         0.0600 
    192 H192       -4.8677  -22.2431  -42.0375 H         1 UNK         0.0600 
    193 H193       -3.3716  -23.1443  -42.2673 H         1 UNK         0.0600 
    194 H194       -4.8899  -24.0007  -42.0306 H         1 UNK         0.0600 
    195 H195       -2.2565  -23.6911  -44.6542 H         1 UNK         0.3000 
    196 H196       -2.4478  -26.5100  -45.0462 H         1 UNK         0.0600 
    197 H197       -0.3436  -25.3699  -44.3975 H         1 UNK         0.0600 
    198 H198       -0.2966  -24.5201  -45.9411 H         1 UNK         0.0600 
    199 H199       -0.1126  -26.2687  -45.8906 H         1 UNK         0.0600 
    200 H200       -2.3300  -23.7849  -47.3619 H         1 UNK         0.3000 
    201 H201       -2.6751  -23.5184  -49.4957 H         1 UNK         0.0600 
    202 H202       -4.9968  -24.2467  -48.9883 H         1 UNK         0.0600 
    203 H203       -4.5822  -25.9168  -49.3554 H         1 UNK         0.0600 
    204 H204       -4.5426  -24.6872  -50.6212 H         1 UNK         0.0600 
    205 H205       -3.2720  -26.2635  -51.1197 H         1 UNK         0.3000 
    206 H206       -2.1587  -27.5001  -52.5945 H         1 UNK         0.0600 
    207 H207       -0.2392  -27.9176  -50.2313 H         1 UNK         0.0600 
    208 H208       -1.6906  -28.8417  -50.5825 H         1 UNK         0.0600 
    209 H209       -0.3196  -28.9326  -51.6718 H         1 UNK         0.0600 
    210 H210        1.0671  -27.0662  -51.5295 H         1 UNK         0.3000 
    211 H211        2.0064  -25.9258  -53.9452 H         1 UNK         0.0600 
    212 H212        3.3424  -26.1615  -51.1952 H         1 UNK         0.0600 
    213 H213        4.1783  -25.8214  -52.7058 H         1 UNK         0.0600 
    214 H214        3.3870  -27.3722  -52.4780 H         1 UNK         0.0600 
    215 H215        0.7551  -24.3522  -51.0549 H         1 UNK         0.3000 
    216 H216        1.9263  -21.7381  -51.6047 H         1 UNK         0.0600 
    217 H217        0.4331  -20.9950  -49.7912 H         1 UNK         0.0600 
    218 H218        1.2665  -22.4613  -49.2971 H         1 UNK         0.0600 
    219 H219       -0.4215  -22.5259  -49.7985 H         1 UNK         0.0600 
    220 H220       -0.6340  -23.5370  -52.9978 H         1 UNK         0.3000 
    221 H221       -2.2163  -23.2125  -54.4622 H         1 UNK         0.0600 
    222 H222       -0.9365  -20.5019  -55.0861 H         1 UNK         0.0600 
    223 H223       -0.3949  -22.0506  -55.7330 H         1 UNK         0.0600 
    224 H224       -1.9872  -21.4344  -56.1406 H         1 UNK         0.0600 
    225 H225       -2.4547  -21.7920  -51.6658 H         1 UNK         0.3000 
    226 H226       -4.1868  -19.6314  -51.8816 H         1 UNK         0.0600 
    227 H227       -2.8518  -20.2736  -49.8539 H         1 UNK         0.0600 
    228 H228       -4.5334  -19.9262  -49.4874 H         1 UNK         0.0600 
    229 H229       -3.9840  -21.5943  -49.5445 H         1 UNK         0.0600 
    230 H230       -5.0031  -22.8998  -52.4592 H         1 UNK         0.3000 
    231 H231       -7.8384  -22.7809  -51.8296 H         1 UNK         0.0600 
    232 H232       -7.8775  -24.9375  -53.1068 H         1 UNK         0.0600 
    233 H233       -6.6342  -24.9413  -51.8700 H         1 UNK         0.0600 
    234 H234       -6.1947  -24.7049  -53.5632 H         1 UNK         0.0600 
    235 H235       -5.8672  -21.5789  -54.4397 H         1 UNK         0.3000 
    236 H236       -8.2782  -21.1215  -56.1630 H         1 UNK         0.0600 
    237 H237       -5.4321  -21.8498  -57.0356 H         1 UNK         0.0600 
    238 H238       -6.8546  -22.8816  -57.1645 H         1 UNK         0.0600 
    239 H239       -6.7529  -21.4069  -58.1137 H         1 UNK         0.0600 
    240 H240       -4.9984  -19.9715  -55.2259 H         1 UNK         0.3000 
    241 H241       -3.9910  -18.0398  -55.2354 H         1 UNK         0.0600 
    242 H242       -4.5084  -17.7724  -59.0243 H         1 UNK         0.3800 
    243 H243       -4.8213  -19.1377  -57.9847 H         1 UNK         0.3800 
    244 H244       -6.7645  -16.7867  -54.9656 H         1 UNK         0.0800 
    245 H245       -5.2864  -15.8895  -54.7871 H         1 UNK         0.0800 
    246 H246       -3.3966  -16.4576  -53.1350 H         1 UNK         0.0800 
    247 H247       -4.4991  -15.3256  -52.3875 H         1 UNK         0.0800 
@<TRIPOS>BOND
     1    1    2 1    
     2    1  127 1    
     3    1  128 1    
     4    1  129 1    
     5    2    3 2    
     6    2    4 am   BACKBONE|DICT|INTERRES
     7    4    5 1    
     8    4  130 1    
     9    5    6 1    
    10    5   65 1    
    11    5  131 1    
    12    6    7 1    
    13    6  132 1    
    14    6  133 1    
    15    7    8 1    
    16    8    9 1    
    17    8  134 1    
    18    8  135 1    
    19    9   10 ar   
    20    9   14 ar   
    21   10   11 ar   
    22   10  136 1    
    23   11   12 ar   
    24   11  126 1    
    25   12   13 ar   
    26   12  137 1    
    27   13   14 ar   
    28   13   15 1    
    29   14  138 1    
    30   15   16 1    
    31   15  139 1    
    32   15  140 1    
    33   16   17 1    
    34   17   18 1    
    35   17  141 1    
    36   17  142 1    
    37   18   19 1    
    38   18   67 1    
    39   18  143 1    
    40   19   20 am   BACKBONE|DICT|INTERRES
    41   19  144 1    
    42   20   21 2    
    43   20   22 1    
    44   22   23 1    
    45   22   24 1    
    46   22  145 1    
    47   23  146 1    
    48   23  147 1    
    49   23  148 1    
    50   24   25 am   BACKBONE|DICT|INTERRES
    51   24  149 1    
    52   25   26 2    
    53   25   27 1    
    54   27   28 1    
    55   27   29 1    
    56   27  150 1    
    57   28  151 1    
    58   28  152 1    
    59   28  153 1    
    60   29   30 am   BACKBONE|DICT|INTERRES
    61   29  154 1    
    62   30   31 2    
    63   30   32 1    
    64   32   33 1    
    65   32   34 1    
    66   32  155 1    
    67   33  156 1    
    68   33  157 1    
    69   33  158 1    
    70   34   35 am   BACKBONE|DICT|INTERRES
    71   34  159 1    
    72   35   36 2    
    73   35   37 1    
    74   37   38 1    
    75   37   39 1    
    76   37  160 1    
    77   38  161 1    
    78   38  162 1    
    79   38  163 1    
    80   39   40 am   BACKBONE|DICT|INTERRES
    81   39  164 1    
    82   40   41 2    
    83   40   42 1    
    84   42   43 1    
    85   42   44 1    
    86   42  165 1    
    87   43  166 1    
    88   43  167 1    
    89   43  168 1    
    90   44   45 am   BACKBONE|DICT|INTERRES
    91   44  169 1    
    92   45   46 2    
    93   45   47 1    
    94   47   48 1    
    95   47   49 1    
    96   47  170 1    
    97   48  171 1    
    98   48  172 1    
    99   48  173 1    
   100   49   50 am   BACKBONE|DICT|INTERRES
   101   49  174 1    
   102   50   51 2    
   103   50   52 1    
   104   52   53 1    
   105   52   54 1    
   106   52  175 1    
   107   53  176 1    
   108   53  177 1    
   109   53  178 1    
   110   54   55 am   BACKBONE|DICT|INTERRES
   111   54  179 1    
   112   55   56 2    
   113   55   57 1    
   114   57   58 1    
   115   57   59 1    
   116   57  180 1    
   117   58  181 1    
   118   58  182 1    
   119   58  183 1    
   120   59   60 am   BACKBONE|DICT|INTERRES
   121   59  184 1    
   122   60   61 2    
   123   60   62 1    
   124   62   63 1    
   125   62   64 1    
   126   62  185 1    
   127   63  186 1    
   128   63  187 1    
   129   63  188 1    
   130   64   65 am   BACKBONE|DICT|INTERRES
   131   64  189 1    
   132   65   66 2    
   133   67   68 2    
   134   67   69 am   BACKBONE|DICT|INTERRES
   135   69   70 1    
   136   69  190 1    
   137   70   71 1    
   138   70   72 1    
   139   70  191 1    
   140   71  192 1    
   141   71  193 1    
   142   71  194 1    
   143   72   73 2    
   144   72   74 am   BACKBONE|DICT|INTERRES
   145   74   75 1    
   146   74  195 1    
   147   75   76 1    
   148   75   77 1    
   149   75  196 1    
   150   76  197 1    
   151   76  198 1    
   152   76  199 1    
   153   77   78 2    
   154   77   79 am   BACKBONE|DICT|INTERRES
   155   79   80 1    
   156   79  200 1    
   157   80   81 1    
   158   80   82 1    
   159   80  201 1    
   160   81  202 1    
   161   81  203 1    
   162   81  204 1    
   163   82   83 2    
   164   82   84 am   BACKBONE|DICT|INTERRES
   165   84   85 1    
   166   84  205 1    
   167   85   86 1    
   168   85   87 1    
   169   85  206 1    
   170   86  207 1    
   171   86  208 1    
   172   86  209 1    
   173   87   88 2    
   174   87   89 am   BACKBONE|DICT|INTERRES
   175   89   90 1    
   176   89  210 1    
   177   90   91 1    
   178   90   92 1    
   179   90  211 1    
   180   91  212 1    
   181   91  213 1    
   182   91  214 1    
   183   92   93 2    
   184   92   94 am   BACKBONE|DICT|INTERRES
   185   94   95 1    
   186   94  215 1    
   187   95   96 1    
   188   95   97 1    
   189   95  216 1    
   190   96  217 1    
   191   96  218 1    
   192   96  219 1    
   193   97   98 2    
   194   97   99 am   BACKBONE|DICT|INTERRES
   195   99  100 1    
   196   99  220 1    
   197  100  101 1    
   198  100  102 1    
   199  100  221 1    
   200  101  222 1    
   201  101  223 1    
   202  101  224 1    
   203  102  103 2    
   204  102  104 am   BACKBONE|DICT|INTERRES
   205  104  105 1    
   206  104  225 1    
   207  105  106 1    
   208  105  107 1    
   209  105  226 1    
   210  106  227 1    
   211  106  228 1    
   212  106  229 1    
   213  107  108 2    
   214  107  109 am   BACKBONE|DICT|INTERRES
   215  109  110 1    
   216  109  230 1    
   217  110  111 1    
   218  110  112 1    
   219  110  231 1    
   220  111  232 1    
   221  111  233 1    
   222  111  234 1    
   223  112  113 2    
   224  112  114 am   BACKBONE|DICT|INTERRES
   225  114  115 1    
   226  114  235 1    
   227  115  116 1    
   228  115  117 1    
   229  115  236 1    
   230  116  237 1    
   231  116  238 1    
   232  116  239 1    
   233  117  118 2    
   234  117  119 am   BACKBONE|DICT|INTERRES
   235  119  120 1    
   236  119  240 1    
   237  120  121 1    
   238  120  124 1    
   239  120  241 1    
   240  121  122 am   BACKBONE|DICT|INTERRES
   241  121  123 2    
   242  122  242 1    
   243  122  243 1    
   244  124  125 1    
   245  124  244 1    
   246  124  245 1    
   247  125  126 1    
   248  126  246 1    
   249  126  247 1    
@<TRIPOS>SUBSTRUCTURE
     1 UNK         1 GROUP             0       ****    0 ROOT    
