@<TRIPOS>MOLECULE
3R540
247   249    1
SMALL
USER_CHARGES


@<TRIPOS>ATOM
      1 CA         -1.6598  -12.8157  -47.8299 C.3       0 UNK        -0.1800 
      2 C          -0.2213  -12.7467  -48.3209 C.2       0 UNK         0.5000 
      3 O           0.0306  -12.2100  -49.4005 O.2       0 UNK        -0.5000 
      4 N           0.7219  -13.2779  -47.5332 N.am      1 UNK        -0.5000 
      5 CA          2.1621  -13.1641  -47.7868 C.3       1 UNK         0.1400 
      6 C6          2.9842  -14.3242  -47.1575 C.3       23 UNK        -0.0398 
      7 S7          2.3218  -15.9879  -47.4806 S.3       23 UNK        -0.2404 
      8 C8          2.7381  -16.2656  -49.2249 C.3       23 UNK        -0.0205 
      9 C9          1.7139  -17.1915  -49.8604 C.ar      23 UNK        -0.0193 
     10 C10         0.5594  -16.6577  -50.4365 C.ar      23 UNK        -0.1150 
     11 C11        -0.3943  -17.4931  -51.0226 C.ar      23 UNK        -0.0193 
     12 C12        -0.1919  -18.8765  -51.0089 C.ar      23 UNK        -0.1150 
     13 C13         0.9547  -19.4324  -50.4309 C.ar      23 UNK        -0.0193 
     14 C14         1.9111  -18.5751  -49.8675 C.ar      23 UNK        -0.1150 
     15 C15         1.1256  -20.9545  -50.4661 C.3       23 UNK        -0.0205 
     16 S16         2.2909  -21.6550  -49.2429 S.3       23 UNK        -0.2404 
     17 C17         1.4623  -21.2181  -47.6771 C.3       23 UNK        -0.0398 
     18 CA          0.8935  -22.4225  -46.8906 C.3       11 UNK         0.1400 
     19 N           0.4318  -22.0077  -45.5642 N.am      11 UNK        -0.5000 
     20 C          -0.0098  -22.8249  -44.5988 C.2       10 UNK         0.5000 
     21 O          -0.0225  -24.0521  -44.6918 O.2       10 UNK        -0.5000 
     22 CA         -0.5793  -22.1526  -43.3356 C.3       10 UNK         0.1400 
     23 CB          0.5497  -21.6971  -42.3995 C.3       10 UNK        -0.1800 
     24 N          -1.4498  -21.0170  -43.6485 N.am      10 UNK        -0.5000 
     25 C          -2.6119  -21.1152  -44.3111 C.2       9 UNK         0.5000 
     26 O          -3.0966  -22.1842  -44.6816 O.2       9 UNK        -0.5000 
     27 CA         -3.3289  -19.7981  -44.6643 C.3       9 UNK         0.1400 
     28 CB         -4.0883  -19.2384  -43.4526 C.3       9 UNK        -0.1800 
     29 N          -2.4128  -18.7829  -45.1840 N.am      9 UNK        -0.5000 
     30 C          -1.7035  -18.9087  -46.3148 C.2       8 UNK         0.5000 
     31 O          -1.7879  -19.8726  -47.0723 O.2       8 UNK        -0.5000 
     32 CA         -0.6837  -17.8023  -46.6190 C.3       8 UNK         0.1400 
     33 CB         -1.3620  -16.6067  -47.3007 C.3       8 UNK        -0.1800 
     34 N           0.0265  -17.3721  -45.4128 N.am      8 UNK        -0.5000 
     35 C           0.8965  -18.1420  -44.7417 C.2       7 UNK         0.5000 
     36 O           1.2027  -19.2833  -45.0828 O.2       7 UNK        -0.5000 
     37 CA          1.4768  -17.5679  -43.4375 C.3       7 UNK         0.1400 
     38 CB          2.6924  -16.6716  -43.7164 C.3       7 UNK        -0.1800 
     39 N           0.4760  -16.8216  -42.6773 N.am      7 UNK        -0.5000 
     40 C          -0.5879  -17.3822  -42.0829 C.2       6 UNK         0.5000 
     41 O          -0.7999  -18.5945  -42.0647 O.2       6 UNK        -0.5000 
     42 CA         -1.6116  -16.4219  -41.4482 C.3       6 UNK         0.1400 
     43 CB         -1.2319  -16.1151  -39.9922 C.3       6 UNK        -0.1800 
     44 N          -1.7419  -15.1648  -42.1881 N.am      6 UNK        -0.5000 
     45 C          -2.1844  -15.0619  -43.4501 C.2       5 UNK         0.5000 
     46 O          -2.5928  -16.0207  -44.1043 O.2       5 UNK        -0.5000 
     47 CA         -2.1057  -13.6695  -44.1068 C.3       5 UNK         0.1400 
     48 CB         -3.4526  -12.9409  -44.0025 C.3       5 UNK        -0.1800 
     49 N          -1.0507  -12.8326  -43.5259 N.am      5 UNK        -0.5000 
     50 C           0.2592  -13.0358  -43.7166 C.2       4 UNK         0.5000 
     51 O           0.7116  -13.8655  -44.5113 O.2       4 UNK        -0.5000 
     52 CA          1.2066  -12.2402  -42.8057 C.3       4 UNK         0.1400 
     53 CB          1.1354  -12.8077  -41.3702 C.3       4 UNK        -0.1800 
     54 N           2.5693  -12.3329  -43.3242 N.am      4 UNK        -0.5000 
     55 C           3.6389  -11.6732  -42.8590 C.2       3 UNK         0.5000 
     56 O           3.5981  -10.8573  -41.9373 O.2       3 UNK        -0.5000 
     57 CA          4.9839  -11.9675  -43.5494 C.3       3 UNK         0.1400 
     58 CB          5.4018  -13.4353  -43.3545 C.3       3 UNK        -0.1800 
     59 N           4.9415  -11.6596  -44.9769 N.am      3 UNK        -0.5000 
     60 C           4.8669  -10.4254  -45.4982 C.2       2 UNK         0.5000 
     61 O           4.9382   -9.3923  -44.8319 O.2       2 UNK        -0.5000 
     62 CA          4.6583  -10.3314  -47.0256 C.3       2 UNK         0.1400 
     63 CB          6.0068  -10.1835  -47.7468 C.3       2 UNK        -0.1800 
     64 N           3.9392  -11.4841  -47.5805 N.am      2 UNK        -0.5000 
     65 C           2.6774  -11.8067  -47.2624 C.2       1 UNK         0.5000 
     66 O           1.9656  -11.1062  -46.5365 O.2       1 UNK        -0.5000 
     67 C          -0.2147  -23.1638  -47.6673 C.2       11 UNK         0.5000 
     68 O           0.0298  -24.2600  -48.1708 O.2       11 UNK        -0.5000 
     69 N          -1.4223  -22.5828  -47.7026 N.am      12 UNK        -0.5000 
     70 CA         -2.6109  -23.1643  -48.3227 C.3       12 UNK         0.1400 
     71 CB         -3.7718  -22.1625  -48.2618 C.3       12 UNK        -0.1800 
     72 C          -3.0254  -24.5034  -47.6927 C.2       12 UNK         0.5000 
     73 O          -3.3602  -25.4325  -48.4250 O.2       12 UNK        -0.5000 
     74 N          -2.9667  -24.5928  -46.3568 N.am      13 UNK        -0.5000 
     75 CA         -3.2334  -25.8160  -45.6006 C.3       13 UNK         0.1400 
     76 CB         -3.2957  -25.4951  -44.0997 C.3       13 UNK        -0.1800 
     77 C          -2.2045  -26.9256  -45.8854 C.2       13 UNK         0.5000 
     78 O          -2.5969  -28.0777  -46.0710 O.2       13 UNK        -0.5000 
     79 N          -0.9169  -26.5574  -45.9463 N.am      14 UNK        -0.5000 
     80 CA          0.1927  -27.4590  -46.2620 C.3       14 UNK         0.1400 
     81 CB          1.5259  -26.7531  -45.9702 C.3       14 UNK        -0.1800 
     82 C           0.1522  -27.9748  -47.7128 C.2       14 UNK         0.5000 
     83 O           0.3800  -29.1631  -47.9426 O.2       14 UNK        -0.5000 
     84 N          -0.1547  -27.0795  -48.6607 N.am      15 UNK        -0.5000 
     85 CA         -0.2974  -27.3862  -50.0861 C.3       15 UNK         0.1400 
     86 CB         -0.1742  -26.0786  -50.8829 C.3       15 UNK        -0.1800 
     87 C          -1.6167  -28.1062  -50.4342 C.2       15 UNK         0.5000 
     88 O          -1.7172  -28.6825  -51.5177 O.2       15 UNK        -0.5000 
     89 N          -2.5994  -28.0428  -49.5240 N.am      16 UNK        -0.5000 
     90 CA         -3.9754  -28.5420  -49.6332 C.3       16 UNK         0.1400 
     91 CB         -4.0052  -30.0726  -49.8257 C.3       16 UNK        -0.1800 
     92 C          -4.8278  -27.7837  -50.6764 C.2       16 UNK         0.5000 
     93 O          -5.8472  -28.3052  -51.1319 O.2       16 UNK        -0.5000 
     94 N          -4.4136  -26.5570  -51.0102 N.am      17 UNK        -0.5000 
     95 CA         -5.0581  -25.6161  -51.9182 C.3       17 UNK         0.1400 
     96 CB         -5.0227  -26.1298  -53.3706 C.3       17 UNK        -0.1800 
     97 C          -4.3094  -24.2821  -51.8087 C.2       17 UNK         0.5000 
     98 O          -3.0786  -24.2840  -51.7410 O.2       17 UNK        -0.5000 
     99 N          -5.0485  -23.1682  -51.8061 N.am      18 UNK        -0.5000 
    100 CA        -4.4809  -21.8217  -51.8170 C.3       18 UNK         0.1400 
    101 CB        -5.5031  -20.8359  -51.2323 C.3       18 UNK        -0.1800 
    102 C         -4.1018  -21.4196  -53.2502 C.2       18 UNK         0.5000 
    103 O         -4.9356  -21.5400  -54.1523 O.2       18 UNK        -0.5000 
    104 N         -2.8708  -20.9249  -53.4322 N.am      19 UNK        -0.5000 
    105 CA        -2.3618  -20.4087  -54.7041 C.3       19 UNK         0.1400 
    106 CB        -0.8741  -20.0538  -54.5579 C.3       19 UNK        -0.1800 
    107 C         -3.1783  -19.1875  -55.1605 C.2       19 UNK         0.5000 
    108 O         -3.3204  -18.2345  -54.3936 O.2       19 UNK        -0.5000 
    109 N         -3.7557  -19.2708  -56.3668 N.am      20 UNK        -0.5000 
    110 CA        -4.6773  -18.2917  -56.9618 C.3       20 UNK         0.1400 
    111 CB        -3.9295  -16.9859  -57.3049 C.3       20 UNK        -0.1800 
    112 C         -5.9529  -18.0402  -56.1206 C.2       20 UNK         0.5000 
    113 O         -6.5697  -16.9816  -56.2519 O.2       20 UNK        -0.5000 
    114 N         -6.3214  -19.0175  -55.2751 N.am      21 UNK        -0.5000 
    115 CA        -7.4382  -19.0010  -54.3270 C.3       21 UNK         0.1400 
    116 CB        -8.7891  -19.0010  -55.0737 C.3       21 UNK        -0.1800 
    117 C         -7.3266  -17.8791  -53.2689 C.2       21 UNK         0.5000 
    118 O         -8.3381  -17.2694  -52.9172 O.2       21 UNK        -0.5000 
    119 N         -6.1042  -17.6210  -52.7772 N.am      22 UNK        -0.5000 
    120 CA        -5.8070  -16.5665  -51.7885 C.3       22 UNK         0.1400 
    121 C         -6.3947  -16.7593  -50.3553 C.2       22 UNK         0.5000 
    122 N         -6.9817  -17.9004  -50.0161 N.am      22 UNK        -0.7600 
    123 O         -6.3324  -15.8435  -49.5395 O.2       22 UNK        -0.5000 
    124 C124       -4.3001  -16.1980  -51.7626 C.3       23 UNK        -0.0398 
    125 S125       -3.1920  -17.4458  -51.0127 S.3       23 UNK        -0.2404 
    126 C126       -1.6077  -16.8874  -51.7152 C.3       23 UNK        -0.0205 
    127 H127       -1.9301  -13.8314  -47.5488 H         1 UNK         0.0600 
    128 H128       -2.3490  -12.4919  -48.6101 H         1 UNK         0.0600 
    129 H129       -1.7951  -12.1636  -46.9670 H         1 UNK         0.0600 
    130 H130        0.4786  -13.6573  -46.6259 H         1 UNK         0.3000 
    131 H131        2.3306  -13.1804  -48.8652 H         1 UNK         0.0600 
    132 H132        4.0184  -14.3012  -47.5046 H         1 UNK         0.0800 
    133 H133        3.0260  -14.2137  -46.0732 H         1 UNK         0.0800 
    134 H134        2.7621  -15.3201  -49.7671 H         1 UNK         0.0800 
    135 H135        3.7403  -16.6905  -49.2970 H         1 UNK         0.0800 
    136 H136        0.4108  -15.5868  -50.4339 H         1 UNK         0.1150 
    137 H137       -0.9316  -19.5213  -51.4594 H         1 UNK         0.1150 
    138 H138        2.8116  -18.9739  -49.4244 H         1 UNK         0.1150 
    139 H139        0.1558  -21.4353  -50.3256 H         1 UNK         0.0800 
    140 H140        1.4665  -21.2359  -51.4631 H         1 UNK         0.0800 
    141 H141        0.6813  -20.4812  -47.8623 H         1 UNK         0.0800 
    142 H142        2.2081  -20.7073  -47.0671 H         1 UNK         0.0800 
    143 H143        1.7079  -23.1325  -46.7318 H         1 UNK         0.0600 
    144 H144        0.4584  -21.0088  -45.3772 H         1 UNK         0.3000 
    145 H145       -1.1787  -22.8961  -42.8062 H         1 UNK         0.0600 
    146 H146        0.1501  -21.2881  -41.4713 H         1 UNK         0.0600 
    147 H147        1.1984  -22.5329  -42.1348 H         1 UNK         0.0600 
    148 H148        1.1725  -20.9303  -42.8605 H         1 UNK         0.0600 
    149 H149       -1.1413  -20.1036  -43.3301 H         1 UNK         0.3000 
    150 H150       -4.0570  -20.0165  -45.4480 H         1 UNK         0.0600 
    151 H151       -4.8193  -19.9596  -43.0851 H         1 UNK         0.0600 
    152 H152       -4.6296  -18.3283  -43.7124 H         1 UNK         0.0600 
    153 H153       -3.4171  -19.0034  -42.6270 H         1 UNK         0.0600 
    154 H154       -2.3193  -17.9263  -44.6475 H         1 UNK         0.3000 
    155 H155        0.0520  -18.2070  -47.3170 H         1 UNK         0.0600 
    156 H156       -2.1132  -16.1420  -46.6636 H         1 UNK         0.0600 
    157 H157       -0.6318  -15.8484  -47.5768 H         1 UNK         0.0600 
    158 H158       -1.8606  -16.9191  -48.2189 H         1 UNK         0.0600 
    159 H159       -0.1806  -16.4491  -45.0615 H         1 UNK         0.3000 
    160 H160        1.8115  -18.4075  -42.8245 H         1 UNK         0.0600 
    161 H161        2.4264  -15.8098  -44.3261 H         1 UNK         0.0600 
    162 H162        3.4661  -17.2221  -44.2529 H         1 UNK         0.0600 
    163 H163        3.1352  -16.3041  -42.7906 H         1 UNK         0.0600 
    164 H164        0.5621  -15.8167  -42.6773 H         1 UNK         0.3000 
    165 H165       -2.5834  -16.9195  -41.4535 H         1 UNK         0.0600 
    166 H166       -1.9880  -15.4956  -39.5094 H         1 UNK         0.0600 
    167 H167       -1.1461  -17.0336  -39.4100 H         1 UNK         0.0600 
    168 H168       -0.2764  -15.5932  -39.9250 H         1 UNK         0.0600 
    169 H169       -1.4446  -14.3266  -41.7131 H         1 UNK         0.3000 
    170 H170       -1.8821  -13.8266  -45.1621 H         1 UNK         0.0600 
    171 H171       -4.2521  -13.5339  -44.4489 H         1 UNK         0.0600 
    172 H172       -3.7274  -12.7462  -42.9651 H         1 UNK         0.0600 
    173 H173       -3.4254  -11.9865  -44.5288 H         1 UNK         0.0600 
    174 H174       -1.3489  -12.1220  -42.8728 H         1 UNK         0.3000 
    175 H175        0.8978  -11.1932  -42.8117 H         1 UNK         0.0600 
    176 H176        1.4748  -13.8437  -41.3320 H         1 UNK         0.0600 
    177 H177        1.7481  -12.2338  -40.6758 H         1 UNK         0.0600 
    178 H178        0.1182  -12.7796  -40.9785 H         1 UNK         0.0600 
    179 H179        2.6611  -12.9631  -44.1090 H         1 UNK         0.3000 
    180 H180        5.7448  -11.3366  -43.0846 H         1 UNK         0.0600 
    181 H181        4.7171  -14.1266  -43.8472 H         1 UNK         0.0600 
    182 H182        5.4250  -13.6963  -42.2957 H         1 UNK         0.0600 
    183 H183        6.4004  -13.6149  -43.7533 H         1 UNK         0.0600 
    184 H184        4.9062  -12.4434  -45.6090 H         1 UNK         0.3000 
    185 H185        4.0645   -9.4362  -47.2223 H         1 UNK         0.0600 
    186 H186        6.5560   -9.3181  -47.3733 H         1 UNK         0.0600 
    187 H187        6.6394  -11.0603  -47.6033 H         1 UNK         0.0600 
    188 H188        5.8679  -10.0400  -48.8185 H         1 UNK         0.0600 
    189 H189        4.4664  -12.0824  -48.2004 H         1 UNK         0.3000 
    190 H190       -1.5380  -21.6560  -47.2963 H         1 UNK         0.3000 
    191 H191       -2.3714  -23.3500  -49.3705 H         1 UNK         0.0600 
    192 H192       -4.0250  -21.9001  -47.2347 H         1 UNK         0.0600 
    193 H193       -4.6673  -22.5805  -48.7222 H         1 UNK         0.0600 
    194 H194       -3.5274  -21.2402  -48.7889 H         1 UNK         0.0600 
    195 H195       -2.7377  -23.7623  -45.8186 H         1 UNK         0.3000 
    196 H196       -4.2137  -26.1877  -45.9061 H         1 UNK         0.0600 
    197 H197       -3.5147  -26.3909  -43.5174 H         1 UNK         0.0600 
    198 H198       -4.0791  -24.7679  -43.8852 H         1 UNK         0.0600 
    199 H199       -2.3534  -25.0874  -43.7337 H         1 UNK         0.0600 
    200 H200       -0.6735  -25.5928  -45.7392 H         1 UNK         0.3000 
    201 H201        0.1183  -28.3248  -45.6008 H         1 UNK         0.0600 
    202 H202        1.5949  -26.4610  -44.9222 H         1 UNK         0.0600 
    203 H203        1.6472  -25.8539  -46.5751 H         1 UNK         0.0600 
    204 H204        2.3709  -27.4092  -46.1821 H         1 UNK         0.0600 
    205 H205       -0.2636  -26.1026  -48.3953 H         1 UNK         0.3000 
    206 H206        0.5215  -28.0440  -50.3843 H         1 UNK         0.0600 
    207 H207        0.7989  -25.6125  -50.7274 H         1 UNK         0.0600 
    208 H208       -0.2855  -26.2538  -51.9537 H         1 UNK         0.0600 
    209 H209       -0.9374  -25.3591  -50.5857 H         1 UNK         0.0600 
    210 H210       -2.4182  -27.4902  -48.6956 H         1 UNK         0.3000 
    211 H211       -4.4364  -28.3286  -48.6677 H         1 UNK         0.0600 
    212 H212       -3.6438  -30.3661  -50.8113 H         1 UNK         0.0600 
    213 H213       -5.0199  -30.4589  -49.7240 H         1 UNK         0.0600 
    214 H214       -3.3918  -30.5755  -49.0780 H         1 UNK         0.0600 
    215 H215       -3.5983  -26.1841  -50.5352 H         1 UNK         0.3000 
    216 H216       -6.0934  -25.4774  -51.6010 H         1 UNK         0.0600 
    217 H217       -4.0030  -26.3445  -53.6931 H         1 UNK         0.0600 
    218 H218       -5.4354  -25.3887  -54.0564 H         1 UNK         0.0600 
    219 H219       -5.6101  -27.0397  -53.4912 H         1 UNK         0.0600 
    220 H220       -6.0497  -23.2353  -51.9175 H         1 UNK         0.3000 
    221 H221       -3.5872  -21.7977  -51.1902 H         1 UNK         0.0600 
    222 H222       -6.4219  -20.8115  -51.8173 H         1 UNK         0.0600 
    223 H223       -5.7716  -21.0969  -50.2095 H         1 UNK         0.0600 
    224 H224       -5.0924  -19.8267  -51.2099 H         1 UNK         0.0600 
    225 H225       -2.2561  -20.8385  -52.6382 H         1 UNK         0.3000 
    226 H226       -2.4525  -21.2033  -55.4476 H         1 UNK         0.0600 
    227 H227       -0.7200  -19.2332  -53.8575 H         1 UNK         0.0600 
    228 H228       -0.2932  -20.9081  -54.2097 H         1 UNK         0.0600 
    229 H229       -0.4549  -19.7442  -55.5160 H         1 UNK         0.0600 
    230 H230       -3.6069  -20.1087  -56.9122 H         1 UNK         0.3000 
    231 H231       -5.0210  -18.7296  -57.8999 H         1 UNK         0.0600 
    232 H232       -3.6191  -16.4494  -56.4078 H         1 UNK         0.0600 
    233 H233       -4.5610  -16.3125  -57.8855 H         1 UNK         0.0600 
    234 H234       -3.0392  -17.1860  -57.9010 H         1 UNK         0.0600 
    235 H235       -5.7370  -19.8448  -55.2271 H         1 UNK         0.3000 
    236 H236       -7.3774  -19.9406  -53.7781 H         1 UNK         0.0600 
    237 H237       -9.6194  -19.1360  -54.3797 H         1 UNK         0.0600 
    238 H238       -8.9591  -18.0655  -55.6073 H         1 UNK         0.0600 
    239 H239       -8.8390  -19.8141  -55.7979 H         1 UNK         0.0600 
    240 H240       -5.3040  -18.1192  -53.1455 H         1 UNK         0.3000 
    241 H241       -6.3161  -15.6761  -52.1629 H         1 UNK         0.0600 
    242 H242       -7.3634  -18.0023  -49.0893 H         1 UNK         0.3800 
    243 H243       -7.0675  -18.6493  -50.6812 H         1 UNK         0.3800 
    244 H244       -4.1583  -15.2607  -51.2219 H         1 UNK         0.0800 
    245 H245       -3.9640  -15.9998  -52.7816 H         1 UNK         0.0800 
    246 H246       -1.5731  -17.1392  -52.7749 H         1 UNK         0.0800 
    247 H247       -1.5656  -15.7985  -51.6594 H         1 UNK         0.0800 
@<TRIPOS>BOND
     1    1    2 1    
     2    1  127 1    
     3    1  128 1    
     4    1  129 1    
     5    2    3 2    
     6    2    4 am   BACKBONE|DICT|INTERRES
     7    4    5 1    
     8    4  130 1    
     9    5    6 1    
    10    5   65 1    
    11    5  131 1    
    12    6    7 1    
    13    6  132 1    
    14    6  133 1    
    15    7    8 1    
    16    8    9 1    
    17    8  134 1    
    18    8  135 1    
    19    9   10 ar   
    20    9   14 ar   
    21   10   11 ar   
    22   10  136 1    
    23   11   12 ar   
    24   11  126 1    
    25   12   13 ar   
    26   12  137 1    
    27   13   14 ar   
    28   13   15 1    
    29   14  138 1    
    30   15   16 1    
    31   15  139 1    
    32   15  140 1    
    33   16   17 1    
    34   17   18 1    
    35   17  141 1    
    36   17  142 1    
    37   18   19 1    
    38   18   67 1    
    39   18  143 1    
    40   19   20 am   BACKBONE|DICT|INTERRES
    41   19  144 1    
    42   20   21 2    
    43   20   22 1    
    44   22   23 1    
    45   22   24 1    
    46   22  145 1    
    47   23  146 1    
    48   23  147 1    
    49   23  148 1    
    50   24   25 am   BACKBONE|DICT|INTERRES
    51   24  149 1    
    52   25   26 2    
    53   25   27 1    
    54   27   28 1    
    55   27   29 1    
    56   27  150 1    
    57   28  151 1    
    58   28  152 1    
    59   28  153 1    
    60   29   30 am   BACKBONE|DICT|INTERRES
    61   29  154 1    
    62   30   31 2    
    63   30   32 1    
    64   32   33 1    
    65   32   34 1    
    66   32  155 1    
    67   33  156 1    
    68   33  157 1    
    69   33  158 1    
    70   34   35 am   BACKBONE|DICT|INTERRES
    71   34  159 1    
    72   35   36 2    
    73   35   37 1    
    74   37   38 1    
    75   37   39 1    
    76   37  160 1    
    77   38  161 1    
    78   38  162 1    
    79   38  163 1    
    80   39   40 am   BACKBONE|DICT|INTERRES
    81   39  164 1    
    82   40   41 2    
    83   40   42 1    
    84   42   43 1    
    85   42   44 1    
    86   42  165 1    
    87   43  166 1    
    88   43  167 1    
    89   43  168 1    
    90   44   45 am   BACKBONE|DICT|INTERRES
    91   44  169 1    
    92   45   46 2    
    93   45   47 1    
    94   47   48 1    
    95   47   49 1    
    96   47  170 1    
    97   48  171 1    
    98   48  172 1    
    99   48  173 1    
   100   49   50 am   BACKBONE|DICT|INTERRES
   101   49  174 1    
   102   50   51 2    
   103   50   52 1    
   104   52   53 1    
   105   52   54 1    
   106   52  175 1    
   107   53  176 1    
   108   53  177 1    
   109   53  178 1    
   110   54   55 am   BACKBONE|DICT|INTERRES
   111   54  179 1    
   112   55   56 2    
   113   55   57 1    
   114   57   58 1    
   115   57   59 1    
   116   57  180 1    
   117   58  181 1    
   118   58  182 1    
   119   58  183 1    
   120   59   60 am   BACKBONE|DICT|INTERRES
   121   59  184 1    
   122   60   61 2    
   123   60   62 1    
   124   62   63 1    
   125   62   64 1    
   126   62  185 1    
   127   63  186 1    
   128   63  187 1    
   129   63  188 1    
   130   64   65 am   BACKBONE|DICT|INTERRES
   131   64  189 1    
   132   65   66 2    
   133   67   68 2    
   134   67   69 am   BACKBONE|DICT|INTERRES
   135   69   70 1    
   136   69  190 1    
   137   70   71 1    
   138   70   72 1    
   139   70  191 1    
   140   71  192 1    
   141   71  193 1    
   142   71  194 1    
   143   72   73 2    
   144   72   74 am   BACKBONE|DICT|INTERRES
   145   74   75 1    
   146   74  195 1    
   147   75   76 1    
   148   75   77 1    
   149   75  196 1    
   150   76  197 1    
   151   76  198 1    
   152   76  199 1    
   153   77   78 2    
   154   77   79 am   BACKBONE|DICT|INTERRES
   155   79   80 1    
   156   79  200 1    
   157   80   81 1    
   158   80   82 1    
   159   80  201 1    
   160   81  202 1    
   161   81  203 1    
   162   81  204 1    
   163   82   83 2    
   164   82   84 am   BACKBONE|DICT|INTERRES
   165   84   85 1    
   166   84  205 1    
   167   85   86 1    
   168   85   87 1    
   169   85  206 1    
   170   86  207 1    
   171   86  208 1    
   172   86  209 1    
   173   87   88 2    
   174   87   89 am   BACKBONE|DICT|INTERRES
   175   89   90 1    
   176   89  210 1    
   177   90   91 1    
   178   90   92 1    
   179   90  211 1    
   180   91  212 1    
   181   91  213 1    
   182   91  214 1    
   183   92   93 2    
   184   92   94 am   BACKBONE|DICT|INTERRES
   185   94   95 1    
   186   94  215 1    
   187   95   96 1    
   188   95   97 1    
   189   95  216 1    
   190   96  217 1    
   191   96  218 1    
   192   96  219 1    
   193   97   98 2    
   194   97   99 am   BACKBONE|DICT|INTERRES
   195   99  100 1    
   196   99  220 1    
   197  100  101 1    
   198  100  102 1    
   199  100  221 1    
   200  101  222 1    
   201  101  223 1    
   202  101  224 1    
   203  102  103 2    
   204  102  104 am   BACKBONE|DICT|INTERRES
   205  104  105 1    
   206  104  225 1    
   207  105  106 1    
   208  105  107 1    
   209  105  226 1    
   210  106  227 1    
   211  106  228 1    
   212  106  229 1    
   213  107  108 2    
   214  107  109 am   BACKBONE|DICT|INTERRES
   215  109  110 1    
   216  109  230 1    
   217  110  111 1    
   218  110  112 1    
   219  110  231 1    
   220  111  232 1    
   221  111  233 1    
   222  111  234 1    
   223  112  113 2    
   224  112  114 am   BACKBONE|DICT|INTERRES
   225  114  115 1    
   226  114  235 1    
   227  115  116 1    
   228  115  117 1    
   229  115  236 1    
   230  116  237 1    
   231  116  238 1    
   232  116  239 1    
   233  117  118 2    
   234  117  119 am   BACKBONE|DICT|INTERRES
   235  119  120 1    
   236  119  240 1    
   237  120  121 1    
   238  120  124 1    
   239  120  241 1    
   240  121  122 am   BACKBONE|DICT|INTERRES
   241  121  123 2    
   242  122  242 1    
   243  122  243 1    
   244  124  125 1    
   245  124  244 1    
   246  124  245 1    
   247  125  126 1    
   248  126  246 1    
   249  126  247 1    
@<TRIPOS>SUBSTRUCTURE
     1 UNK         1 GROUP             0       ****    0 ROOT    
