@<TRIPOS>MOLECULE
3R540
247   249    1
SMALL
USER_CHARGES


@<TRIPOS>ATOM
      1 CA         -2.0739  -12.4192  -46.5126 C.3       0 UNK        -0.1800 
      2 C          -0.7318  -12.0171  -47.1080 C.2       0 UNK         0.5000 
      3 O          -0.6823  -11.1167  -47.9465 O.2       0 UNK        -0.5000 
      4 N           0.3534  -12.6779  -46.6864 N.am      1 UNK        -0.5000 
      5 CA          1.7218  -12.3998  -47.1380 C.3       1 UNK         0.1400 
      6 C6          2.7107  -13.5285  -46.7653 C.3       23 UNK        -0.0398 
      7 S7          2.1835  -15.1580  -47.3647 S.3       23 UNK        -0.2404 
      8 C8          3.1449  -15.3456  -48.8901 C.3       23 UNK        -0.0205 
      9 C9          2.6055  -16.5265  -49.6758 C.ar      23 UNK        -0.0193 
     10 C10         1.5781  -16.3342  -50.6022 C.ar      23 UNK        -0.1150 
     11 C11         1.0080  -17.4225  -51.2756 C.ar      23 UNK        -0.0193 
     12 C12         1.5046  -18.7055  -51.0241 C.ar      23 UNK        -0.1150 
     13 C13         2.5451  -18.9088  -50.1136 C.ar      23 UNK        -0.0193 
     14 C14         3.0923  -17.8141  -49.4408 C.ar      23 UNK        -0.1150 
     15 C15         3.0749  -20.3097  -49.8496 C.3       23 UNK        -0.0205 
     16 S16         2.3754  -21.0204  -48.3279 S.3       23 UNK        -0.2404 
     17 C17         0.6377  -21.2785  -48.8175 C.3       23 UNK        -0.0398 
     18 CA         -0.0423  -22.3696  -47.9599 C.3       11 UNK         0.1400 
     19 N          -0.2563  -21.9453  -46.5725 N.am      11 UNK        -0.5000 
     20 C          -0.6746  -22.7481  -45.5832 C.2       10 UNK         0.5000 
     21 O          -0.8687  -23.9561  -45.7183 O.2       10 UNK        -0.5000 
     22 CA         -0.9917  -22.0797  -44.2322 C.3       10 UNK         0.1400 
     23 CB          0.2890  -21.8105  -43.4286 C.3       10 UNK        -0.1800 
     24 N          -1.7519  -20.8393  -44.3973 N.am      10 UNK        -0.5000 
     25 C          -2.9928  -20.7813  -44.9025 C.2       9 UNK         0.5000 
     26 O          -3.6491  -21.7749  -45.2099 O.2       9 UNK        -0.5000 
     27 CA         -3.5865  -19.3852  -45.1492 C.3       9 UNK         0.1400 
     28 CB         -4.3069  -18.8622  -43.8974 C.3       9 UNK        -0.1800 
     29 N          -2.5641  -18.4293  -45.5697 N.am      9 UNK        -0.5000 
     30 C          -2.0210  -18.3958  -46.7947 C.2       8 UNK         0.5000 
     31 O          -2.3603  -19.1413  -47.7136 O.2       8 UNK        -0.5000 
     32 CA         -0.8967  -17.3672  -47.0196 C.3       8 UNK         0.1400 
     33 CB         -1.5041  -15.9935  -47.3410 C.3       8 UNK        -0.1800 
     34 N          -0.0014  -17.2403  -45.8678 N.am      8 UNK        -0.5000 
     35 C           0.7658  -18.2298  -45.3855 C.2       7 UNK         0.5000 
     36 O           0.8193  -19.3512  -45.8855 O.2       7 UNK        -0.5000 
     37 CA          1.5331  -17.9542  -44.0737 C.3       7 UNK         0.1400 
     38 CB          2.9380  -17.4093  -44.3633 C.3       7 UNK        -0.1800 
     39 N           0.8354  -17.0341  -43.1725 N.am      7 UNK        -0.5000 
     40 C          -0.4191  -17.1977  -42.7309 C.2       6 UNK         0.5000 
     41 O          -1.0711  -18.2240  -42.9276 O.2       6 UNK        -0.5000 
     42 CA         -1.0918  -16.0171  -42.0029 C.3       6 UNK         0.1400 
     43 CB         -1.3571  -16.3758  -40.5327 C.3       6 UNK        -0.1800 
     44 N          -0.3746  -14.7390  -42.0504 N.am      6 UNK        -0.5000 
     45 C          -0.0162  -14.0325  -43.1328 C.2       5 UNK         0.5000 
     46 O          -0.1694  -14.4168  -44.2951 O.2       5 UNK        -0.5000 
     47 CA          0.6497  -12.6644  -42.8708 C.3       5 UNK         0.1400 
     48 CB          0.4056  -12.1099  -41.4495 C.3       5 UNK        -0.1800 
     49 N           2.0856  -12.6544  -43.1686 N.am      5 UNK        -0.5000 
     50 C           3.0226  -13.4921  -42.6946 C.2       4 UNK         0.5000 
     51 O           2.7662  -14.4504  -41.9644 O.2       4 UNK        -0.5000 
     52 CA          4.4962  -13.2301  -43.0635 C.3       4 UNK         0.1400 
     53 CB          5.1155  -14.4119  -43.8363 C.3       4 UNK        -0.1800 
     54 N           4.7416  -11.9696  -43.7808 N.am      4 UNK        -0.5000 
     55 C           5.8994  -11.2937  -43.6984 C.2       3 UNK         0.5000 
     56 O           6.8380  -11.6559  -42.9862 O.2       3 UNK        -0.5000 
     57 CA          6.0622  -10.0125  -44.5416 C.3       3 UNK         0.1400 
     58 CB          7.4589   -9.9209  -45.1845 C.3       3 UNK        -0.1800 
     59 N           5.0540   -9.8999  -45.5966 N.am      3 UNK        -0.5000 
     60 C           4.3156   -8.8087  -45.8374 C.2       2 UNK         0.5000 
     61 O           4.3945   -7.7691  -45.1813 O.2       2 UNK        -0.5000 
     62 CA          3.3121   -8.8800  -47.0085 C.3       2 UNK         0.1400 
     63 CB          3.9052   -8.2108  -48.2582 C.3       2 UNK        -0.1800 
     64 N           2.8552  -10.2290  -47.3665 N.am      2 UNK        -0.5000 
     65 C           2.2153  -11.0679  -46.5424 C.2       1 UNK         0.5000 
     66 O           2.0569  -10.8521  -45.3386 O.2       1 UNK        -0.5000 
     67 C          -1.3470  -22.8604  -48.6186 C.2       11 UNK         0.5000 
     68 O          -1.3246  -23.8996  -49.2794 O.2       11 UNK        -0.5000 
     69 N          -2.4630  -22.1517  -48.3828 N.am      12 UNK        -0.5000 
     70 CA         -3.7956  -22.5549  -48.8343 C.3       12 UNK         0.1400 
     71 CB         -4.8269  -21.4661  -48.5000 C.3       12 UNK        -0.1800 
     72 C          -4.2277  -23.9011  -48.2291 C.2       12 UNK         0.5000 
     73 O          -4.6615  -24.7820  -48.9681 O.2       12 UNK        -0.5000 
     74 N          -4.0681  -24.0506  -46.9062 N.am      13 UNK        -0.5000 
     75 CA         -4.3840  -25.2669  -46.1561 C.3       13 UNK         0.1400 
     76 CB         -4.2150  -25.0062  -44.6521 C.3       13 UNK        -0.1800 
     77 C          -3.5510  -26.4830  -46.5980 C.2       13 UNK         0.5000 
     78 O          -4.1093  -27.5684  -46.7606 O.2       13 UNK        -0.5000 
     79 N          -2.2484  -26.2746  -46.8381 N.am      14 UNK        -0.5000 
     80 CA         -1.3227  -27.2859  -47.3583 C.3       14 UNK         0.1400 
     81 CB          0.1065  -26.7234  -47.3411 C.3       14 UNK        -0.1800 
     82 C          -1.6930  -27.7832  -48.7704 C.2       14 UNK         0.5000 
     83 O          -1.4755  -28.9548  -49.0803 O.2       14 UNK        -0.5000 
     84 N          -2.2768  -26.8938  -49.5820 N.am      15 UNK        -0.5000 
     85 CA         -2.8002  -27.1729  -50.9188 C.3       15 UNK         0.1400 
     86 CB         -2.5733  -25.9263  -51.7855 C.3       15 UNK        -0.1800 
     87 C          -4.2889  -27.5852  -50.9112 C.2       15 UNK         0.5000 
     88 O          -4.8897  -27.6769  -51.9828 O.2       15 UNK        -0.5000 
     89 N          -4.8740  -27.8013  -49.7214 N.am      16 UNK        -0.5000 
     90 CA         -6.2679  -28.1920  -49.4680 C.3       16 UNK         0.1400 
     91 CB         -6.5107  -29.6403  -49.9405 C.3       16 UNK        -0.1800 
     92 C          -7.3077  -27.1980  -50.0347 C.2       16 UNK         0.5000 
     93 O          -8.4059  -27.6044  -50.4178 O.2       16 UNK        -0.5000 
     94 N          -6.9254  -25.9142  -50.0961 N.am      17 UNK        -0.5000 
     95 CA         -7.6489  -24.7674  -50.6536 C.3       17 UNK         0.1400 
     96 CB         -8.9389  -24.4913  -49.8549 C.3       17 UNK        -0.1800 
     97 C          -7.9007  -24.8436  -52.1763 C.2       17 UNK         0.5000 
     98 O          -8.6676  -24.0332  -52.6993 O.2       17 UNK        -0.5000 
     99 N          -7.2497  -25.7857  -52.8743 N.am      18 UNK        -0.5000 
    100 CA        -7.3680  -25.9684  -54.3226 C.3       18 UNK         0.1400 
    101 CB        -7.0362  -27.4282  -54.6687 C.3       18 UNK        -0.1800 
    102 C         -6.4637  -25.0083  -55.1184 C.2       18 UNK         0.5000 
    103 O         -6.7100  -24.7892  -56.3053 O.2       18 UNK        -0.5000 
    104 N         -5.4361  -24.4615  -54.4610 N.am      19 UNK        -0.5000 
    105 CA        -4.4300  -23.5590  -55.0069 C.3       19 UNK         0.1400 
    106 CB        -3.4465  -24.3511  -55.8948 C.3       19 UNK        -0.1800 
    107 C         -3.7066  -22.8726  -53.8358 C.2       19 UNK         0.5000 
    108 O         -4.0541  -23.1147  -52.6773 O.2       19 UNK        -0.5000 
    109 N         -2.7048  -22.0438  -54.1644 N.am      20 UNK        -0.5000 
    110 CA        -1.7194  -21.4365  -53.2575 C.3       20 UNK         0.1400 
    111 CB        -0.8007  -22.5260  -52.6666 C.3       20 UNK        -0.1800 
    112 C         -2.3075  -20.5181  -52.1647 C.2       20 UNK         0.5000 
    113 O         -1.6626  -20.3103  -51.1369 O.2       20 UNK        -0.5000 
    114 N         -3.5012  -19.9660  -52.4107 N.am      21 UNK        -0.5000 
    115 CA        -4.1825  -19.0381  -51.5162 C.3       21 UNK         0.1400 
    116 CB        -5.6909  -19.3310  -51.5428 C.3       21 UNK        -0.1800 
    117 C         -3.8913  -17.5931  -51.9435 C.2       21 UNK         0.5000 
    118 O         -4.0880  -17.2512  -53.1118 O.2       21 UNK        -0.5000 
    119 N         -3.4385  -16.7826  -50.9832 N.am      22 UNK        -0.5000 
    120 CA        -3.1166  -15.3533  -51.1411 C.3       22 UNK         0.1400 
    121 C         -3.8776  -14.4521  -50.1223 C.2       22 UNK         0.5000 
    122 N         -4.8178  -14.9698  -49.3394 N.am      22 UNK        -0.7600 
    123 O         -3.6303  -13.2521  -50.0512 O.2       22 UNK        -0.5000 
    124 C124       -1.5818  -15.1133  -51.0961 C.3       23 UNK        -0.0398 
    125 S125       -0.7352  -15.5978  -52.6405 S.3       23 UNK        -0.2404 
    126 C126       -0.1530  -17.2879  -52.2625 C.3       23 UNK        -0.0205 
    127 H127       -2.7175  -12.8329  -47.2891 H         1 UNK         0.0600 
    128 H128       -2.5705  -11.5490  -46.0838 H         1 UNK         0.0600 
    129 H129       -1.9665  -13.1668  -45.7282 H         1 UNK         0.0600 
    130 H130        0.2561  -13.3956  -45.9753 H         1 UNK         0.3000 
    131 H131        1.7042  -12.3119  -48.2266 H         1 UNK         0.0600 
    132 H132        3.7145  -13.3153  -47.1372 H         1 UNK         0.0800 
    133 H133        2.7905  -13.6095  -45.6831 H         1 UNK         0.0800 
    134 H134        3.0796  -14.4339  -49.4859 H         1 UNK         0.0800 
    135 H135        4.1985  -15.4930  -48.6480 H         1 UNK         0.0800 
    136 H136        1.2157  -15.3310  -50.7663 H         1 UNK         0.1150 
    137 H137        1.0683  -19.5541  -51.5326 H         1 UNK         0.1150 
    138 H138        3.8796  -17.9678  -48.7161 H         1 UNK         0.1150 
    139 H139        2.8676  -20.9685  -50.6944 H         1 UNK         0.0800 
    140 H140        4.1610  -20.2736  -49.7531 H         1 UNK         0.0800 
    141 H141        0.6237  -21.5600  -49.8714 H         1 UNK         0.0800 
    142 H142        0.0983  -20.3319  -48.7456 H         1 UNK         0.0800 
    143 H143        0.6267  -23.2326  -47.9283 H         1 UNK         0.0600 
    144 H144       -0.0478  -20.9721  -46.3619 H         1 UNK         0.3000 
    145 H145       -1.6100  -22.7706  -43.6553 H         1 UNK         0.0600 
    146 H146        0.0675  -21.3153  -42.4830 H         1 UNK         0.0600 
    147 H147        0.8012  -22.7448  -43.1962 H         1 UNK         0.0600 
    148 H148        0.9908  -21.1860  -43.9796 H         1 UNK         0.0600 
    149 H149       -1.2960  -19.9745  -44.1315 H         1 UNK         0.3000 
    150 H150       -4.3256  -19.4726  -45.9482 H         1 UNK         0.0600 
    151 H151       -5.1169  -19.5334  -43.6093 H         1 UNK         0.0600 
    152 H152       -4.7464  -17.8808  -44.0761 H         1 UNK         0.0600 
    153 H153       -3.6349  -18.7790  -43.0434 H         1 UNK         0.0600 
    154 H154       -2.1766  -17.8373  -44.8482 H         1 UNK         0.3000 
    155 H155       -0.3052  -17.6970  -47.8770 H         1 UNK         0.0600 
    156 H156       -0.7433  -15.2896  -47.6754 H         1 UNK         0.0600 
    157 H157       -2.0022  -15.5619  -46.4722 H         1 UNK         0.0600 
    158 H158       -2.2461  -16.0698  -48.1347 H         1 UNK         0.0600 
    159 H159        0.0140  -16.3435  -45.3967 H         1 UNK         0.3000 
    160 H160        1.6392  -18.9062  -43.5513 H         1 UNK         0.0600 
    161 H161        2.8989  -16.4022  -44.7776 H         1 UNK         0.0600 
    162 H162        3.4665  -18.0411  -45.0786 H         1 UNK         0.0600 
    163 H163        3.5377  -17.3737  -43.4540 H         1 UNK         0.0600 
    164 H164        1.3026  -16.1632  -42.9575 H         1 UNK         0.3000 
    165 H165       -2.0547  -15.8610  -42.4929 H         1 UNK         0.0600 
    166 H166       -0.4268  -16.5142  -39.9804 H         1 UNK         0.0600 
    167 H167       -1.9331  -15.5966  -40.0329 H         1 UNK         0.0600 
    168 H168       -1.9290  -17.3012  -40.4499 H         1 UNK         0.0600 
    169 H169       -0.1425  -14.3419  -41.1517 H         1 UNK         0.3000 
    170 H170        0.1854  -11.9706  -43.5732 H         1 UNK         0.0600 
    171 H171        0.7796  -11.0894  -41.3652 H         1 UNK         0.0600 
    172 H172        0.9032  -12.7034  -40.6817 H         1 UNK         0.0600 
    173 H173       -0.6590  -12.0787  -41.2137 H         1 UNK         0.0600 
    174 H174        2.3490  -11.9117  -43.8064 H         1 UNK         0.3000 
    175 H175        5.0022  -13.1740  -42.0971 H         1 UNK         0.0600 
    176 H176        6.1940  -14.2932  -43.9398 H         1 UNK         0.0600 
    177 H177        4.9517  -15.3536  -43.3120 H         1 UNK         0.0600 
    178 H178        4.6987  -14.5152  -44.8365 H         1 UNK         0.0600 
    179 H179        3.9901  -11.5824  -44.3333 H         1 UNK         0.3000 
    180 H180        5.9627   -9.1859  -43.8353 H         1 UNK         0.0600 
    181 H181        7.6413  -10.7527  -45.8658 H         1 UNK         0.0600 
    182 H182        8.2459   -9.9336  -44.4294 H         1 UNK         0.0600 
    183 H183        7.5719   -8.9949  -45.7487 H         1 UNK         0.0600 
    184 H184        4.9442  -10.6993  -46.2032 H         1 UNK         0.3000 
    185 H185        2.4308   -8.3109  -46.7055 H         1 UNK         0.0600 
    186 H186        3.1707   -8.1511  -49.0616 H         1 UNK         0.0600 
    187 H187        4.2288   -7.1917  -48.0414 H         1 UNK         0.0600 
    188 H188        4.7717   -8.7570  -48.6332 H         1 UNK         0.0600 
    189 H189        2.9644  -10.4865  -48.3370 H         1 UNK         0.3000 
    190 H190       -2.3949  -21.2746  -47.8801 H         1 UNK         0.3000 
    191 H191       -3.7539  -22.6650  -49.9202 H         1 UNK         0.0600 
    192 H192       -4.5018  -20.4874  -48.8435 H         1 UNK         0.0600 
    193 H193       -5.7828  -21.6815  -48.9786 H         1 UNK         0.0600 
    194 H194       -5.0110  -21.3906  -47.4290 H         1 UNK         0.0600 
    195 H195       -3.7371  -23.2578  -46.3614 H         1 UNK         0.3000 
    196 H196       -5.4337  -25.5026  -46.3428 H         1 UNK         0.0600 
    197 H197       -4.4621  -25.8951  -44.0704 H         1 UNK         0.0600 
    198 H198       -4.8722  -24.2042  -44.3157 H         1 UNK         0.0600 
    199 H199       -3.1913  -24.7245  -44.4045 H         1 UNK         0.0600 
    200 H200       -1.8544  -25.3596  -46.6350 H         1 UNK         0.3000 
    201 H201       -1.3589  -28.1459  -46.6865 H         1 UNK         0.0600 
    202 H202        0.4085  -26.4449  -46.3314 H         1 UNK         0.0600 
    203 H203        0.1974  -25.8394  -47.9730 H         1 UNK         0.0600 
    204 H204        0.8227  -27.4621  -47.7030 H         1 UNK         0.0600 
    205 H205       -2.3947  -25.9433  -49.2504 H         1 UNK         0.3000 
    206 H206       -2.2441  -27.9990  -51.3662 H         1 UNK         0.0600 
    207 H207       -1.5118  -25.6932  -51.8686 H         1 UNK         0.0600 
    208 H208       -2.9569  -26.0593  -52.7977 H         1 UNK         0.0600 
    209 H209       -3.0690  -25.0588  -51.3509 H         1 UNK         0.0600 
    210 H210       -4.3139  -27.6615  -48.8889 H         1 UNK         0.3000 
    211 H211       -6.3948  -28.1725  -48.3849 H         1 UNK         0.0600 
    212 H212       -6.4586  -29.7250  -51.0265 H         1 UNK         0.0600 
    213 H213       -7.4946  -29.9948  -49.6313 H         1 UNK         0.0600 
    214 H214       -5.7742  -30.3219  -49.5150 H         1 UNK         0.0600 
    215 H215       -5.9999  -25.6829  -49.7347 H         1 UNK         0.3000 
    216 H216       -6.9885  -23.9108  -50.5104 H         1 UNK         0.0600 
    217 H217       -8.7329  -24.4197  -48.7869 H         1 UNK         0.0600 
    218 H218       -9.6829  -25.2744  -50.0026 H         1 UNK         0.0600 
    219 H219       -9.3944  -23.5483  -50.1590 H         1 UNK         0.0600 
    220 H220       -6.6206  -26.4150  -52.3882 H         1 UNK         0.3000 
    221 H221       -8.4006  -25.7781  -54.6228 H         1 UNK         0.0600 
    222 H222       -5.9978  -27.6704  -54.4403 H         1 UNK         0.0600 
    223 H223       -7.6718  -28.1202  -54.1156 H         1 UNK         0.0600 
    224 H224       -7.1907  -27.6217  -55.7309 H         1 UNK         0.0600 
    225 H225       -5.3325  -24.6359  -53.4689 H         1 UNK         0.3000 
    226 H226       -4.9261  -22.7873  -55.5986 H         1 UNK         0.0600 
    227 H227       -3.9621  -24.8589  -56.7097 H         1 UNK         0.0600 
    228 H228       -2.7033  -23.6980  -56.3526 H         1 UNK         0.0600 
    229 H229       -2.9106  -25.1070  -55.3191 H         1 UNK         0.0600 
    230 H230       -2.5312  -21.8824  -55.1467 H         1 UNK         0.3000 
    231 H231       -1.0985  -20.7908  -53.8800 H         1 UNK         0.0600 
    232 H232        0.0532  -22.0846  -52.1528 H         1 UNK         0.0600 
    233 H233       -0.4055  -23.1784  -53.4451 H         1 UNK         0.0600 
    234 H234       -1.3319  -23.1474  -51.9454 H         1 UNK         0.0600 
    235 H235       -3.9451  -20.1460  -53.2987 H         1 UNK         0.3000 
    236 H236       -3.8254  -19.1793  -50.4953 H         1 UNK         0.0600 
    237 H237       -6.2277  -18.6764  -50.8553 H         1 UNK         0.0600 
    238 H238       -6.1145  -19.1837  -52.5371 H         1 UNK         0.0600 
    239 H239       -5.8965  -20.3587  -51.2424 H         1 UNK         0.0600 
    240 H240       -3.2931  -17.1610  -50.0583 H         1 UNK         0.3000 
    241 H241       -3.4793  -15.0080  -52.1109 H         1 UNK         0.0600 
    242 H242       -5.0943  -15.9341  -49.4197 H         1 UNK         0.3800 
    243 H243       -5.3060  -14.3649  -48.6980 H         1 UNK         0.3800 
    244 H244       -1.3520  -14.0567  -50.9497 H         1 UNK         0.0800 
    245 H245       -1.1383  -15.6325  -50.2469 H         1 UNK         0.0800 
    246 H246       -0.9932  -17.8637  -51.8810 H         1 UNK         0.0800 
    247 H247        0.1382  -17.7567  -53.2033 H         1 UNK         0.0800 
@<TRIPOS>BOND
     1    1    2 1    
     2    1  127 1    
     3    1  128 1    
     4    1  129 1    
     5    2    3 2    
     6    2    4 am   BACKBONE|DICT|INTERRES
     7    4    5 1    
     8    4  130 1    
     9    5    6 1    
    10    5   65 1    
    11    5  131 1    
    12    6    7 1    
    13    6  132 1    
    14    6  133 1    
    15    7    8 1    
    16    8    9 1    
    17    8  134 1    
    18    8  135 1    
    19    9   10 ar   
    20    9   14 ar   
    21   10   11 ar   
    22   10  136 1    
    23   11   12 ar   
    24   11  126 1    
    25   12   13 ar   
    26   12  137 1    
    27   13   14 ar   
    28   13   15 1    
    29   14  138 1    
    30   15   16 1    
    31   15  139 1    
    32   15  140 1    
    33   16   17 1    
    34   17   18 1    
    35   17  141 1    
    36   17  142 1    
    37   18   19 1    
    38   18   67 1    
    39   18  143 1    
    40   19   20 am   BACKBONE|DICT|INTERRES
    41   19  144 1    
    42   20   21 2    
    43   20   22 1    
    44   22   23 1    
    45   22   24 1    
    46   22  145 1    
    47   23  146 1    
    48   23  147 1    
    49   23  148 1    
    50   24   25 am   BACKBONE|DICT|INTERRES
    51   24  149 1    
    52   25   26 2    
    53   25   27 1    
    54   27   28 1    
    55   27   29 1    
    56   27  150 1    
    57   28  151 1    
    58   28  152 1    
    59   28  153 1    
    60   29   30 am   BACKBONE|DICT|INTERRES
    61   29  154 1    
    62   30   31 2    
    63   30   32 1    
    64   32   33 1    
    65   32   34 1    
    66   32  155 1    
    67   33  156 1    
    68   33  157 1    
    69   33  158 1    
    70   34   35 am   BACKBONE|DICT|INTERRES
    71   34  159 1    
    72   35   36 2    
    73   35   37 1    
    74   37   38 1    
    75   37   39 1    
    76   37  160 1    
    77   38  161 1    
    78   38  162 1    
    79   38  163 1    
    80   39   40 am   BACKBONE|DICT|INTERRES
    81   39  164 1    
    82   40   41 2    
    83   40   42 1    
    84   42   43 1    
    85   42   44 1    
    86   42  165 1    
    87   43  166 1    
    88   43  167 1    
    89   43  168 1    
    90   44   45 am   BACKBONE|DICT|INTERRES
    91   44  169 1    
    92   45   46 2    
    93   45   47 1    
    94   47   48 1    
    95   47   49 1    
    96   47  170 1    
    97   48  171 1    
    98   48  172 1    
    99   48  173 1    
   100   49   50 am   BACKBONE|DICT|INTERRES
   101   49  174 1    
   102   50   51 2    
   103   50   52 1    
   104   52   53 1    
   105   52   54 1    
   106   52  175 1    
   107   53  176 1    
   108   53  177 1    
   109   53  178 1    
   110   54   55 am   BACKBONE|DICT|INTERRES
   111   54  179 1    
   112   55   56 2    
   113   55   57 1    
   114   57   58 1    
   115   57   59 1    
   116   57  180 1    
   117   58  181 1    
   118   58  182 1    
   119   58  183 1    
   120   59   60 am   BACKBONE|DICT|INTERRES
   121   59  184 1    
   122   60   61 2    
   123   60   62 1    
   124   62   63 1    
   125   62   64 1    
   126   62  185 1    
   127   63  186 1    
   128   63  187 1    
   129   63  188 1    
   130   64   65 am   BACKBONE|DICT|INTERRES
   131   64  189 1    
   132   65   66 2    
   133   67   68 2    
   134   67   69 am   BACKBONE|DICT|INTERRES
   135   69   70 1    
   136   69  190 1    
   137   70   71 1    
   138   70   72 1    
   139   70  191 1    
   140   71  192 1    
   141   71  193 1    
   142   71  194 1    
   143   72   73 2    
   144   72   74 am   BACKBONE|DICT|INTERRES
   145   74   75 1    
   146   74  195 1    
   147   75   76 1    
   148   75   77 1    
   149   75  196 1    
   150   76  197 1    
   151   76  198 1    
   152   76  199 1    
   153   77   78 2    
   154   77   79 am   BACKBONE|DICT|INTERRES
   155   79   80 1    
   156   79  200 1    
   157   80   81 1    
   158   80   82 1    
   159   80  201 1    
   160   81  202 1    
   161   81  203 1    
   162   81  204 1    
   163   82   83 2    
   164   82   84 am   BACKBONE|DICT|INTERRES
   165   84   85 1    
   166   84  205 1    
   167   85   86 1    
   168   85   87 1    
   169   85  206 1    
   170   86  207 1    
   171   86  208 1    
   172   86  209 1    
   173   87   88 2    
   174   87   89 am   BACKBONE|DICT|INTERRES
   175   89   90 1    
   176   89  210 1    
   177   90   91 1    
   178   90   92 1    
   179   90  211 1    
   180   91  212 1    
   181   91  213 1    
   182   91  214 1    
   183   92   93 2    
   184   92   94 am   BACKBONE|DICT|INTERRES
   185   94   95 1    
   186   94  215 1    
   187   95   96 1    
   188   95   97 1    
   189   95  216 1    
   190   96  217 1    
   191   96  218 1    
   192   96  219 1    
   193   97   98 2    
   194   97   99 am   BACKBONE|DICT|INTERRES
   195   99  100 1    
   196   99  220 1    
   197  100  101 1    
   198  100  102 1    
   199  100  221 1    
   200  101  222 1    
   201  101  223 1    
   202  101  224 1    
   203  102  103 2    
   204  102  104 am   BACKBONE|DICT|INTERRES
   205  104  105 1    
   206  104  225 1    
   207  105  106 1    
   208  105  107 1    
   209  105  226 1    
   210  106  227 1    
   211  106  228 1    
   212  106  229 1    
   213  107  108 2    
   214  107  109 am   BACKBONE|DICT|INTERRES
   215  109  110 1    
   216  109  230 1    
   217  110  111 1    
   218  110  112 1    
   219  110  231 1    
   220  111  232 1    
   221  111  233 1    
   222  111  234 1    
   223  112  113 2    
   224  112  114 am   BACKBONE|DICT|INTERRES
   225  114  115 1    
   226  114  235 1    
   227  115  116 1    
   228  115  117 1    
   229  115  236 1    
   230  116  237 1    
   231  116  238 1    
   232  116  239 1    
   233  117  118 2    
   234  117  119 am   BACKBONE|DICT|INTERRES
   235  119  120 1    
   236  119  240 1    
   237  120  121 1    
   238  120  124 1    
   239  120  241 1    
   240  121  122 am   BACKBONE|DICT|INTERRES
   241  121  123 2    
   242  122  242 1    
   243  122  243 1    
   244  124  125 1    
   245  124  244 1    
   246  124  245 1    
   247  125  126 1    
   248  126  246 1    
   249  126  247 1    
@<TRIPOS>SUBSTRUCTURE
     1 UNK         1 GROUP             0       ****    0 ROOT    
