@<TRIPOS>MOLECULE
3R540
247   249    1
SMALL
USER_CHARGES


@<TRIPOS>ATOM
      1 CA          0.8746  -11.4954  -47.3979 C.3       0 UNK        -0.1800 
      2 C           2.2280  -12.1154  -47.7112 C.2       0 UNK         0.5000 
      3 O           3.2543  -11.6116  -47.2553 O.2       0 UNK        -0.5000 
      4 N           2.2308  -13.2131  -48.4799 N.am      1 UNK        -0.5000 
      5 CA          3.4264  -13.9384  -48.9352 C.3       1 UNK         0.1400 
      6 C6          3.0451  -15.0585  -49.9326 C.3       23 UNK        -0.0398 
      7 S7          4.4249  -15.5638  -51.0180 S.3       23 UNK        -0.2404 
      8 C8          4.8646  -17.2018  -50.3296 C.3       23 UNK        -0.0205 
      9 C9          3.7887  -18.2878  -50.4236 C.ar      23 UNK        -0.0193 
     10 C10         2.6341  -18.1486  -51.2040 C.ar      23 UNK        -0.1150 
     11 C11         1.6602  -19.1487  -51.2330 C.ar      23 UNK        -0.0193 
     12 C12         1.8543  -20.3198  -50.4963 C.ar      23 UNK        -0.1150 
     13 C13         3.0184  -20.4935  -49.7405 C.ar      23 UNK        -0.0193 
     14 C14         3.9744  -19.4734  -49.7058 C.ar      23 UNK        -0.1150 
     15 C15         3.2621  -21.7977  -48.9927 C.3       23 UNK        -0.0205 
     16 S16         3.3562  -21.5895  -47.1826 S.3       23 UNK        -0.2404 
     17 C17         1.7064  -20.9358  -46.7613 C.3       23 UNK        -0.0398 
     18 CA          0.6835  -22.0409  -46.3949 C.3       11 UNK         0.1400 
     19 N          -0.3717  -21.5409  -45.5105 N.am      11 UNK        -0.5000 
     20 C          -1.3331  -22.2880  -44.9493 C.2       10 UNK         0.5000 
     21 O          -1.4060  -23.5117  -45.0631 O.2       10 UNK        -0.5000 
     22 CA         -2.4301  -21.5347  -44.1737 C.3       10 UNK         0.1400 
     23 CB         -1.9626  -21.1883  -42.7525 C.3       10 UNK        -0.1800 
     24 N          -2.8739  -20.3194  -44.8595 N.am      10 UNK        -0.5000 
     25 C          -3.4602  -20.3062  -46.0656 C.2       9 UNK         0.5000 
     26 O          -3.7228  -21.3208  -46.7098 O.2       9 UNK        -0.5000 
     27 CA         -3.7532  -18.9289  -46.6813 C.3       9 UNK         0.1400 
     28 CB         -4.9754  -18.2791  -46.0125 C.3       9 UNK        -0.1800 
     29 N          -2.6100  -18.0183  -46.6059 N.am      9 UNK        -0.5000 
     30 C          -1.4045  -18.2421  -47.1494 C.2       8 UNK         0.5000 
     31 O          -1.1374  -19.2234  -47.8396 O.2       8 UNK        -0.5000 
     32 CA         -0.2884  -17.2395  -46.8004 C.3       8 UNK         0.1400 
     33 CB         -0.3768  -15.9789  -47.6731 C.3       8 UNK        -0.1800 
     34 N          -0.3049  -16.8617  -45.3859 N.am      8 UNK        -0.5000 
     35 C          -0.1087  -17.7163  -44.3702 C.2       7 UNK         0.5000 
     36 O           0.1633  -18.9056  -44.5224 O.2       7 UNK        -0.5000 
     37 CA         -0.2964  -17.1642  -42.9479 C.3       7 UNK         0.1400 
     38 CB          0.9506  -16.4082  -42.4682 C.3       7 UNK        -0.1800 
     39 N          -1.4686  -16.2963  -42.8620 N.am      7 UNK        -0.5000 
     40 C          -2.7321  -16.7367  -42.9389 C.2       6 UNK         0.5000 
     41 O          -3.0358  -17.9265  -43.0275 O.2       6 UNK        -0.5000 
     42 CA         -3.8349  -15.6624  -42.9616 C.3       6 UNK         0.1400 
     43 CB         -4.2237  -15.2570  -41.5322 C.3       6 UNK        -0.1800 
     44 N          -3.4380  -14.4697  -43.7127 N.am      6 UNK        -0.5000 
     45 C          -3.2353  -14.4399  -45.0380 C.2       5 UNK         0.5000 
     46 O          -3.4038  -15.4073  -45.7775 O.2       5 UNK        -0.5000 
     47 CA         -2.6989  -13.1228  -45.6250 C.3       5 UNK         0.1400 
     48 CB         -3.8533  -12.1688  -45.9629 C.3       5 UNK        -0.1800 
     49 N          -1.7516  -12.4537  -44.7290 N.am      5 UNK        -0.5000 
     50 C          -0.5450  -12.9409  -44.4158 C.2       4 UNK         0.5000 
     51 O          -0.0945  -13.9999  -44.8631 O.2       4 UNK        -0.5000 
     52 CA          0.2853  -12.1286  -43.4177 C.3       4 UNK         0.1400 
     53 CB         -0.0345  -12.5474  -41.9716 C.3       4 UNK        -0.1800 
     54 N           1.6940  -12.3528  -43.7136 N.am      4 UNK        -0.5000 
     55 C           2.7070  -11.5555  -43.3600 C.2       3 UNK         0.5000 
     56 O           2.5592  -10.5447  -42.6711 O.2       3 UNK        -0.5000 
     57 CA          4.1134  -11.9004  -43.8944 C.3       3 UNK         0.1400 
     58 CB          5.1759  -11.9157  -42.7757 C.3       3 UNK        -0.1800 
     59 N           4.1778  -13.1118  -44.7242 N.am      3 UNK        -0.5000 
     60 C           4.1031  -14.3973  -44.3455 C.2       2 UNK         0.5000 
     61 O           3.9423  -14.7587  -43.1803 O.2       2 UNK        -0.5000 
     62 CA          4.2026  -15.4479  -45.4723 C.3       2 UNK         0.1400 
     63 CB          3.5338  -16.7836  -45.1094 C.3       2 UNK        -0.1800 
     64 N           3.5990  -14.9478  -46.7078 N.am      2 UNK        -0.5000 
     65 C           4.2756  -14.4943  -47.7702 C.2       1 UNK         0.5000 
     66 O           5.5046  -14.4664  -47.8385 O.2       1 UNK        -0.5000 
     67 C           0.0941  -22.6998  -47.6571 C.2       11 UNK         0.5000 
     68 O           0.4395  -23.8393  -47.9677 O.2       11 UNK        -0.5000 
     69 N          -0.8085  -21.9857  -48.3424 N.am      12 UNK        -0.5000 
     70 CA         -1.4944  -22.4536  -49.5432 C.3       12 UNK         0.1400 
     71 CB         -2.2950  -21.3023  -50.1592 C.3       12 UNK        -0.1800 
     72 C          -2.3888  -23.6772  -49.2861 C.2       12 UNK         0.5000 
     73 O          -2.3939  -24.5942  -50.1048 O.2       12 UNK        -0.5000 
     74 N          -3.0875  -23.7007  -48.1430 N.am      13 UNK        -0.5000 
     75 CA         -3.8801  -24.8411  -47.6841 C.3       13 UNK         0.1400 
     76 CB         -4.6813  -24.4508  -46.4334 C.3       13 UNK        -0.1800 
     77 C          -3.0175  -26.0883  -47.4176 C.2       13 UNK         0.5000 
     78 O          -3.3768  -27.1759  -47.8688 O.2       13 UNK        -0.5000 
     79 N          -1.8765  -25.9053  -46.7363 N.am      14 UNK        -0.5000 
     80 CA         -0.8920  -26.9570  -46.4650 C.3       14 UNK         0.1400 
     81 CB          0.1594  -26.4337  -45.4747 C.3       14 UNK        -0.1800 
     82 C          -0.2192  -27.4972  -47.7421 C.2       14 UNK         0.5000 
     83 O           0.0251  -28.7001  -47.8397 O.2       14 UNK        -0.5000 
     84 N           0.0343  -26.6058  -48.7091 N.am      15 UNK        -0.5000 
     85 CA          0.5696  -26.9236  -50.0346 C.3       15 UNK         0.1400 
     86 CB          1.1237  -25.6336  -50.6620 C.3       15 UNK        -0.1800 
     87 C          -0.4573  -27.5808  -50.9822 C.2       15 UNK         0.5000 
     88 O          -0.0614  -28.0579  -52.0466 O.2       15 UNK        -0.5000 
     89 N          -1.7435  -27.5773  -50.5980 N.am      16 UNK        -0.5000 
     90 CA         -2.9104  -28.0214  -51.3695 C.3       16 UNK         0.1400 
     91 CB         -2.8582  -29.5401  -51.6374 C.3       16 UNK        -0.1800 
     92 C          -3.1339  -27.1793  -52.6454 C.2       16 UNK         0.5000 
     93 O          -3.5372  -27.7092  -53.6830 O.2       16 UNK        -0.5000 
     94 N          -2.8623  -25.8751  -52.5322 N.am      17 UNK        -0.5000 
     95 CA         -3.0715  -24.8530  -53.5504 C.3       17 UNK         0.1400 
     96 CB         -1.8332  -23.9337  -53.5656 C.3       17 UNK        -0.1800 
     97 C          -4.3809  -24.0897  -53.2587 C.2       17 UNK         0.5000 
     98 O          -5.2831  -24.6278  -52.6109 O.2       17 UNK        -0.5000 
     99 N          -4.4764  -22.8486  -53.7528 N.am      18 UNK        -0.5000 
    100 CA        -5.5910  -21.9305  -53.5251 C.3       18 UNK         0.1400 
    101 CB        -5.5066  -20.7867  -54.5496 C.3       18 UNK        -0.1800 
    102 C         -5.5825  -21.4059  -52.0768 C.2       18 UNK         0.5000 
    103 O         -4.9503  -20.3882  -51.7937 O.2       18 UNK        -0.5000 
    104 N         -6.2675  -22.1267  -51.1802 N.am      19 UNK        -0.5000 
    105 CA        -6.3272  -21.8722  -49.7369 C.3       19 UNK         0.1400 
    106 CB        -7.1514  -22.9856  -49.0738 C.3       19 UNK        -0.1800 
    107 C         -6.8803  -20.4882  -49.3406 C.2       19 UNK         0.5000 
    108 O         -6.5877  -20.0157  -48.2442 O.2       19 UNK        -0.5000 
    109 N         -7.6411  -19.8416  -50.2331 N.am      20 UNK        -0.5000 
    110 CA        -8.1948  -18.4943  -50.0784 C.3       20 UNK         0.1400 
    111 CB        -9.3900  -18.3479  -51.0380 C.3       20 UNK        -0.1800 
    112 C         -7.1343  -17.3827  -50.2700 C.2       20 UNK         0.5000 
    113 O         -7.3322  -16.4767  -51.0807 O.2       20 UNK        -0.5000 
    114 N         -6.0349  -17.4742  -49.5083 N.am      21 UNK        -0.5000 
    115 CA        -4.8884  -16.5580  -49.4722 C.3       21 UNK         0.1400 
    116 CB        -5.2957  -15.1909  -48.8828 C.3       21 UNK        -0.1800 
    117 C         -4.1428  -16.4497  -50.8194 C.2       21 UNK         0.5000 
    118 O         -3.7890  -15.3460  -51.2397 O.2       21 UNK        -0.5000 
    119 N         -3.8950  -17.6078  -51.4470 N.am      22 UNK        -0.5000 
    120 CA        -3.1691  -17.7871  -52.7167 C.3       22 UNK         0.1400 
    121 C         -3.9805  -17.3418  -53.9717 C.2       22 UNK         0.5000 
    122 N         -3.4451  -17.5427  -55.1697 N.am      22 UNK        -0.7600 
    123 O         -5.0998  -16.8414  -53.8928 O.2       22 UNK        -0.5000 
    124 C124       -1.7277  -17.1966  -52.7045 C.3       23 UNK        -0.0398 
    125 S125       -0.7132  -17.7529  -51.2902 S.3       23 UNK        -0.2404 
    126 C126        0.4123  -18.9471  -52.0772 C.3       23 UNK        -0.0205 
    127 H127        0.0698  -12.2262  -47.4821 H         1 UNK         0.0600 
    128 H128        0.6702  -10.6756  -48.0861 H         1 UNK         0.0600 
    129 H129        0.8668  -11.0964  -46.3840 H         1 UNK         0.0600 
    130 H130        1.3496  -13.5590  -48.8310 H         1 UNK         0.3000 
    131 H131        4.0430  -13.2069  -49.4623 H         1 UNK         0.0600 
    132 H132        2.2556  -14.7061  -50.5980 H         1 UNK         0.0800 
    133 H133        2.6227  -15.9204  -49.4129 H         1 UNK         0.0800 
    134 H134        5.7547  -17.5586  -50.8491 H         1 UNK         0.0800 
    135 H135        5.1518  -17.0703  -49.2852 H         1 UNK         0.0800 
    136 H136        2.4673  -17.2560  -51.7881 H         1 UNK         0.1150 
    137 H137        1.1071  -21.0996  -50.5239 H         1 UNK         0.1150 
    138 H138        4.8702  -19.6070  -49.1152 H         1 UNK         0.1150 
    139 H139        2.4984  -22.5359  -49.2380 H         1 UNK         0.0800 
    140 H140        4.2051  -22.2232  -49.3383 H         1 UNK         0.0800 
    141 H141        1.3381  -20.2780  -47.5496 H         1 UNK         0.0800 
    142 H142        1.8669  -20.2880  -45.8996 H         1 UNK         0.0800 
    143 H143        1.2049  -22.8188  -45.8328 H         1 UNK         0.0600 
    144 H144       -0.3621  -20.5428  -45.3166 H         1 UNK         0.3000 
    145 H145       -3.2921  -22.1999  -44.0921 H         1 UNK         0.0600 
    146 H146       -2.7616  -20.7183  -42.1789 H         1 UNK         0.0600 
    147 H147       -1.6583  -22.0859  -42.2128 H         1 UNK         0.0600 
    148 H148       -1.1125  -20.5062  -42.7606 H         1 UNK         0.0600 
    149 H149       -2.7226  -19.4402  -44.3761 H         1 UNK         0.3000 
    150 H150       -3.9811  -19.0920  -47.7359 H         1 UNK         0.0600 
    151 H151       -5.8303  -18.9551  -46.0066 H         1 UNK         0.0600 
    152 H152       -5.2799  -17.3728  -46.5343 H         1 UNK         0.0600 
    153 H153       -4.7752  -18.0126  -44.9767 H         1 UNK         0.0600 
    154 H154       -2.7610  -17.1489  -46.1010 H         1 UNK         0.3000 
    155 H155        0.6697  -17.7234  -47.0022 H         1 UNK         0.0600 
    156 H156       -1.3375  -15.4765  -47.5623 H         1 UNK         0.0600 
    157 H157       -0.2575  -16.2281  -48.7275 H         1 UNK         0.0600 
    158 H158        0.4050  -15.2659  -47.4150 H         1 UNK         0.0600 
    159 H159       -0.4745  -15.8828  -45.1761 H         1 UNK         0.3000 
    160 H160       -0.4500  -18.0137  -42.2788 H         1 UNK         0.0600 
    161 H161        1.1670  -15.5398  -43.0899 H         1 UNK         0.0600 
    162 H162        1.8297  -17.0532  -42.4916 H         1 UNK         0.0600 
    163 H163        0.8320  -16.0634  -41.4411 H         1 UNK         0.0600 
    164 H164       -1.3014  -15.3029  -42.8275 H         1 UNK         0.3000 
    165 H165       -4.7135  -16.0935  -43.4455 H         1 UNK         0.0600 
    166 H166       -5.0531  -14.5496  -41.5350 H         1 UNK         0.0600 
    167 H167       -4.5410  -16.1257  -40.9536 H         1 UNK         0.0600 
    168 H168       -3.3898  -14.7956  -41.0015 H         1 UNK         0.0600 
    169 H169       -3.2830  -13.6257  -43.1820 H         1 UNK         0.3000 
    170 H170       -2.1761  -13.3633  -46.5530 H         1 UNK         0.0600 
    171 H171       -4.5623  -12.6414  -46.6444 H         1 UNK         0.0600 
    172 H172       -4.4048  -11.8687  -45.0711 H         1 UNK         0.0600 
    173 H173       -3.4874  -11.2658  -46.4521 H         1 UNK         0.0600 
    174 H174       -2.0525  -11.5776  -44.3261 H         1 UNK         0.3000 
    175 H175        0.0549  -11.0699  -43.5540 H         1 UNK         0.0600 
    176 H176       -1.0949  -12.4215  -41.7497 H         1 UNK         0.0600 
    177 H177        0.2200  -13.5911  -41.7886 H         1 UNK         0.0600 
    178 H178        0.5181  -11.9415  -41.2535 H         1 UNK         0.0600 
    179 H179        1.8770  -13.1623  -44.2909 H         1 UNK         0.3000 
    180 H180        4.3727  -11.0830  -44.5687 H         1 UNK         0.0600 
    181 H181        4.9416  -12.6446  -41.9998 H         1 UNK         0.0600 
    182 H182        5.2446  -10.9412  -42.2910 H         1 UNK         0.0600 
    183 H183        6.1642  -12.1495  -43.1716 H         1 UNK         0.0600 
    184 H184        4.2560  -12.9253  -45.7168 H         1 UNK         0.3000 
    185 H185        5.2664  -15.6441  -45.6196 H         1 UNK         0.0600 
    186 H186        3.9658  -17.2147  -44.2057 H         1 UNK         0.0600 
    187 H187        2.4682  -16.6521  -44.9393 H         1 UNK         0.0600 
    188 H188        3.6553  -17.5160  -45.9079 H         1 UNK         0.0600 
    189 H189        2.5914  -14.8876  -46.7201 H         1 UNK         0.3000 
    190 H190       -1.0237  -21.0367  -48.0401 H         1 UNK         0.3000 
    191 H191       -0.7290  -22.7508  -50.2622 H         1 UNK         0.0600 
    192 H192       -3.0955  -20.9646  -49.5007 H         1 UNK         0.0600 
    193 H193       -2.7415  -21.6102  -51.1038 H         1 UNK         0.0600 
    194 H194       -1.6568  -20.4449  -50.3665 H         1 UNK         0.0600 
    195 H195       -3.0806  -22.8786  -47.5435 H         1 UNK         0.3000 
    196 H196       -4.5885  -25.0907  -48.4765 H         1 UNK         0.0600 
    197 H197       -5.3114  -25.2761  -46.0999 H         1 UNK         0.0600 
    198 H198       -5.3346  -23.6017  -46.6318 H         1 UNK         0.0600 
    199 H199       -4.0281  -24.1793  -45.6041 H         1 UNK         0.0600 
    200 H200       -1.6641  -24.9813  -46.3707 H         1 UNK         0.3000 
    201 H201       -1.4168  -27.7896  -45.9921 H         1 UNK         0.0600 
    202 H202       -0.3024  -26.1282  -44.5357 H         1 UNK         0.0600 
    203 H203        0.6990  -25.5752  -45.8755 H         1 UNK         0.0600 
    204 H204        0.8945  -27.2046  -45.2405 H         1 UNK         0.0600 
    205 H205       -0.1221  -25.6214  -48.5102 H         1 UNK         0.3000 
    206 H206        1.3966  -27.6258  -49.9122 H         1 UNK         0.0600 
    207 H207        1.8846  -25.1796  -50.0268 H         1 UNK         0.0600 
    208 H208        1.5859  -25.8335  -51.6294 H         1 UNK         0.0600 
    209 H209        0.3365  -24.8966  -50.8217 H         1 UNK         0.0600 
    210 H210       -1.9593  -27.1421  -49.7103 H         1 UNK         0.3000 
    211 H211       -3.7761  -27.8328  -50.7331 H         1 UNK         0.0600 
    212 H212       -2.0582  -29.8051  -52.3289 H         1 UNK         0.0600 
    213 H213       -3.7943  -29.8908  -52.0733 H         1 UNK         0.0600 
    214 H214       -2.7027  -30.0973  -50.7136 H         1 UNK         0.0600 
    215 H215       -2.6087  -25.5186  -51.6115 H         1 UNK         0.3000 
    216 H216       -3.1707  -25.3163  -54.5338 H         1 UNK         0.0600 
    217 H217       -1.7485  -23.3548  -52.6454 H         1 UNK         0.0600 
    218 H218       -1.8616  -23.2336  -54.4010 H         1 UNK         0.0600 
    219 H219       -0.9172  -24.5154  -53.6728 H         1 UNK         0.0600 
    220 H220       -3.6902  -22.4722  -54.2612 H         1 UNK         0.3000 
    221 H221       -6.5300  -22.4619  -53.6944 H         1 UNK         0.0600 
    222 H222       -5.6365  -21.1587  -55.5659 H         1 UNK         0.0600 
    223 H223       -4.5457  -20.2743  -54.5032 H         1 UNK         0.0600 
    224 H224       -6.2845  -20.0424  -54.3733 H         1 UNK         0.0600 
    225 H225       -6.7009  -22.9832  -51.4978 H         1 UNK         0.3000 
    226 H226       -5.3082  -21.9308  -49.3503 H         1 UNK         0.0600 
    227 H227       -6.7028  -23.9641  -49.2451 H         1 UNK         0.0600 
    228 H228       -7.2106  -22.8400  -47.9944 H         1 UNK         0.0600 
    229 H229       -8.1722  -23.0113  -49.4569 H         1 UNK         0.0600 
    230 H230       -7.8016  -20.2900  -51.1224 H         1 UNK         0.3000 
    231 H231       -8.5771  -18.3937  -49.0605 H         1 UNK         0.0600 
    232 H232       -9.0814  -18.4350  -52.0806 H         1 UNK         0.0600 
    233 H233       -9.8740  -17.3779  -50.9172 H         1 UNK         0.0600 
    234 H234      -10.1455  -19.1101  -50.8465 H         1 UNK         0.0600 
    235 H235       -5.9885  -18.2761  -48.8867 H         1 UNK         0.3000 
    236 H236       -4.1672  -16.9935  -48.7823 H         1 UNK         0.0600 
    237 H237       -4.4216  -14.5565  -48.7311 H         1 UNK         0.0600 
    238 H238       -5.9819  -14.6541  -49.5382 H         1 UNK         0.0600 
    239 H239       -5.7777  -15.3070  -47.9121 H         1 UNK         0.0600 
    240 H240       -4.2952  -18.4620  -51.0789 H         1 UNK         0.3000 
    241 H241       -3.0659  -18.8673  -52.8200 H         1 UNK         0.0600 
    242 H242       -3.9692  -17.2644  -55.9847 H         1 UNK         0.3800 
    243 H243       -2.5426  -17.9736  -55.2912 H         1 UNK         0.3800 
    244 H244       -1.7630  -16.1069  -52.6804 H         1 UNK         0.0800 
    245 H245       -1.2044  -17.4451  -53.6277 H         1 UNK         0.0800 
    246 H246       -0.1112  -19.8908  -52.2366 H         1 UNK         0.0800 
    247 H247        0.7138  -18.5877  -53.0619 H         1 UNK         0.0800 
@<TRIPOS>BOND
     1    1    2 1    
     2    1  127 1    
     3    1  128 1    
     4    1  129 1    
     5    2    3 2    
     6    2    4 am   BACKBONE|DICT|INTERRES
     7    4    5 1    
     8    4  130 1    
     9    5    6 1    
    10    5   65 1    
    11    5  131 1    
    12    6    7 1    
    13    6  132 1    
    14    6  133 1    
    15    7    8 1    
    16    8    9 1    
    17    8  134 1    
    18    8  135 1    
    19    9   10 ar   
    20    9   14 ar   
    21   10   11 ar   
    22   10  136 1    
    23   11   12 ar   
    24   11  126 1    
    25   12   13 ar   
    26   12  137 1    
    27   13   14 ar   
    28   13   15 1    
    29   14  138 1    
    30   15   16 1    
    31   15  139 1    
    32   15  140 1    
    33   16   17 1    
    34   17   18 1    
    35   17  141 1    
    36   17  142 1    
    37   18   19 1    
    38   18   67 1    
    39   18  143 1    
    40   19   20 am   BACKBONE|DICT|INTERRES
    41   19  144 1    
    42   20   21 2    
    43   20   22 1    
    44   22   23 1    
    45   22   24 1    
    46   22  145 1    
    47   23  146 1    
    48   23  147 1    
    49   23  148 1    
    50   24   25 am   BACKBONE|DICT|INTERRES
    51   24  149 1    
    52   25   26 2    
    53   25   27 1    
    54   27   28 1    
    55   27   29 1    
    56   27  150 1    
    57   28  151 1    
    58   28  152 1    
    59   28  153 1    
    60   29   30 am   BACKBONE|DICT|INTERRES
    61   29  154 1    
    62   30   31 2    
    63   30   32 1    
    64   32   33 1    
    65   32   34 1    
    66   32  155 1    
    67   33  156 1    
    68   33  157 1    
    69   33  158 1    
    70   34   35 am   BACKBONE|DICT|INTERRES
    71   34  159 1    
    72   35   36 2    
    73   35   37 1    
    74   37   38 1    
    75   37   39 1    
    76   37  160 1    
    77   38  161 1    
    78   38  162 1    
    79   38  163 1    
    80   39   40 am   BACKBONE|DICT|INTERRES
    81   39  164 1    
    82   40   41 2    
    83   40   42 1    
    84   42   43 1    
    85   42   44 1    
    86   42  165 1    
    87   43  166 1    
    88   43  167 1    
    89   43  168 1    
    90   44   45 am   BACKBONE|DICT|INTERRES
    91   44  169 1    
    92   45   46 2    
    93   45   47 1    
    94   47   48 1    
    95   47   49 1    
    96   47  170 1    
    97   48  171 1    
    98   48  172 1    
    99   48  173 1    
   100   49   50 am   BACKBONE|DICT|INTERRES
   101   49  174 1    
   102   50   51 2    
   103   50   52 1    
   104   52   53 1    
   105   52   54 1    
   106   52  175 1    
   107   53  176 1    
   108   53  177 1    
   109   53  178 1    
   110   54   55 am   BACKBONE|DICT|INTERRES
   111   54  179 1    
   112   55   56 2    
   113   55   57 1    
   114   57   58 1    
   115   57   59 1    
   116   57  180 1    
   117   58  181 1    
   118   58  182 1    
   119   58  183 1    
   120   59   60 am   BACKBONE|DICT|INTERRES
   121   59  184 1    
   122   60   61 2    
   123   60   62 1    
   124   62   63 1    
   125   62   64 1    
   126   62  185 1    
   127   63  186 1    
   128   63  187 1    
   129   63  188 1    
   130   64   65 am   BACKBONE|DICT|INTERRES
   131   64  189 1    
   132   65   66 2    
   133   67   68 2    
   134   67   69 am   BACKBONE|DICT|INTERRES
   135   69   70 1    
   136   69  190 1    
   137   70   71 1    
   138   70   72 1    
   139   70  191 1    
   140   71  192 1    
   141   71  193 1    
   142   71  194 1    
   143   72   73 2    
   144   72   74 am   BACKBONE|DICT|INTERRES
   145   74   75 1    
   146   74  195 1    
   147   75   76 1    
   148   75   77 1    
   149   75  196 1    
   150   76  197 1    
   151   76  198 1    
   152   76  199 1    
   153   77   78 2    
   154   77   79 am   BACKBONE|DICT|INTERRES
   155   79   80 1    
   156   79  200 1    
   157   80   81 1    
   158   80   82 1    
   159   80  201 1    
   160   81  202 1    
   161   81  203 1    
   162   81  204 1    
   163   82   83 2    
   164   82   84 am   BACKBONE|DICT|INTERRES
   165   84   85 1    
   166   84  205 1    
   167   85   86 1    
   168   85   87 1    
   169   85  206 1    
   170   86  207 1    
   171   86  208 1    
   172   86  209 1    
   173   87   88 2    
   174   87   89 am   BACKBONE|DICT|INTERRES
   175   89   90 1    
   176   89  210 1    
   177   90   91 1    
   178   90   92 1    
   179   90  211 1    
   180   91  212 1    
   181   91  213 1    
   182   91  214 1    
   183   92   93 2    
   184   92   94 am   BACKBONE|DICT|INTERRES
   185   94   95 1    
   186   94  215 1    
   187   95   96 1    
   188   95   97 1    
   189   95  216 1    
   190   96  217 1    
   191   96  218 1    
   192   96  219 1    
   193   97   98 2    
   194   97   99 am   BACKBONE|DICT|INTERRES
   195   99  100 1    
   196   99  220 1    
   197  100  101 1    
   198  100  102 1    
   199  100  221 1    
   200  101  222 1    
   201  101  223 1    
   202  101  224 1    
   203  102  103 2    
   204  102  104 am   BACKBONE|DICT|INTERRES
   205  104  105 1    
   206  104  225 1    
   207  105  106 1    
   208  105  107 1    
   209  105  226 1    
   210  106  227 1    
   211  106  228 1    
   212  106  229 1    
   213  107  108 2    
   214  107  109 am   BACKBONE|DICT|INTERRES
   215  109  110 1    
   216  109  230 1    
   217  110  111 1    
   218  110  112 1    
   219  110  231 1    
   220  111  232 1    
   221  111  233 1    
   222  111  234 1    
   223  112  113 2    
   224  112  114 am   BACKBONE|DICT|INTERRES
   225  114  115 1    
   226  114  235 1    
   227  115  116 1    
   228  115  117 1    
   229  115  236 1    
   230  116  237 1    
   231  116  238 1    
   232  116  239 1    
   233  117  118 2    
   234  117  119 am   BACKBONE|DICT|INTERRES
   235  119  120 1    
   236  119  240 1    
   237  120  121 1    
   238  120  124 1    
   239  120  241 1    
   240  121  122 am   BACKBONE|DICT|INTERRES
   241  121  123 2    
   242  122  242 1    
   243  122  243 1    
   244  124  125 1    
   245  124  244 1    
   246  124  245 1    
   247  125  126 1    
   248  126  246 1    
   249  126  247 1    
@<TRIPOS>SUBSTRUCTURE
     1 UNK         1 GROUP             0       ****    0 ROOT    
