@<TRIPOS>MOLECULE
3R540
247   249    1
SMALL
USER_CHARGES


@<TRIPOS>ATOM
      1 CA          1.9576  -11.8702  -46.6496 C.3       0 UNK        -0.1800 
      2 C           3.3838  -12.3628  -46.8481 C.2       0 UNK         0.5000 
      3 O           4.3183  -11.7599  -46.3213 O.2       0 UNK        -0.5000 
      4 N           3.5508  -13.4688  -47.5865 N.am      1 UNK        -0.5000 
      5 CA          4.8317  -14.1159  -47.9240 C.3       1 UNK         0.1400 
      6 C6          4.6372  -15.3672  -48.8198 C.3       23 UNK        -0.0398 
      7 S7          3.6406  -15.0501  -50.3162 S.3       23 UNK        -0.2404 
      8 C8          1.9825  -15.5407  -49.7372 C.3       23 UNK        -0.0205 
      9 C9          1.5748  -16.9521  -50.1423 C.ar      23 UNK        -0.0193 
     10 C10         0.3462  -17.1488  -50.7764 C.ar      23 UNK        -0.1150 
     11 C11        -0.1009  -18.4298  -51.1060 C.ar      23 UNK        -0.0193 
     12 C12         0.7008  -19.5310  -50.7777 C.ar      23 UNK        -0.1150 
     13 C13         1.9374  -19.3559  -50.1492 C.ar      23 UNK        -0.0193 
     14 C14         2.3722  -18.0621  -49.8427 C.ar      23 UNK        -0.1150 
     15 C15         2.7897  -20.5762  -49.8095 C.3       23 UNK        -0.0205 
     16 S16         3.4207  -20.6149  -48.0928 S.3       23 UNK        -0.2404 
     17 C17         1.9454  -20.2401  -47.0858 C.3       23 UNK        -0.0398 
     18 CA          1.1500  -21.4833  -46.6196 C.3       11 UNK         0.1400 
     19 N           0.3427  -21.1875  -45.4321 N.am      11 UNK        -0.5000 
     20 C          -0.3636  -22.0797  -44.7245 C.2       10 UNK         0.5000 
     21 O          -0.3489  -23.2889  -44.9447 O.2       10 UNK        -0.5000 
     22 CA         -1.2863  -21.5247  -43.6217 C.3       10 UNK         0.1400 
     23 CB         -0.5187  -21.3219  -42.3075 C.3       10 UNK        -0.1800 
     24 N          -1.9426  -20.2764  -44.0175 N.am      10 UNK        -0.5000 
     25 C          -2.8277  -20.1786  -45.0204 C.2       9 UNK         0.5000 
     26 O          -3.2404  -21.1482  -45.6567 O.2       9 UNK        -0.5000 
     27 CA         -3.2843  -18.7616  -45.4182 C.3       9 UNK         0.1400 
     28 CB         -4.4263  -18.2735  -44.5152 C.3       9 UNK        -0.1800 
     29 N          -2.1851  -17.7934  -45.4015 N.am      9 UNK        -0.5000 
     30 C          -1.1297  -17.8404  -46.2269 C.2       8 UNK         0.5000 
     31 O          -1.0197  -18.6655  -47.1326 O.2       8 UNK        -0.5000 
     32 CA          0.0193  -16.8460  -45.9620 C.3       8 UNK         0.1400 
     33 CB         -0.2606  -15.4870  -46.6191 C.3       8 UNK        -0.1800 
     34 N           0.2833  -16.6604  -44.5325 N.am      8 UNK        -0.5000 
     35 C           0.7367  -17.6243  -43.7174 C.2       7 UNK         0.5000 
     36 O           1.0712  -18.7388  -44.1131 O.2       7 UNK        -0.5000 
     37 CA          0.7564  -17.3264  -42.2065 C.3       7 UNK         0.1400 
     38 CB          2.0553  -16.6371  -41.7709 C.3       7 UNK        -0.1800 
     39 N          -0.3877  -16.5157  -41.7987 N.am      7 UNK        -0.5000 
     40 C          -1.6412  -16.9805  -41.7125 C.2       6 UNK         0.5000 
     41 O          -1.9505  -18.1513  -41.9315 O.2       6 UNK        -0.5000 
     42 CA         -2.7331  -15.9519  -41.3661 C.3       6 UNK         0.1400 
     43 CB         -2.8614  -15.7913  -39.8442 C.3       6 UNK        -0.1800 
     44 N          -2.4757  -14.6439  -41.9722 N.am      6 UNK        -0.5000 
     45 C          -2.5077  -14.4043  -43.2909 C.2       5 UNK         0.5000 
     46 O          -2.8113  -15.2518  -44.1291 O.2       5 UNK        -0.5000 
     47 CA         -2.0739  -13.0003  -43.7497 C.3       5 UNK         0.1400 
     48 CB         -3.2654  -12.0318  -43.7294 C.3       5 UNK        -0.1800 
     49 N          -0.9849  -12.4530  -42.9358 N.am      5 UNK        -0.5000 
     50 C           0.2603  -12.9442  -42.9113 C.2       4 UNK         0.5000 
     51 O           0.6330  -13.9092  -43.5838 O.2       4 UNK        -0.5000 
     52 CA          1.2370  -12.2779  -41.9378 C.3       4 UNK         0.1400 
     53 CB          1.1647  -12.9467  -40.5528 C.3       4 UNK        -0.1800 
     54 N           2.5883  -12.3729  -42.4802 N.am      4 UNK        -0.5000 
     55 C           3.6104  -11.5821  -42.1336 C.2       3 UNK         0.5000 
     56 O           3.5210  -10.7132  -41.2639 O.2       3 UNK        -0.5000 
     57 CA          4.9381  -11.7405  -42.9045 C.3       3 UNK         0.1400 
     58 CB          6.1750  -11.5262  -42.0059 C.3       3 UNK        -0.1800 
     59 N           5.0623  -12.9737  -43.6914 N.am      3 UNK        -0.5000 
     60 C           5.2126  -14.2317  -43.2474 C.2       2 UNK         0.5000 
     61 O           5.1708  -14.5448  -42.0577 O.2       2 UNK        -0.5000 
     62 CA          5.4653  -15.3158  -44.3190 C.3       2 UNK         0.1400 
     63 CB          4.8661  -16.6837  -43.9537 C.3       2 UNK        -0.1800 
     64 N           4.9318  -14.9200  -45.6203 N.am      2 UNK        -0.5000 
     65 C           5.6481  -14.5191  -46.6774 C.2       1 UNK         0.5000 
     66 O           6.8772  -14.4501  -46.6966 O.2       1 UNK        -0.5000 
     67 C           0.2889  -22.0726  -47.7577 C.2       11 UNK         0.5000 
     68 O           0.6598  -23.0989  -48.3265 O.2       11 UNK        -0.5000 
     69 N          -0.8671  -21.4494  -48.0334 N.am      12 UNK        -0.5000 
     70 CA         -1.8549  -21.9228  -49.0065 C.3       12 UNK         0.1400 
     71 CB         -2.9835  -20.8903  -49.1468 C.3       12 UNK        -0.1800 
     72 C          -2.4241  -23.3067  -48.6452 C.2       12 UNK         0.5000 
     73 O          -2.5156  -24.1716  -49.5165 O.2       12 UNK        -0.5000 
     74 N          -2.7450  -23.5063  -47.3586 N.am      13 UNK        -0.5000 
     75 CA         -3.2075  -24.7794  -46.8067 C.3       13 UNK         0.1400 
     76 CB         -3.6769  -24.5780  -45.3584 C.3       13 UNK        -0.1800 
     77 C          -2.1439  -25.8902  -46.8947 C.2       13 UNK         0.5000 
     78 O          -2.4772  -27.0114  -47.2769 O.2       13 UNK        -0.5000 
     79 N          -0.8812  -25.5569  -46.5901 N.am      14 UNK        -0.5000 
     80 CA          0.2752  -26.4494  -46.7158 C.3       14 UNK         0.1400 
     81 CB          1.5030  -25.7988  -46.0609 C.3       14 UNK        -0.1800 
     82 C           0.5768  -26.8382  -48.1759 C.2       14 UNK         0.5000 
     83 O           0.9478  -27.9831  -48.4366 O.2       14 UNK        -0.5000 
     84 N           0.3678  -25.8947  -49.1040 N.am      15 UNK        -0.5000 
     85 CA          0.4334  -26.1034  -50.5525 C.3       15 UNK         0.1400 
     86 CB          0.5729  -24.7364  -51.2437 C.3       15 UNK        -0.1800 
     87 C          -0.7770  -26.8792  -51.1190 C.2       15 UNK         0.5000 
     88 O          -0.7425  -27.2675  -52.2874 O.2       15 UNK        -0.5000 
     89 N          -1.8157  -27.0836  -50.2939 N.am      16 UNK        -0.5000 
     90 CA         -3.0957  -27.7322  -50.5914 C.3       16 UNK         0.1400 
     91 CB         -2.8942  -29.2261  -50.9211 C.3       16 UNK        -0.1800 
     92 C          -3.9209  -26.9771  -51.6541 C.2       16 UNK         0.5000 
     93 O          -4.6202  -27.6041  -52.4527 O.2       16 UNK        -0.5000 
     94 N          -3.8283  -25.6425  -51.6414 N.am      17 UNK        -0.5000 
     95 CA         -4.5504  -24.7442  -52.5337 C.3       17 UNK         0.1400 
     96 CB         -3.5660  -23.6939  -53.0717 C.3       17 UNK        -0.1800 
     97 C          -5.6933  -24.0596  -51.7704 C.2       17 UNK         0.5000 
     98 O          -5.5440  -23.7364  -50.5895 O.2       17 UNK        -0.5000 
     99 N          -6.8043  -23.8102  -52.4725 N.am      18 UNK        -0.5000 
    100 CA        -7.8879  -22.9464  -52.0047 C.3       18 UNK         0.1400 
    101 CB        -9.1359  -23.2017  -52.8636 C.3       18 UNK        -0.1800 
    102 C         -7.4629  -21.4726  -52.1109 C.2       18 UNK         0.5000 
    103 O         -6.6916  -21.1320  -53.0098 O.2       18 UNK        -0.5000 
    104 N         -8.0009  -20.6114  -51.2393 N.am      19 UNK        -0.5000 
    105 CA        -7.6634  -19.1834  -51.1664 C.3       19 UNK         0.1400 
    106 CB        -8.3982  -18.5539  -49.9734 C.3       19 UNK        -0.1800 
    107 C         -7.9505  -18.3896  -52.4587 C.2       19 UNK         0.5000 
    108 O         -7.2537  -17.4139  -52.7363 O.2       19 UNK        -0.5000 
    109 N         -8.9528  -18.8324  -53.2296 N.am      20 UNK        -0.5000 
    110 CA        -9.3073  -18.2706  -54.5337 C.3       20 UNK         0.1400 
    111 CB       -10.7810  -18.5952  -54.8246 C.3       20 UNK        -0.1800 
    112 C         -8.4120  -18.7846  -55.6801 C.2       20 UNK         0.5000 
    113 O         -8.3123  -18.1135  -56.7081 O.2       20 UNK        -0.5000 
    114 N         -7.8012  -19.9643  -55.5034 N.am      21 UNK        -0.5000 
    115 CA        -6.9411  -20.6133  -56.4943 C.3       21 UNK         0.1400 
    116 CB        -7.1133  -22.1374  -56.3877 C.3       21 UNK        -0.1800 
    117 C         -5.4647  -20.2262  -56.3080 C.2       21 UNK         0.5000 
    118 O         -4.7529  -20.0491  -57.2974 O.2       21 UNK        -0.5000 
    119 N         -5.0360  -20.1168  -55.0453 N.am      22 UNK        -0.5000 
    120 CA        -3.6883  -19.7244  -54.6200 C.3       22 UNK         0.1400 
    121 C         -3.3018  -18.2864  -55.0721 C.2       22 UNK         0.5000 
    122 N         -2.0719  -18.0786  -55.5227 N.am      22 UNK        -0.7600 
    123 O         -4.0946  -17.3519  -54.9837 O.2       22 UNK        -0.5000 
    124 C124       -3.5440  -19.8975  -53.0867 C.3       23 UNK        -0.0398 
    125 S125       -1.8195  -20.1663  -52.5623 S.3       23 UNK        -0.2404 
    126 C126       -1.4673  -18.5570  -51.7788 C.3       23 UNK        -0.0205 
    127 H127        1.6810  -11.9386  -45.5977 H         1 UNK         0.0600 
    128 H128        1.2413  -12.4532  -47.2288 H         1 UNK         0.0600 
    129 H129        1.8744  -10.8281  -46.9579 H         1 UNK         0.0600 
    130 H130        2.7409  -13.8829  -48.0214 H         1 UNK         0.3000 
    131 H131        5.4227  -13.3844  -48.4789 H         1 UNK         0.0600 
    132 H132        5.6071  -15.7440  -49.1501 H         1 UNK         0.0800 
    133 H133        4.1823  -16.1781  -48.2491 H         1 UNK         0.0800 
    134 H134        1.2701  -14.8144  -50.1320 H         1 UNK         0.0800 
    135 H135        1.9170  -15.4648  -48.6528 H         1 UNK         0.0800 
    136 H136       -0.2796  -16.2970  -51.0040 H         1 UNK         0.1150 
    137 H137        0.3683  -20.5332  -51.0033 H         1 UNK         0.1150 
    138 H138        3.3248  -17.9297  -49.3534 H         1 UNK         0.1150 
    139 H139        2.2313  -21.4959  -49.9902 H         1 UNK         0.0800 
    140 H140        3.6404  -20.6033  -50.4912 H         1 UNK         0.0800 
    141 H141        1.3059  -19.5244  -47.5980 H         1 UNK         0.0800 
    142 H142        2.3237  -19.7079  -46.2127 H         1 UNK         0.0800 
    143 H143        1.8660  -22.2513  -46.3196 H         1 UNK         0.0600 
    144 H144        0.3324  -20.2200  -45.1245 H         1 UNK         0.3000 
    145 H145       -2.0680  -22.2649  -43.4405 H         1 UNK         0.0600 
    146 H146       -1.1756  -20.9540  -41.5191 H         1 UNK         0.0600 
    147 H147       -0.0887  -22.2625  -41.9612 H         1 UNK         0.0600 
    148 H148        0.2997  -20.6121  -42.4199 H         1 UNK         0.0600 
    149 H149       -1.7029  -19.4427  -43.4918 H         1 UNK         0.3000 
    150 H150       -3.6646  -18.8136  -46.4406 H         1 UNK         0.0600 
    151 H151       -5.2741  -18.9583  -44.5565 H         1 UNK         0.0600 
    152 H152       -4.7842  -17.2925  -44.8282 H         1 UNK         0.0600 
    153 H153       -4.1167  -18.1991  -43.4733 H         1 UNK         0.0600 
    154 H154       -2.2499  -17.0341  -44.7307 H         1 UNK         0.3000 
    155 H155        0.9228  -17.2570  -46.4172 H         1 UNK         0.0600 
    156 H156       -1.1584  -15.0203  -46.2159 H         1 UNK         0.0600 
    157 H157        0.5703  -14.7983  -46.4683 H         1 UNK         0.0600 
    158 H158       -0.4076  -15.5983  -47.6941 H         1 UNK         0.0600 
    159 H159        0.0968  -15.7410  -44.1462 H         1 UNK         0.3000 
    160 H160        0.6991  -18.2809  -41.6792 H         1 UNK         0.0600 
    161 H161        2.2370  -15.7149  -42.3234 H         1 UNK         0.0600 
    162 H162        2.9079  -17.2973  -41.9264 H         1 UNK         0.0600 
    163 H163        2.0362  -16.3944  -40.7085 H         1 UNK         0.0600 
    164 H164       -0.2203  -15.5341  -41.6419 H         1 UNK         0.3000 
    165 H165       -3.6824  -16.3283  -41.7529 H         1 UNK         0.0600 
    166 H166       -3.6784  -15.1171  -39.5866 H         1 UNK         0.0600 
    167 H167       -3.0702  -16.7500  -39.3676 H         1 UNK         0.0600 
    168 H168       -1.9466  -15.3962  -39.4005 H         1 UNK         0.0600 
    169 H169       -2.2267  -13.8903  -41.3490 H         1 UNK         0.3000 
    170 H170       -1.7193  -13.0817  -44.7793 H         1 UNK         0.0600 
    171 H171       -4.0839  -12.4079  -44.3449 H         1 UNK         0.0600 
    172 H172       -3.6529  -11.8880  -42.7200 H         1 UNK         0.0600 
    173 H173       -2.9860  -11.0550  -44.1246 H         1 UNK         0.0600 
    174 H174       -1.2134  -11.6597  -42.3537 H         1 UNK         0.3000 
    175 H175        0.9631  -11.2246  -41.8472 H         1 UNK         0.0600 
    176 H176        1.4824  -13.9881  -40.5923 H         1 UNK         0.0600 
    177 H177        1.8019  -12.4342  -39.8321 H         1 UNK         0.0600 
    178 H178        0.1493  -12.9251  -40.1555 H         1 UNK         0.0600 
    179 H179        2.7068  -13.0582  -43.2140 H         1 UNK         0.3000 
    180 H180        4.9373  -10.9341  -43.6391 H         1 UNK         0.0600 
    181 H181        6.2097  -12.2428  -41.1850 H         1 UNK         0.0600 
    182 H182        6.1718  -10.5287  -41.5653 H         1 UNK         0.0600 
    183 H183        7.0989  -11.6222  -42.5762 H         1 UNK         0.0600 
    184 H184        5.0697  -12.8232  -44.6946 H         1 UNK         0.3000 
    185 H185        6.5490  -15.4359  -44.3745 H         1 UNK         0.0600 
    186 H186        5.1646  -17.0036  -42.9548 H         1 UNK         0.0600 
    187 H187        3.7782  -16.6637  -43.9960 H         1 UNK         0.0600 
    188 H188        5.2040  -17.4518  -44.6495 H         1 UNK         0.0600 
    189 H189        3.9255  -14.9128  -45.7029 H         1 UNK         0.3000 
    190 H190       -1.0772  -20.5776  -47.5559 H         1 UNK         0.3000 
    191 H191       -1.3508  -22.0089  -49.9708 H         1 UNK         0.0600 
    192 H192       -3.5915  -20.8242  -48.2453 H         1 UNK         0.0600 
    193 H193       -3.6484  -21.1541  -49.9705 H         1 UNK         0.0600 
    194 H194       -2.5850  -19.8974  -49.3485 H         1 UNK         0.0600 
    195 H195       -2.6841  -22.7224  -46.7157 H         1 UNK         0.3000 
    196 H196       -4.0682  -25.0986  -47.3984 H         1 UNK         0.0600 
    197 H197       -4.0776  -25.5050  -44.9466 H         1 UNK         0.0600 
    198 H198       -4.4655  -23.8274  -45.3003 H         1 UNK         0.0600 
    199 H199       -2.8621  -24.2571  -44.7100 H         1 UNK         0.0600 
    200 H200       -0.6964  -24.6265  -46.2229 H         1 UNK         0.3000 
    201 H201        0.0473  -27.3674  -46.1704 H         1 UNK         0.0600 
    202 H202        1.3239  -25.5938  -45.0053 H         1 UNK         0.0600 
    203 H203        1.7662  -24.8575  -46.5439 H         1 UNK         0.0600 
    204 H204        2.3724  -26.4543  -46.1222 H         1 UNK         0.0600 
    205 H205        0.1393  -24.9541  -48.7950 H         1 UNK         0.3000 
    206 H206        1.3275  -26.6890  -50.7749 H         1 UNK         0.0600 
    207 H207        1.4510  -24.1996  -50.8841 H         1 UNK         0.0600 
    208 H208        0.6817  -24.8511  -52.3227 H         1 UNK         0.0600 
    209 H209       -0.2987  -24.1055  -51.0686 H         1 UNK         0.0600 
    210 H210       -1.7427  -26.7046  -49.3586 H         1 UNK         0.3000 
    211 H211       -3.6793  -27.6787  -49.6717 H         1 UNK         0.0600 
    212 H212       -2.3764  -29.3669  -51.8702 H         1 UNK         0.0600 
    213 H213       -3.8517  -29.7431  -50.9921 H         1 UNK         0.0600 
    214 H214       -2.3145  -29.7252  -50.1445 H         1 UNK         0.0600 
    215 H215       -3.2975  -25.1900  -50.8991 H         1 UNK         0.3000 
    216 H216       -4.9648  -25.2932  -53.3818 H         1 UNK         0.0600 
    217 H217       -4.0619  -23.0112  -53.7630 H         1 UNK         0.0600 
    218 H218       -2.7446  -24.1644  -53.6122 H         1 UNK         0.0600 
    219 H219       -3.1353  -23.0973  -52.2661 H         1 UNK         0.0600 
    220 H220       -6.8388  -24.0797  -53.4442 H         1 UNK         0.3000 
    221 H221       -8.1162  -23.1826  -50.9632 H         1 UNK         0.0600 
    222 H222       -8.9614  -22.9642  -53.9139 H         1 UNK         0.0600 
    223 H223       -9.4477  -24.2446  -52.8040 H         1 UNK         0.0600 
    224 H224       -9.9758  -22.5937  -52.5251 H         1 UNK         0.0600 
    225 H225       -8.6446  -20.9562  -50.5415 H         1 UNK         0.3000 
    226 H226       -6.5897  -19.1123  -50.9793 H         1 UNK         0.0600 
    227 H227       -8.1210  -19.0395  -49.0375 H         1 UNK         0.0600 
    228 H228       -8.1495  -17.4963  -49.8744 H         1 UNK         0.0600 
    229 H229       -9.4808  -18.6276  -50.0837 H         1 UNK         0.0600 
    230 H230       -9.4849  -19.6303  -52.9152 H         1 UNK         0.3000 
    231 H231       -9.2016  -17.1843  -54.4935 H         1 UNK         0.0600 
    232 H232      -11.0946  -18.1681  -55.7781 H         1 UNK         0.0600 
    233 H233      -11.4348  -18.1837  -54.0554 H         1 UNK         0.0600 
    234 H234      -10.9547  -19.6709  -54.8739 H         1 UNK         0.0600 
    235 H235       -7.8629  -20.4136  -54.5996 H         1 UNK         0.3000 
    236 H236       -7.2447  -20.3119  -57.4993 H         1 UNK         0.0600 
    237 H237       -8.1511  -22.4289  -56.5491 H         1 UNK         0.0600 
    238 H238       -6.5108  -22.6502  -57.1385 H         1 UNK         0.0600 
    239 H239       -6.8072  -22.5128  -55.4108 H         1 UNK         0.0600 
    240 H240       -5.6923  -20.3253  -54.2973 H         1 UNK         0.3000 
    241 H241       -3.0097  -20.4269  -55.1083 H         1 UNK         0.0600 
    242 H242       -1.3999  -18.8278  -55.5830 H         1 UNK         0.3800 
    243 H243       -1.8051  -17.1501  -55.8103 H         1 UNK         0.3800 
    244 H244       -3.9936  -19.0608  -52.5486 H         1 UNK         0.0800 
    245 H245       -4.0928  -20.7784  -52.7542 H         1 UNK         0.0800 
    246 H246       -1.5579  -17.7840  -52.5434 H         1 UNK         0.0800 
    247 H247       -2.2344  -18.3445  -51.0339 H         1 UNK         0.0800 
@<TRIPOS>BOND
     1    1    2 1    
     2    1  127 1    
     3    1  128 1    
     4    1  129 1    
     5    2    3 2    
     6    2    4 am   BACKBONE|DICT|INTERRES
     7    4    5 1    
     8    4  130 1    
     9    5    6 1    
    10    5   65 1    
    11    5  131 1    
    12    6    7 1    
    13    6  132 1    
    14    6  133 1    
    15    7    8 1    
    16    8    9 1    
    17    8  134 1    
    18    8  135 1    
    19    9   10 ar   
    20    9   14 ar   
    21   10   11 ar   
    22   10  136 1    
    23   11   12 ar   
    24   11  126 1    
    25   12   13 ar   
    26   12  137 1    
    27   13   14 ar   
    28   13   15 1    
    29   14  138 1    
    30   15   16 1    
    31   15  139 1    
    32   15  140 1    
    33   16   17 1    
    34   17   18 1    
    35   17  141 1    
    36   17  142 1    
    37   18   19 1    
    38   18   67 1    
    39   18  143 1    
    40   19   20 am   BACKBONE|DICT|INTERRES
    41   19  144 1    
    42   20   21 2    
    43   20   22 1    
    44   22   23 1    
    45   22   24 1    
    46   22  145 1    
    47   23  146 1    
    48   23  147 1    
    49   23  148 1    
    50   24   25 am   BACKBONE|DICT|INTERRES
    51   24  149 1    
    52   25   26 2    
    53   25   27 1    
    54   27   28 1    
    55   27   29 1    
    56   27  150 1    
    57   28  151 1    
    58   28  152 1    
    59   28  153 1    
    60   29   30 am   BACKBONE|DICT|INTERRES
    61   29  154 1    
    62   30   31 2    
    63   30   32 1    
    64   32   33 1    
    65   32   34 1    
    66   32  155 1    
    67   33  156 1    
    68   33  157 1    
    69   33  158 1    
    70   34   35 am   BACKBONE|DICT|INTERRES
    71   34  159 1    
    72   35   36 2    
    73   35   37 1    
    74   37   38 1    
    75   37   39 1    
    76   37  160 1    
    77   38  161 1    
    78   38  162 1    
    79   38  163 1    
    80   39   40 am   BACKBONE|DICT|INTERRES
    81   39  164 1    
    82   40   41 2    
    83   40   42 1    
    84   42   43 1    
    85   42   44 1    
    86   42  165 1    
    87   43  166 1    
    88   43  167 1    
    89   43  168 1    
    90   44   45 am   BACKBONE|DICT|INTERRES
    91   44  169 1    
    92   45   46 2    
    93   45   47 1    
    94   47   48 1    
    95   47   49 1    
    96   47  170 1    
    97   48  171 1    
    98   48  172 1    
    99   48  173 1    
   100   49   50 am   BACKBONE|DICT|INTERRES
   101   49  174 1    
   102   50   51 2    
   103   50   52 1    
   104   52   53 1    
   105   52   54 1    
   106   52  175 1    
   107   53  176 1    
   108   53  177 1    
   109   53  178 1    
   110   54   55 am   BACKBONE|DICT|INTERRES
   111   54  179 1    
   112   55   56 2    
   113   55   57 1    
   114   57   58 1    
   115   57   59 1    
   116   57  180 1    
   117   58  181 1    
   118   58  182 1    
   119   58  183 1    
   120   59   60 am   BACKBONE|DICT|INTERRES
   121   59  184 1    
   122   60   61 2    
   123   60   62 1    
   124   62   63 1    
   125   62   64 1    
   126   62  185 1    
   127   63  186 1    
   128   63  187 1    
   129   63  188 1    
   130   64   65 am   BACKBONE|DICT|INTERRES
   131   64  189 1    
   132   65   66 2    
   133   67   68 2    
   134   67   69 am   BACKBONE|DICT|INTERRES
   135   69   70 1    
   136   69  190 1    
   137   70   71 1    
   138   70   72 1    
   139   70  191 1    
   140   71  192 1    
   141   71  193 1    
   142   71  194 1    
   143   72   73 2    
   144   72   74 am   BACKBONE|DICT|INTERRES
   145   74   75 1    
   146   74  195 1    
   147   75   76 1    
   148   75   77 1    
   149   75  196 1    
   150   76  197 1    
   151   76  198 1    
   152   76  199 1    
   153   77   78 2    
   154   77   79 am   BACKBONE|DICT|INTERRES
   155   79   80 1    
   156   79  200 1    
   157   80   81 1    
   158   80   82 1    
   159   80  201 1    
   160   81  202 1    
   161   81  203 1    
   162   81  204 1    
   163   82   83 2    
   164   82   84 am   BACKBONE|DICT|INTERRES
   165   84   85 1    
   166   84  205 1    
   167   85   86 1    
   168   85   87 1    
   169   85  206 1    
   170   86  207 1    
   171   86  208 1    
   172   86  209 1    
   173   87   88 2    
   174   87   89 am   BACKBONE|DICT|INTERRES
   175   89   90 1    
   176   89  210 1    
   177   90   91 1    
   178   90   92 1    
   179   90  211 1    
   180   91  212 1    
   181   91  213 1    
   182   91  214 1    
   183   92   93 2    
   184   92   94 am   BACKBONE|DICT|INTERRES
   185   94   95 1    
   186   94  215 1    
   187   95   96 1    
   188   95   97 1    
   189   95  216 1    
   190   96  217 1    
   191   96  218 1    
   192   96  219 1    
   193   97   98 2    
   194   97   99 am   BACKBONE|DICT|INTERRES
   195   99  100 1    
   196   99  220 1    
   197  100  101 1    
   198  100  102 1    
   199  100  221 1    
   200  101  222 1    
   201  101  223 1    
   202  101  224 1    
   203  102  103 2    
   204  102  104 am   BACKBONE|DICT|INTERRES
   205  104  105 1    
   206  104  225 1    
   207  105  106 1    
   208  105  107 1    
   209  105  226 1    
   210  106  227 1    
   211  106  228 1    
   212  106  229 1    
   213  107  108 2    
   214  107  109 am   BACKBONE|DICT|INTERRES
   215  109  110 1    
   216  109  230 1    
   217  110  111 1    
   218  110  112 1    
   219  110  231 1    
   220  111  232 1    
   221  111  233 1    
   222  111  234 1    
   223  112  113 2    
   224  112  114 am   BACKBONE|DICT|INTERRES
   225  114  115 1    
   226  114  235 1    
   227  115  116 1    
   228  115  117 1    
   229  115  236 1    
   230  116  237 1    
   231  116  238 1    
   232  116  239 1    
   233  117  118 2    
   234  117  119 am   BACKBONE|DICT|INTERRES
   235  119  120 1    
   236  119  240 1    
   237  120  121 1    
   238  120  124 1    
   239  120  241 1    
   240  121  122 am   BACKBONE|DICT|INTERRES
   241  121  123 2    
   242  122  242 1    
   243  122  243 1    
   244  124  125 1    
   245  124  244 1    
   246  124  245 1    
   247  125  126 1    
   248  126  246 1    
   249  126  247 1    
@<TRIPOS>SUBSTRUCTURE
     1 UNK         1 GROUP             0       ****    0 ROOT    
