@<TRIPOS>MOLECULE
3R540
247   249    1
SMALL
USER_CHARGES


@<TRIPOS>ATOM
      1 CA         -0.3928  -13.4925  -51.8332 C.3       0 UNK        -0.1800 
      2 C           1.0709  -13.3795  -51.4370 C.2       0 UNK         0.5000 
      3 O           1.7930  -12.5429  -51.9789 O.2       0 UNK        -0.5000 
      4 N           1.5051  -14.2086  -50.4794 N.am      1 UNK        -0.5000 
      5 CA          2.8872  -14.2578  -49.9757 C.3       1 UNK         0.1400 
      6 C6          3.2767  -15.6670  -49.4592 C.3       23 UNK        -0.0398 
      7 S7          2.9988  -16.9709  -50.7106 S.3       23 UNK        -0.2404 
      8 C8          1.8603  -18.1063  -49.8546 C.3       23 UNK        -0.0205 
      9 C9          0.5376  -17.4499  -49.4858 C.ar      23 UNK        -0.0193 
     10 C10        -0.4173  -17.1770  -50.4702 C.ar      23 UNK        -0.1150 
     11 C11        -1.6261  -16.5623  -50.1302 C.ar      23 UNK        -0.0193 
     12 C12        -1.8832  -16.2387  -48.7947 C.ar      23 UNK        -0.1150 
     13 C13        -0.9435  -16.5197  -47.8004 C.ar      23 UNK        -0.0193 
     14 C14         0.2683  -17.1185  -48.1546 C.ar      23 UNK        -0.1150 
     15 C15        -1.2307  -16.1502  -46.3520 C.3       23 UNK        -0.0205 
     16 S16        -2.2320  -17.4100  -45.4969 S.3       23 UNK        -0.2404 
     17 C17        -1.0274  -18.7613  -45.2744 C.3       23 UNK        -0.0398 
     18 CA         -1.4778  -20.0728  -45.9658 C.3       11 UNK         0.1400 
     19 N          -0.3502  -20.8027  -46.5489 N.am      11 UNK        -0.5000 
     20 C          -0.4697  -21.8274  -47.4033 C.2       10 UNK         0.5000 
     21 O          -1.5487  -22.2495  -47.8151 O.2       10 UNK        -0.5000 
     22 CA          0.8305  -22.5258  -47.8396 C.3       10 UNK         0.1400 
     23 CB          1.4404  -21.8125  -49.0537 C.3       10 UNK        -0.1800 
     24 N           1.8228  -22.5974  -46.7655 N.am      10 UNK        -0.5000 
     25 C           1.6610  -23.3009  -45.6358 C.2       9 UNK         0.5000 
     26 O           0.6773  -23.9996  -45.4028 O.2       9 UNK        -0.5000 
     27 CA          2.7511  -23.1526  -44.5608 C.3       9 UNK         0.1400 
     28 CB          3.8953  -24.1458  -44.8116 C.3       9 UNK        -0.1800 
     29 N           3.2963  -21.7960  -44.4580 N.am      9 UNK        -0.5000 
     30 C           2.5822  -20.7006  -44.1676 C.2       8 UNK         0.5000 
     31 O           1.3547  -20.6899  -44.0375 O.2       8 UNK        -0.5000 
     32 CA          3.3695  -19.3854  -44.0498 C.3       8 UNK         0.1400 
     33 CB          3.2530  -18.5664  -45.3446 C.3       8 UNK        -0.1800 
     34 N           2.8847  -18.5878  -42.9260 N.am      8 UNK        -0.5000 
     35 C           3.1041  -18.8849  -41.6373 C.2       7 UNK         0.5000 
     36 O           3.8136  -19.8199  -41.2632 O.2       7 UNK        -0.5000 
     37 CA          2.4301  -17.9833  -40.5860 C.3       7 UNK         0.1400 
     38 CB          3.4114  -16.9100  -40.0893 C.3       7 UNK        -0.1800 
     39 N           1.2234  -17.3201  -41.0799 N.am      7 UNK        -0.5000 
     40 C           0.0377  -17.9156  -41.2715 C.2       6 UNK         0.5000 
     41 O          -0.1669  -19.1131  -41.0703 O.2       6 UNK        -0.5000 
     42 CA         -1.0982  -17.0018  -41.7750 C.3       6 UNK         0.1400 
     43 CB         -2.5084  -17.5737  -41.5234 C.3       6 UNK        -0.1800 
     44 N          -0.9710  -15.6242  -41.2881 N.am      6 UNK        -0.5000 
     45 C          -1.0664  -15.1813  -40.0239 C.2       5 UNK         0.5000 
     46 O          -1.3668  -15.8991  -39.0695 O.2       5 UNK        -0.5000 
     47 CA         -0.7318  -13.6943  -39.7637 C.3       5 UNK         0.1400 
     48 CB          0.5230  -13.5743  -38.8827 C.3       5 UNK        -0.1800 
     49 N          -0.5092  -12.9186  -40.9865 N.am      5 UNK        -0.5000 
     50 C          -1.4695  -12.4903  -41.8162 C.2       4 UNK         0.5000 
     51 O          -2.6727  -12.6218  -41.5907 O.2       4 UNK        -0.5000 
     52 CA         -1.0116  -11.8326  -43.1351 C.3       4 UNK         0.1400 
     53 CB         -1.0777  -10.3020  -43.0225 C.3       4 UNK        -0.1800 
     54 N           0.3310  -12.2142  -43.5938 N.am      4 UNK        -0.5000 
     55 C           0.7492  -13.4556  -43.8755 C.2       3 UNK         0.5000 
     56 O           0.0665  -14.4623  -43.6872 O.2       3 UNK        -0.5000 
     57 CA          2.1534  -13.5785  -44.4975 C.3       3 UNK         0.1400 
     58 CB          2.6378  -15.0373  -44.5869 C.3       3 UNK        -0.1800 
     59 N           2.1641  -12.9945  -45.8375 N.am      3 UNK        -0.5000 
     60 C           2.2782  -11.6895  -46.1163 C.2       2 UNK         0.5000 
     61 O           2.4312  -10.8297  -45.2464 O.2       2 UNK        -0.5000 
     62 CA          2.1437  -11.2638  -47.5940 C.3       2 UNK         0.1400 
     63 CB          3.1657  -10.1768  -47.9870 C.3       2 UNK        -0.1800 
     64 N           2.1470  -12.3770  -48.5548 N.am      2 UNK        -0.5000 
     65 C           3.1686  -13.1761  -48.9045 C.2       1 UNK         0.5000 
     66 O           4.2936  -13.0989  -48.4104 O.2       1 UNK        -0.5000 
     67 C          -2.2652  -20.9781  -44.9985 C.2       11 UNK         0.5000 
     68 O          -3.4874  -21.0835  -45.1108 O.2       11 UNK        -0.5000 
     69 N          -1.5303  -21.6634  -44.1089 N.am      12 UNK        -0.5000 
     70 CA         -2.0572  -22.6395  -43.1521 C.3       12 UNK         0.1400 
     71 CB         -0.9237  -23.0873  -42.2177 C.3       12 UNK        -0.1800 
     72 C          -2.7253  -23.8542  -43.8287 C.2       12 UNK         0.5000 
     73 O          -3.7240  -24.3628  -43.3197 O.2       12 UNK        -0.5000 
     74 N          -2.1925  -24.2616  -44.9877 N.am      13 UNK        -0.5000 
     75 CA         -2.7182  -25.3157  -45.8563 C.3       13 UNK         0.1400 
     76 CB         -1.5559  -25.9038  -46.6746 C.3       13 UNK        -0.1800 
     77 C          -3.8736  -24.8559  -46.7737 C.2       13 UNK         0.5000 
     78 O          -4.2124  -25.5850  -47.7062 O.2       13 UNK        -0.5000 
     79 N          -4.4567  -23.6748  -46.5154 N.am      14 UNK        -0.5000 
     80 CA         -5.5950  -23.0761  -47.2199 C.3       14 UNK         0.1400 
     81 CB         -6.8727  -23.9177  -47.0171 C.3       14 UNK        -0.1800 
     82 C          -5.2760  -22.8140  -48.7029 C.2       14 UNK         0.5000 
     83 O          -5.8558  -23.4416  -49.5930 O.2       14 UNK        -0.5000 
     84 N          -4.3113  -21.9109  -48.9255 N.am      15 UNK        -0.5000 
     85 CA         -3.7670  -21.5132  -50.2281 C.3       15 UNK         0.1400 
     86 CB         -4.8566  -20.8280  -51.0804 C.3       15 UNK        -0.1800 
     87 C          -3.0861  -22.6934  -50.9508 C.2       15 UNK         0.5000 
     88 O          -3.2370  -22.8457  -52.1627 O.2       15 UNK        -0.5000 
     89 N          -2.3786  -23.5291  -50.1762 N.am      16 UNK        -0.5000 
     90 CA         -1.7415  -24.7885  -50.5733 C.3       16 UNK         0.1400 
     91 CB         -0.5105  -24.5066  -51.4595 C.3       16 UNK        -0.1800 
     92 C          -2.7450  -25.7711  -51.2144 C.2       16 UNK         0.5000 
     93 O          -2.4825  -26.3080  -52.2899 O.2       16 UNK        -0.5000 
     94 N          -3.9022  -25.9428  -50.5576 N.am      17 UNK        -0.5000 
     95 CA         -5.0890  -26.6644  -51.0291 C.3       17 UNK         0.1400 
     96 CB         -4.8153  -28.1805  -51.1122 C.3       17 UNK        -0.1800 
     97 C          -5.6508  -26.0681  -52.3390 C.2       17 UNK         0.5000 
     98 O          -5.9659  -26.8044  -53.2759 O.2       17 UNK        -0.5000 
     99 N          -5.7432  -24.7305  -52.3707 N.am      18 UNK        -0.5000 
    100 CA        -6.1790  -23.8866  -53.4898 C.3       18 UNK         0.1400 
    101 CB        -7.6772  -24.1063  -53.7856 C.3       18 UNK        -0.1800 
    102 C         -5.2923  -23.9864  -54.7533 C.2       18 UNK         0.5000 
    103 O         -5.7842  -23.7659  -55.8619 O.2       18 UNK        -0.5000 
    104 N         -4.0019  -24.2976  -54.5734 N.am      19 UNK        -0.5000 
    105 CA        -2.9959  -24.3026  -55.6365 C.3       19 UNK         0.1400 
    106 CB        -1.9299  -25.3646  -55.3323 C.3       19 UNK        -0.1800 
    107 C         -2.3387  -22.9220  -55.8190 C.2       19 UNK         0.5000 
    108 O         -1.9014  -22.6096  -56.9281 O.2       19 UNK        -0.5000 
    109 N         -2.2732  -22.1203  -54.7458 N.am      20 UNK        -0.5000 
    110 CA        -1.7933  -20.7382  -54.7732 C.3       20 UNK         0.1400 
    111 CB        -1.4148  -20.3018  -53.3472 C.3       20 UNK        -0.1800 
    112 C         -2.8488  -19.7927  -55.3781 C.2       20 UNK         0.5000 
    113 O         -4.0221  -20.1581  -55.4896 O.2       20 UNK        -0.5000 
    114 N         -2.4143  -18.5761  -55.7345 N.am      21 UNK        -0.5000 
    115 CA        -3.2092  -17.5464  -56.4172 C.3       21 UNK         0.1400 
    116 CB        -2.3185  -16.3199  -56.6697 C.3       21 UNK        -0.1800 
    117 C         -4.5040  -17.1249  -55.6917 C.2       21 UNK         0.5000 
    118 O         -5.4626  -16.7242  -56.3533 O.2       21 UNK        -0.5000 
    119 N         -4.5125  -17.2353  -54.3586 N.am      22 UNK        -0.5000 
    120 CA        -5.6882  -17.0238  -53.5017 C.3       22 UNK         0.1400 
    121 C         -6.6395  -18.2530  -53.3788 C.2       22 UNK         0.5000 
    122 N         -6.3534  -19.3972  -53.9888 N.am      22 UNK        -0.7600 
    123 O         -7.6815  -18.1582  -52.7358 O.2       22 UNK        -0.5000 
    124 C124       -5.2944  -16.4304  -52.1247 C.3       23 UNK        -0.0398 
    125 S125       -4.0302  -17.3884  -51.2137 S.3       23 UNK        -0.2404 
    126 C126       -2.6474  -16.2107  -51.1990 C.3       23 UNK        -0.0205 
    127 H127       -0.5167  -14.2509  -52.6061 H         1 UNK         0.0600 
    128 H128       -0.7592  -12.5426  -52.2227 H         1 UNK         0.0600 
    129 H129       -1.0084  -13.7613  -50.9753 H         1 UNK         0.0600 
    130 H130        0.8747  -14.8994  -50.0952 H         1 UNK         0.3000 
    131 H131        3.5570  -14.0327  -50.8086 H         1 UNK         0.0600 
    132 H132        2.7401  -15.9042  -48.5408 H         1 UNK         0.0800 
    133 H133        4.3359  -15.6928  -49.1972 H         1 UNK         0.0800 
    134 H134        2.3577  -18.4987  -48.9665 H         1 UNK         0.0800 
    135 H135        1.6663  -18.9624  -50.5023 H         1 UNK         0.0800 
    136 H136       -0.2103  -17.4289  -51.5009 H         1 UNK         0.1150 
    137 H137       -2.8189  -15.7669  -48.5289 H         1 UNK         0.1150 
    138 H138        1.0073  -17.3235  -47.3946 H         1 UNK         0.1150 
    139 H139       -0.3006  -15.9945  -45.8063 H         1 UNK         0.0800 
    140 H140       -1.7613  -15.1976  -46.3163 H         1 UNK         0.0800 
    141 H141       -0.8417  -18.9047  -44.2088 H         1 UNK         0.0800 
    142 H142       -0.0718  -18.4355  -45.6776 H         1 UNK         0.0800 
    143 H143       -2.1415  -19.8202  -46.7963 H         1 UNK         0.0600 
    144 H144        0.5647  -20.5844  -46.1822 H         1 UNK         0.3000 
    145 H145        0.5744  -23.5445  -48.1373 H         1 UNK         0.0600 
    146 H146        1.8079  -20.8223  -48.7884 H         1 UNK         0.0600 
    147 H147        2.2745  -22.3805  -49.4659 H         1 UNK         0.0600 
    148 H148        0.7051  -21.6888  -49.8503 H         1 UNK         0.0600 
    149 H149        2.6649  -22.0527  -46.8781 H         1 UNK         0.3000 
    150 H150        2.2950  -23.3953  -43.5988 H         1 UNK         0.0600 
    151 H151        3.5184  -25.1677  -44.8739 H         1 UNK         0.0600 
    152 H152        4.6251  -24.1198  -44.0022 H         1 UNK         0.0600 
    153 H153        4.4190  -23.9315  -45.7441 H         1 UNK         0.0600 
    154 H154        4.2973  -21.7109  -44.5617 H         1 UNK         0.3000 
    155 H155        4.4240  -19.6157  -43.8827 H         1 UNK         0.0600 
    156 H156        3.5672  -19.1500  -46.2108 H         1 UNK         0.0600 
    157 H157        3.8881  -17.6815  -45.3058 H         1 UNK         0.0600 
    158 H158        2.2309  -18.2364  -45.5225 H         1 UNK         0.0600 
    159 H159        2.2559  -17.8304  -43.1409 H         1 UNK         0.3000 
    160 H160        2.1544  -18.6141  -39.7381 H         1 UNK         0.0600 
    161 H161        2.9694  -16.3089  -39.2943 H         1 UNK         0.0600 
    162 H162        3.7132  -16.2365  -40.8926 H         1 UNK         0.0600 
    163 H163        4.3166  -17.3652  -39.6851 H         1 UNK         0.0600 
    164 H164        1.2909  -16.3296  -41.2590 H         1 UNK         0.3000 
    165 H165       -0.9636  -16.9340  -42.8537 H         1 UNK         0.0600 
    166 H166       -2.6972  -17.7422  -40.4631 H         1 UNK         0.0600 
    167 H167       -3.2781  -16.9008  -41.9013 H         1 UNK         0.0600 
    168 H168       -2.6366  -18.5293  -42.0335 H         1 UNK         0.0600 
    169 H169       -0.7080  -14.9575  -42.0088 H         1 UNK         0.3000 
    170 H170       -1.5746  -13.2603  -39.2218 H         1 UNK         0.0600 
    171 H171        1.4004  -14.0001  -39.3710 H         1 UNK         0.0600 
    172 H172        0.7415  -12.5326  -38.6468 H         1 UNK         0.0600 
    173 H173        0.3896  -14.0974  -37.9348 H         1 UNK         0.0600 
    174 H174        0.4511  -12.7538  -41.2498 H         1 UNK         0.3000 
    175 H175       -1.7164  -12.1475  -43.9073 H         1 UNK         0.0600 
    176 H176       -0.3657   -9.9230  -42.2883 H         1 UNK         0.0600 
    177 H177       -0.8597   -9.8258  -43.9788 H         1 UNK         0.0600 
    178 H178       -2.0719   -9.9731  -42.7168 H         1 UNK         0.0600 
    179 H179        0.9615  -11.4527  -43.8180 H         1 UNK         0.3000 
    180 H180        2.8506  -13.0348  -43.8565 H         1 UNK         0.0600 
    181 H181        2.0009  -15.6389  -45.2353 H         1 UNK         0.0600 
    182 H182        2.6478  -15.5073  -43.6029 H         1 UNK         0.0600 
    183 H183        3.6536  -15.0883  -44.9791 H         1 UNK         0.0600 
    184 H184        2.0049  -13.6268  -46.6065 H         1 UNK         0.3000 
    185 H185        1.1530  -10.8144  -47.6750 H         1 UNK         0.0600 
    186 H186        3.0340   -9.2792  -47.3816 H         1 UNK         0.0600 
    187 H187        4.1931  -10.5130  -47.8464 H         1 UNK         0.0600 
    188 H188        3.0474   -9.8822  -49.0298 H         1 UNK         0.0600 
    189 H189        1.2678  -12.5406  -49.0249 H         1 UNK         0.3000 
    190 H190       -0.5282  -21.5015  -44.0855 H         1 UNK         0.3000 
    191 H191       -2.8170  -22.1356  -42.5513 H         1 UNK         0.0600 
    192 H192       -0.1281  -23.5940  -42.7645 H         1 UNK         0.0600 
    193 H193       -0.4826  -22.2362  -41.6976 H         1 UNK         0.0600 
    194 H194       -1.2930  -23.7782  -41.4589 H         1 UNK         0.0600 
    195 H195       -1.3233  -23.8338  -45.2893 H         1 UNK         0.3000 
    196 H196       -3.1188  -26.1143  -45.2290 H         1 UNK         0.0600 
    197 H197       -0.7801  -26.3035  -46.0214 H         1 UNK         0.0600 
    198 H198       -1.0975  -25.1477  -47.3109 H         1 UNK         0.0600 
    199 H199       -1.8875  -26.7220  -47.3149 H         1 UNK         0.0600 
    200 H200       -4.0700  -23.1111  -45.7683 H         1 UNK         0.3000 
    201 H201       -5.7687  -22.1031  -46.7578 H         1 UNK         0.0600 
    202 H202       -7.7352  -23.4266  -47.4690 H         1 UNK         0.0600 
    203 H203       -7.0919  -24.0505  -45.9577 H         1 UNK         0.0600 
    204 H204       -6.7899  -24.9068  -47.4684 H         1 UNK         0.0600 
    205 H205       -3.8287  -21.5292  -48.1229 H         1 UNK         0.3000 
    206 H206       -2.9845  -20.7786  -50.0319 H         1 UNK         0.0600 
    207 H207       -5.3020  -19.9901  -50.5453 H         1 UNK         0.0600 
    208 H208       -5.6635  -21.5097  -51.3425 H         1 UNK         0.0600 
    209 H209       -4.4500  -20.4379  -52.0126 H         1 UNK         0.0600 
    210 H210       -2.2768  -23.2663  -49.1990 H         1 UNK         0.3000 
    211 H211       -1.3883  -25.2671  -49.6602 H         1 UNK         0.0600 
    212 H212        0.2120  -23.8797  -50.9386 H         1 UNK         0.0600 
    213 H213        0.0004  -25.4316  -51.7288 H         1 UNK         0.0600 
    214 H214       -0.7833  -23.9999  -52.3853 H         1 UNK         0.0600 
    215 H215       -4.0144  -25.4963  -49.6512 H         1 UNK         0.3000 
    216 H216       -5.8570  -26.5099  -50.2697 H         1 UNK         0.0600 
    217 H217       -5.7297  -28.7289  -51.3410 H         1 UNK         0.0600 
    218 H218       -4.0878  -28.4215  -51.8878 H         1 UNK         0.0600 
    219 H219       -4.4358  -28.5636  -50.1649 H         1 UNK         0.0600 
    220 H220       -5.4798  -24.2281  -51.5291 H         1 UNK         0.3000 
    221 H221       -6.0675  -22.8588  -53.1466 H         1 UNK         0.0600 
    222 H222       -7.8668  -25.0963  -54.2011 H         1 UNK         0.0600 
    223 H223       -8.2765  -24.0005  -52.8814 H         1 UNK         0.0600 
    224 H224       -8.0471  -23.3742  -54.5043 H         1 UNK         0.0600 
    225 H225       -3.6665  -24.4185  -53.6251 H         1 UNK         0.3000 
    226 H226       -3.4703  -24.5730  -56.5821 H         1 UNK         0.0600 
    227 H227       -2.3799  -26.3476  -55.1920 H         1 UNK         0.0600 
    228 H228       -1.2162  -25.4460  -56.1530 H         1 UNK         0.0600 
    229 H229       -1.3653  -25.1222  -54.4323 H         1 UNK         0.0600 
    230 H230       -2.6872  -22.4347  -53.8711 H         1 UNK         0.3000 
    231 H231       -0.8966  -20.6955  -55.3949 H         1 UNK         0.0600 
    232 H232       -0.9253  -19.3275  -53.3501 H         1 UNK         0.0600 
    233 H233       -0.7244  -21.0088  -52.8864 H         1 UNK         0.0600 
    234 H234       -2.2886  -20.2210  -52.7031 H         1 UNK         0.0600 
    235 H235       -1.4399  -18.3532  -55.5917 H         1 UNK         0.3000 
    236 H236       -3.5050  -17.9574  -57.3846 H         1 UNK         0.0600 
    237 H237       -2.8664  -15.5405  -57.2012 H         1 UNK         0.0600 
    238 H238       -1.9565  -15.8877  -55.7359 H         1 UNK         0.0600 
    239 H239       -1.4527  -16.5780  -57.2797 H         1 UNK         0.0600 
    240 H240       -3.6913  -17.5948  -53.8960 H         1 UNK         0.3000 
    241 H241       -6.3056  -16.2627  -53.9826 H         1 UNK         0.0600 
    242 H242       -5.5069  -19.5161  -54.5395 H         1 UNK         0.3800 
    243 H243       -7.0007  -20.1630  -53.9079 H         1 UNK         0.3800 
    244 H244       -4.9345  -15.4126  -52.2772 H         1 UNK         0.0800 
    245 H245       -6.1706  -16.3245  -51.4830 H         1 UNK         0.0800 
    246 H246       -3.0227  -15.2052  -51.0039 H         1 UNK         0.0800 
    247 H247       -2.1850  -16.1843  -52.1868 H         1 UNK         0.0800 
@<TRIPOS>BOND
     1    1    2 1    
     2    1  127 1    
     3    1  128 1    
     4    1  129 1    
     5    2    3 2    
     6    2    4 am   BACKBONE|DICT|INTERRES
     7    4    5 1    
     8    4  130 1    
     9    5    6 1    
    10    5   65 1    
    11    5  131 1    
    12    6    7 1    
    13    6  132 1    
    14    6  133 1    
    15    7    8 1    
    16    8    9 1    
    17    8  134 1    
    18    8  135 1    
    19    9   10 ar   
    20    9   14 ar   
    21   10   11 ar   
    22   10  136 1    
    23   11   12 ar   
    24   11  126 1    
    25   12   13 ar   
    26   12  137 1    
    27   13   14 ar   
    28   13   15 1    
    29   14  138 1    
    30   15   16 1    
    31   15  139 1    
    32   15  140 1    
    33   16   17 1    
    34   17   18 1    
    35   17  141 1    
    36   17  142 1    
    37   18   19 1    
    38   18   67 1    
    39   18  143 1    
    40   19   20 am   BACKBONE|DICT|INTERRES
    41   19  144 1    
    42   20   21 2    
    43   20   22 1    
    44   22   23 1    
    45   22   24 1    
    46   22  145 1    
    47   23  146 1    
    48   23  147 1    
    49   23  148 1    
    50   24   25 am   BACKBONE|DICT|INTERRES
    51   24  149 1    
    52   25   26 2    
    53   25   27 1    
    54   27   28 1    
    55   27   29 1    
    56   27  150 1    
    57   28  151 1    
    58   28  152 1    
    59   28  153 1    
    60   29   30 am   BACKBONE|DICT|INTERRES
    61   29  154 1    
    62   30   31 2    
    63   30   32 1    
    64   32   33 1    
    65   32   34 1    
    66   32  155 1    
    67   33  156 1    
    68   33  157 1    
    69   33  158 1    
    70   34   35 am   BACKBONE|DICT|INTERRES
    71   34  159 1    
    72   35   36 2    
    73   35   37 1    
    74   37   38 1    
    75   37   39 1    
    76   37  160 1    
    77   38  161 1    
    78   38  162 1    
    79   38  163 1    
    80   39   40 am   BACKBONE|DICT|INTERRES
    81   39  164 1    
    82   40   41 2    
    83   40   42 1    
    84   42   43 1    
    85   42   44 1    
    86   42  165 1    
    87   43  166 1    
    88   43  167 1    
    89   43  168 1    
    90   44   45 am   BACKBONE|DICT|INTERRES
    91   44  169 1    
    92   45   46 2    
    93   45   47 1    
    94   47   48 1    
    95   47   49 1    
    96   47  170 1    
    97   48  171 1    
    98   48  172 1    
    99   48  173 1    
   100   49   50 am   BACKBONE|DICT|INTERRES
   101   49  174 1    
   102   50   51 2    
   103   50   52 1    
   104   52   53 1    
   105   52   54 1    
   106   52  175 1    
   107   53  176 1    
   108   53  177 1    
   109   53  178 1    
   110   54   55 am   BACKBONE|DICT|INTERRES
   111   54  179 1    
   112   55   56 2    
   113   55   57 1    
   114   57   58 1    
   115   57   59 1    
   116   57  180 1    
   117   58  181 1    
   118   58  182 1    
   119   58  183 1    
   120   59   60 am   BACKBONE|DICT|INTERRES
   121   59  184 1    
   122   60   61 2    
   123   60   62 1    
   124   62   63 1    
   125   62   64 1    
   126   62  185 1    
   127   63  186 1    
   128   63  187 1    
   129   63  188 1    
   130   64   65 am   BACKBONE|DICT|INTERRES
   131   64  189 1    
   132   65   66 2    
   133   67   68 2    
   134   67   69 am   BACKBONE|DICT|INTERRES
   135   69   70 1    
   136   69  190 1    
   137   70   71 1    
   138   70   72 1    
   139   70  191 1    
   140   71  192 1    
   141   71  193 1    
   142   71  194 1    
   143   72   73 2    
   144   72   74 am   BACKBONE|DICT|INTERRES
   145   74   75 1    
   146   74  195 1    
   147   75   76 1    
   148   75   77 1    
   149   75  196 1    
   150   76  197 1    
   151   76  198 1    
   152   76  199 1    
   153   77   78 2    
   154   77   79 am   BACKBONE|DICT|INTERRES
   155   79   80 1    
   156   79  200 1    
   157   80   81 1    
   158   80   82 1    
   159   80  201 1    
   160   81  202 1    
   161   81  203 1    
   162   81  204 1    
   163   82   83 2    
   164   82   84 am   BACKBONE|DICT|INTERRES
   165   84   85 1    
   166   84  205 1    
   167   85   86 1    
   168   85   87 1    
   169   85  206 1    
   170   86  207 1    
   171   86  208 1    
   172   86  209 1    
   173   87   88 2    
   174   87   89 am   BACKBONE|DICT|INTERRES
   175   89   90 1    
   176   89  210 1    
   177   90   91 1    
   178   90   92 1    
   179   90  211 1    
   180   91  212 1    
   181   91  213 1    
   182   91  214 1    
   183   92   93 2    
   184   92   94 am   BACKBONE|DICT|INTERRES
   185   94   95 1    
   186   94  215 1    
   187   95   96 1    
   188   95   97 1    
   189   95  216 1    
   190   96  217 1    
   191   96  218 1    
   192   96  219 1    
   193   97   98 2    
   194   97   99 am   BACKBONE|DICT|INTERRES
   195   99  100 1    
   196   99  220 1    
   197  100  101 1    
   198  100  102 1    
   199  100  221 1    
   200  101  222 1    
   201  101  223 1    
   202  101  224 1    
   203  102  103 2    
   204  102  104 am   BACKBONE|DICT|INTERRES
   205  104  105 1    
   206  104  225 1    
   207  105  106 1    
   208  105  107 1    
   209  105  226 1    
   210  106  227 1    
   211  106  228 1    
   212  106  229 1    
   213  107  108 2    
   214  107  109 am   BACKBONE|DICT|INTERRES
   215  109  110 1    
   216  109  230 1    
   217  110  111 1    
   218  110  112 1    
   219  110  231 1    
   220  111  232 1    
   221  111  233 1    
   222  111  234 1    
   223  112  113 2    
   224  112  114 am   BACKBONE|DICT|INTERRES
   225  114  115 1    
   226  114  235 1    
   227  115  116 1    
   228  115  117 1    
   229  115  236 1    
   230  116  237 1    
   231  116  238 1    
   232  116  239 1    
   233  117  118 2    
   234  117  119 am   BACKBONE|DICT|INTERRES
   235  119  120 1    
   236  119  240 1    
   237  120  121 1    
   238  120  124 1    
   239  120  241 1    
   240  121  122 am   BACKBONE|DICT|INTERRES
   241  121  123 2    
   242  122  242 1    
   243  122  243 1    
   244  124  125 1    
   245  124  244 1    
   246  124  245 1    
   247  125  126 1    
   248  126  246 1    
   249  126  247 1    
@<TRIPOS>SUBSTRUCTURE
     1 UNK         1 GROUP             0       ****    0 ROOT    
