@<TRIPOS>MOLECULE
3R540
247   249    1
SMALL
USER_CHARGES


@<TRIPOS>ATOM
      1 CA         -2.2751  -14.4478  -49.7432 C.3       0 UNK        -0.1800 
      2 C          -1.8575  -13.8851  -48.3924 C.2       0 UNK         0.5000 
      3 O          -0.8888  -14.3605  -47.8024 O.2       0 UNK        -0.5000 
      4 N          -2.5739  -12.8649  -47.9024 N.am      1 UNK        -0.5000 
      5 CA         -2.3961  -12.2777  -46.5651 C.3       1 UNK         0.1400 
      6 C6         -3.5649  -11.3403  -46.1572 C.3       23 UNK        -0.0398 
      7 S7         -5.2424  -11.9279  -46.5899 S.3       23 UNK        -0.2404 
      8 C8         -5.5347  -13.2727  -45.3940 C.3       23 UNK        -0.0205 
      9 C9         -4.8746  -14.5756  -45.8242 C.ar      23 UNK        -0.0193 
     10 C10        -5.2429  -15.1870  -47.0273 C.ar      23 UNK        -0.1150 
     11 C11        -4.6207  -16.3663  -47.4443 C.ar      23 UNK        -0.0193 
     12 C12        -3.6282  -16.9404  -46.6471 C.ar      23 UNK        -0.1150 
     13 C13        -3.2674  -16.3518  -45.4324 C.ar      23 UNK        -0.0193 
     14 C14        -3.8960  -15.1722  -45.0237 C.ar      23 UNK        -0.1150 
     15 C15        -2.1815  -16.9768  -44.5726 C.3       23 UNK        -0.0205 
     16 S16        -2.8573  -17.9579  -43.1912 S.3       23 UNK        -0.2404 
     17 C17        -3.7127  -19.3140  -44.0603 C.3       23 UNK        -0.0398 
     18 CA         -2.7497  -20.4244  -44.5433 C.3       11 UNK         0.1400 
     19 N          -2.0899  -21.1182  -43.4231 N.am      11 UNK        -0.5000 
     20 C          -1.1768  -22.0950  -43.5344 C.2       10 UNK         0.5000 
     21 O          -0.8366  -22.5903  -44.6102 O.2       10 UNK        -0.5000 
     22 CA         -0.5453  -22.5899  -42.2251 C.3       10 UNK         0.1400 
     23 CB          0.3840  -23.8042  -42.4287 C.3       10 UNK        -0.1800 
     24 N           0.1941  -21.5010  -41.5915 N.am      10 UNK        -0.5000 
     25 C           0.4458  -21.4174  -40.2773 C.2       9 UNK         0.5000 
     26 O           0.0067  -22.2232  -39.4552 O.2       9 UNK        -0.5000 
     27 CA          1.3500  -20.2702  -39.7768 C.3       9 UNK         0.1400 
     28 CB          2.7406  -20.8104  -39.4068 C.3       9 UNK        -0.1800 
     29 N           1.5167  -19.1815  -40.7368 N.am      9 UNK        -0.5000 
     30 C           0.5714  -18.2938  -41.0680 C.2       8 UNK         0.5000 
     31 O          -0.5357  -18.2483  -40.5323 O.2       8 UNK        -0.5000 
     32 CA          0.9126  -17.3096  -42.2052 C.3       8 UNK         0.1400 
     33 CB          1.3867  -15.9657  -41.6361 C.3       8 UNK        -0.1800 
     34 N           1.9124  -17.8193  -43.1494 N.am      8 UNK        -0.5000 
     35 C           1.7517  -18.9005  -43.9265 C.2       7 UNK         0.5000 
     36 O           0.7312  -19.5843  -43.9339 O.2       7 UNK        -0.5000 
     37 CA          2.9432  -19.3169  -44.8020 C.3       7 UNK         0.1400 
     38 CB          2.9650  -18.5155  -46.1106 C.3       7 UNK        -0.1800 
     39 N           4.2068  -19.1304  -44.0913 N.am      7 UNK        -0.5000 
     40 C           4.7234  -20.0139  -43.2263 C.2       6 UNK         0.5000 
     41 O           4.2245  -21.1152  -42.9947 O.2       6 UNK        -0.5000 
     42 CA          6.0031  -19.5916  -42.4776 C.3       6 UNK         0.1400 
     43 CB          7.2519  -20.0105  -43.2680 C.3       6 UNK        -0.1800 
     44 N           6.0675  -18.1538  -42.2081 N.am      6 UNK        -0.5000 
     45 C           5.2463  -17.4980  -41.3763 C.2       5 UNK         0.5000 
     46 O           4.3618  -18.0451  -40.7189 O.2       5 UNK        -0.5000 
     47 CA          5.4120  -15.9669  -41.3002 C.3       5 UNK         0.1400 
     48 CB          6.4333  -15.5946  -40.2150 C.3       5 UNK        -0.1800 
     49 N           5.7982  -15.3284  -42.5643 N.am      5 UNK        -0.5000 
     50 C           5.1453  -15.4371  -43.7299 C.2       4 UNK         0.5000 
     51 O           4.1667  -16.1680  -43.8979 O.2       4 UNK        -0.5000 
     52 CA          5.7336  -14.6384  -44.9096 C.3       4 UNK         0.1400 
     53 CB          7.0138  -15.3192  -45.4217 C.3       4 UNK        -0.1800 
     54 N           4.8118  -14.4903  -46.0382 N.am      4 UNK        -0.5000 
     55 C           3.6472  -13.8286  -46.0226 C.2       3 UNK         0.5000 
     56 O           3.1927  -13.2558  -45.0285 O.2       3 UNK        -0.5000 
     57 CA          2.8757  -13.8186  -47.3605 C.3       3 UNK         0.1400 
     58 CB          2.2232  -15.1836  -47.6267 C.3       3 UNK        -0.1800 
     59 N           1.8470  -12.7782  -47.4365 N.am      3 UNK        -0.5000 
     60 C           2.0931  -11.4592  -47.4590 C.2       2 UNK         0.5000 
     61 O           3.2308  -10.9854  -47.4434 O.2       2 UNK        -0.5000 
     62 CA          0.8902  -10.4949  -47.5504 C.3       2 UNK         0.1400 
     63 CB          0.9528   -9.6705  -48.8474 C.3       2 UNK        -0.1800 
     64 N          -0.4093  -11.1649  -47.4975 N.am      2 UNK        -0.5000 
     65 C          -1.0420  -11.5538  -46.3825 C.2       1 UNK         0.5000 
     66 O          -0.6029  -11.3629  -45.2482 O.2       1 UNK        -0.5000 
     67 C          -3.4823  -21.3573  -45.5332 C.2       11 UNK         0.5000 
     68 O          -3.6153  -21.0044  -46.7054 O.2       11 UNK        -0.5000 
     69 N          -3.8937  -22.5472  -45.0701 N.am      12 UNK        -0.5000 
     70 CA         -4.4681  -23.6228  -45.8816 C.3       12 UNK         0.1400 
     71 CB         -4.8507  -24.7927  -44.9638 C.3       12 UNK        -0.1800 
     72 C          -3.5489  -24.1133  -47.0195 C.2       12 UNK         0.5000 
     73 O          -4.0574  -24.6077  -48.0254 O.2       12 UNK        -0.5000 
     74 N          -2.2264  -23.9267  -46.8840 N.am      13 UNK        -0.5000 
     75 CA         -1.2369  -24.2249  -47.9215 C.3       13 UNK         0.1400 
     76 CB          0.1756  -23.9874  -47.3684 C.3       13 UNK        -0.1800 
     77 C          -1.4504  -23.4148  -49.2149 C.2       13 UNK         0.5000 
     78 O          -1.2165  -23.9429  -50.3001 O.2       13 UNK        -0.5000 
     79 N          -1.9362  -22.1712  -49.0874 N.am      14 UNK        -0.5000 
     80 CA         -2.2626  -21.2963  -50.2154 C.3       14 UNK         0.1400 
     81 CB         -2.3331  -19.8438  -49.7205 C.3       14 UNK        -0.1800 
     82 C          -3.5662  -21.6976  -50.9331 C.2       14 UNK         0.5000 
     83 O          -3.7585  -21.3171  -52.0881 O.2       14 UNK        -0.5000 
     84 N          -4.4434  -22.4427  -50.2471 N.am      15 UNK        -0.5000 
     85 CA         -5.6452  -23.0386  -50.8297 C.3       15 UNK         0.1400 
     86 CB         -6.7158  -23.2129  -49.7398 C.3       15 UNK        -0.1800 
     87 C          -5.3198  -24.3895  -51.4911 C.2       15 UNK         0.5000 
     88 O          -5.8495  -24.6845  -52.5620 O.2       15 UNK        -0.5000 
     89 N          -4.4557  -25.1803  -50.8376 N.am      16 UNK        -0.5000 
     90 CA         -4.0117  -26.5003  -51.2867 C.3       16 UNK         0.1400 
     91 CB         -3.3157  -27.2156  -50.1189 C.3       16 UNK        -0.1800 
     92 C          -3.0866  -26.4590  -52.5180 C.2       16 UNK         0.5000 
     93 O          -3.0769  -27.4183  -53.2913 O.2       16 UNK        -0.5000 
     94 N          -2.3230  -25.3677  -52.6741 N.am      17 UNK        -0.5000 
     95 CA         -1.4395  -25.1037  -53.8109 C.3       17 UNK         0.1400 
     96 CB         -0.7165  -23.7658  -53.5851 C.3       17 UNK        -0.1800 
     97 C          -2.1940  -25.0665  -55.1522 C.2       17 UNK         0.5000 
     98 O          -3.3130  -24.5534  -55.2111 O.2       17 UNK        -0.5000 
     99 N          -1.5425  -25.5572  -56.2155 N.am      18 UNK        -0.5000 
    100 CA        -2.0867  -25.6480  -57.5767 C.3       18 UNK         0.1400 
    101 CB        -1.0846  -26.4014  -58.4649 C.3       18 UNK        -0.1800 
    102 C         -2.4532  -24.2901  -58.2103 C.2       18 UNK         0.5000 
    103 O         -3.3014  -24.2459  -59.1021 O.2       18 UNK        -0.5000 
    104 N         -1.8273  -23.2091  -57.7249 N.am      19 UNK        -0.5000 
    105 CA        -2.1429  -21.8264  -58.0828 C.3       19 UNK         0.1400 
    106 CB        -1.0108  -20.9163  -57.5802 C.3       19 UNK        -0.1800 
    107 C         -3.4989  -21.3439  -57.5268 C.2       19 UNK         0.5000 
    108 O         -4.0652  -20.4026  -58.0836 O.2       19 UNK        -0.5000 
    109 N         -3.9815  -21.9807  -56.4449 N.am      20 UNK        -0.5000 
    110 CA        -5.2188  -21.6880  -55.7115 C.3       20 UNK         0.1400 
    111 CB        -6.4465  -22.1143  -56.5414 C.3       20 UNK        -0.1800 
    112 C         -5.2944  -20.2240  -55.2287 C.2       20 UNK         0.5000 
    113 O         -6.3302  -19.5713  -55.3722 O.2       20 UNK        -0.5000 
    114 N         -4.1770  -19.7311  -54.6764 N.am      21 UNK        -0.5000 
    115 CA        -3.9614  -18.3433  -54.2582 C.3       21 UNK         0.1400 
    116 CB        -2.5192  -18.1964  -53.7491 C.3       21 UNK        -0.1800 
    117 C         -4.9642  -17.8270  -53.2084 C.2       21 UNK         0.5000 
    118 O         -5.2847  -16.6379  -53.2169 O.2       21 UNK        -0.5000 
    119 N         -5.4539  -18.7283  -52.3488 N.am      22 UNK        -0.5000 
    120 CA        -6.5214  -18.4605  -51.3707 C.3       22 UNK         0.1400 
    121 C         -7.9618  -18.7252  -51.9043 C.2       22 UNK         0.5000 
    122 N         -8.1596  -19.0897  -53.1657 N.am      22 UNK        -0.7600 
    123 O         -8.9296  -18.5858  -51.1621 O.2       22 UNK        -0.5000 
    124 C124       -6.2395  -19.1855  -50.0252 C.3       23 UNK        -0.0398 
    125 S125       -6.4392  -18.1156  -48.5640 S.3       23 UNK        -0.2404 
    126 C126       -5.0040  -17.0139  -48.7622 C.3       23 UNK        -0.0205 
    127 H127       -1.5060  -14.2455  -50.4884 H         1 UNK         0.0600 
    128 H128       -3.2134  -14.0140  -50.0897 H         1 UNK         0.0600 
    129 H129       -2.4072  -15.5275  -49.6727 H         1 UNK         0.0600 
    130 H130       -3.3690  -12.5194  -48.4209 H         1 UNK         0.3000 
    131 H131       -2.3792  -13.1076  -45.8590 H         1 UNK         0.0600 
    132 H132       -3.5320  -11.1444  -45.0840 H         1 UNK         0.0800 
    133 H133       -3.4491  -10.3678  -46.6396 H         1 UNK         0.0800 
    134 H134       -5.1960  -12.9633  -44.4040 H         1 UNK         0.0800 
    135 H135       -6.6094  -13.4396  -45.3119 H         1 UNK         0.0800 
    136 H136       -6.0055  -14.7355  -47.6463 H         1 UNK         0.1150 
    137 H137       -3.1423  -17.8510  -46.9692 H         1 UNK         0.1150 
    138 H138       -3.6106  -14.7133  -44.0875 H         1 UNK         0.1150 
    139 H139       -1.5575  -16.1793  -44.1679 H         1 UNK         0.0800 
    140 H140       -1.5182  -17.5981  -45.1762 H         1 UNK         0.0800 
    141 H141       -4.2850  -18.8933  -44.8875 H         1 UNK         0.0800 
    142 H142       -4.4553  -19.7337  -43.3797 H         1 UNK         0.0800 
    143 H143       -1.9521  -19.9538  -45.1213 H         1 UNK         0.0600 
    144 H144       -2.2828  -20.7453  -42.5045 H         1 UNK         0.3000 
    145 H145       -1.3704  -22.8945  -41.5780 H         1 UNK         0.0600 
    146 H146       -0.1422  -24.6226  -42.9217 H         1 UNK         0.0600 
    147 H147        0.7541  -24.1860  -41.4773 H         1 UNK         0.0600 
    148 H148        1.2471  -23.5476  -43.0444 H         1 UNK         0.0600 
    149 H149        0.5399  -20.7820  -42.2196 H         1 UNK         0.3000 
    150 H150        0.8908  -19.8629  -38.8738 H         1 UNK         0.0600 
    151 H151        2.6685  -21.6126  -38.6713 H         1 UNK         0.0600 
    152 H152        3.3646  -20.0290  -38.9728 H         1 UNK         0.0600 
    153 H153        3.2608  -21.2088  -40.2789 H         1 UNK         0.0600 
    154 H154        2.4271  -19.0937  -41.1703 H         1 UNK         0.3000 
    155 H155       -0.0023  -17.1340  -42.7676 H         1 UNK         0.0600 
    156 H156        2.2446  -16.0949  -40.9780 H         1 UNK         0.0600 
    157 H157        0.5968  -15.4932  -41.0511 H         1 UNK         0.0600 
    158 H158        1.6667  -15.2714  -42.4291 H         1 UNK         0.0600 
    159 H159        2.7675  -17.2787  -43.2474 H         1 UNK         0.3000 
    160 H160        2.8226  -20.3724  -45.0562 H         1 UNK         0.0600 
    161 H161        3.0849  -17.4496  -45.9221 H         1 UNK         0.0600 
    162 H162        2.0359  -18.6486  -46.6664 H         1 UNK         0.0600 
    163 H163        3.7820  -18.8362  -46.7569 H         1 UNK         0.0600 
    164 H164        4.6310  -18.2145  -44.1675 H         1 UNK         0.3000 
    165 H165        6.0126  -20.1157  -41.5195 H         1 UNK         0.0600 
    166 H166        8.1633  -19.7893  -42.7122 H         1 UNK         0.0600 
    167 H167        7.2463  -21.0830  -43.4670 H         1 UNK         0.0600 
    168 H168        7.3110  -19.4983  -44.2292 H         1 UNK         0.0600 
    169 H169        6.7645  -17.6248  -42.7108 H         1 UNK         0.3000 
    170 H170        4.4491  -15.5460  -41.0103 H         1 UNK         0.0600 
    171 H171        6.4824  -14.5150  -40.0719 H         1 UNK         0.0600 
    172 H172        7.4345  -15.9470  -40.4663 H         1 UNK         0.0600 
    173 H173        6.1615  -16.0353  -39.2548 H         1 UNK         0.0600 
    174 H174        6.6065  -14.7245  -42.5215 H         1 UNK         0.3000 
    175 H175        5.9838  -13.6384  -44.5499 H         1 UNK         0.0600 
    176 H176        7.7615  -15.4069  -44.6325 H         1 UNK         0.0600 
    177 H177        6.8122  -16.3243  -45.7951 H         1 UNK         0.0600 
    178 H178        7.4691  -14.7466  -46.2301 H         1 UNK         0.0600 
    179 H179        5.0877  -14.9541  -46.8909 H         1 UNK         0.3000 
    180 H180        3.5942  -13.6237  -48.1595 H         1 UNK         0.0600 
    181 H181        1.6568  -15.1771  -48.5581 H         1 UNK         0.0600 
    182 H182        1.5436  -15.4688  -46.8222 H         1 UNK         0.0600 
    183 H183        2.9768  -15.9651  -47.7207 H         1 UNK         0.0600 
    184 H184        0.8861  -13.0985  -47.4388 H         1 UNK         0.3000 
    185 H185        0.9662   -9.8051  -46.7073 H         1 UNK         0.0600 
    186 H186        0.1360   -8.9502  -48.8971 H         1 UNK         0.0600 
    187 H187        1.8837   -9.1055  -48.9105 H         1 UNK         0.0600 
    188 H188        0.8946  -10.3069  -49.7313 H         1 UNK         0.0600 
    189 H189       -0.8429  -11.3792  -48.3839 H         1 UNK         0.3000 
    190 H190       -3.7334  -22.7563  -44.0960 H         1 UNK         0.3000 
    191 H191       -5.3780  -23.2363  -46.3451 H         1 UNK         0.0600 
    192 H192       -5.5733  -24.4828  -44.2085 H         1 UNK         0.0600 
    193 H193       -5.3066  -25.6036  -45.5338 H         1 UNK         0.0600 
    194 H194       -3.9799  -25.2017  -44.4498 H         1 UNK         0.0600 
    195 H195       -1.8705  -23.4938  -46.0362 H         1 UNK         0.3000 
    196 H196       -1.3296  -25.2829  -48.1722 H         1 UNK         0.0600 
    197 H197        0.9339  -24.2531  -48.1060 H         1 UNK         0.0600 
    198 H198        0.3589  -24.5922  -46.4800 H         1 UNK         0.0600 
    199 H199        0.3311  -22.9420  -47.0986 H         1 UNK         0.0600 
    200 H200       -2.1627  -21.8227  -48.1636 H         1 UNK         0.3000 
    201 H201       -1.4580  -21.3624  -50.9511 H         1 UNK         0.0600 
    202 H202       -2.5952  -19.1616  -50.5296 H         1 UNK         0.0600 
    203 H203       -1.3731  -19.5181  -49.3198 H         1 UNK         0.0600 
    204 H204       -3.0783  -19.7232  -48.9351 H         1 UNK         0.0600 
    205 H205       -4.2074  -22.7250  -49.3057 H         1 UNK         0.3000 
    206 H206       -6.0488  -22.3705  -51.5939 H         1 UNK         0.0600 
    207 H207       -6.9185  -22.2764  -49.2223 H         1 UNK         0.0600 
    208 H208       -7.6557  -23.5551  -50.1743 H         1 UNK         0.0600 
    209 H209       -6.4205  -23.9461  -48.9893 H         1 UNK         0.0600 
    210 H210       -4.1331  -24.8883  -49.9200 H         1 UNK         0.3000 
    211 H211       -4.8976  -27.0773  -51.5596 H         1 UNK         0.0600 
    212 H212       -2.4156  -26.6861  -49.8060 H         1 UNK         0.0600 
    213 H213       -3.0208  -28.2274  -50.3998 H         1 UNK         0.0600 
    214 H214       -3.9751  -27.2965  -49.2544 H         1 UNK         0.0600 
    215 H215       -2.3390  -24.6643  -51.9460 H         1 UNK         0.3000 
    216 H216       -0.6971  -25.9033  -53.8474 H         1 UNK         0.0600 
    217 H217       -1.4230  -22.9454  -53.4493 H         1 UNK         0.0600 
    218 H218       -0.0769  -23.5134  -54.4318 H         1 UNK         0.0600 
    219 H219       -0.0770  -23.8072  -52.7038 H         1 UNK         0.0600 
    220 H220       -0.6176  -25.9411  -56.0835 H         1 UNK         0.3000 
    221 H221       -3.0055  -26.2357  -57.5240 H         1 UNK         0.0600 
    222 H222       -0.1316  -25.8750  -58.5315 H         1 UNK         0.0600 
    223 H223       -0.8904  -27.4028  -58.0804 H         1 UNK         0.0600 
    224 H224       -1.4686  -26.5144  -59.4797 H         1 UNK         0.0600 
    225 H225       -1.1315  -23.3455  -57.0073 H         1 UNK         0.3000 
    226 H226       -2.1858  -21.7536  -59.1716 H         1 UNK         0.0600 
    227 H227       -0.0530  -21.1991  -58.0175 H         1 UNK         0.0600 
    228 H228       -1.1957  -19.8761  -57.8518 H         1 UNK         0.0600 
    229 H229       -0.9114  -20.9587  -56.4947 H         1 UNK         0.0600 
    230 H230       -3.4680  -22.7815  -56.0905 H         1 UNK         0.3000 
    231 H231       -5.1970  -22.3055  -54.8117 H         1 UNK         0.0600 
    232 H232       -6.5518  -21.5143  -57.4458 H         1 UNK         0.0600 
    233 H233       -7.3658  -22.0047  -55.9649 H         1 UNK         0.0600 
    234 H234       -6.3739  -23.1604  -56.8392 H         1 UNK         0.0600 
    235 H235       -3.3989  -20.3610  -54.5462 H         1 UNK         0.3000 
    236 H236       -4.0745  -17.7174  -55.1456 H         1 UNK         0.0600 
    237 H237       -2.3209  -18.8623  -52.9090 H         1 UNK         0.0600 
    238 H238       -1.7994  -18.4262  -54.5349 H         1 UNK         0.0600 
    239 H239       -2.3212  -17.1766  -53.4160 H         1 UNK         0.0600 
    240 H240       -5.1184  -19.6824  -52.4162 H         1 UNK         0.3000 
    241 H241       -6.5153  -17.3875  -51.1763 H         1 UNK         0.0600 
    242 H242       -7.3936  -19.1822  -53.8264 H         1 UNK         0.3800 
    243 H243       -9.1023  -19.2468  -53.4847 H         1 UNK         0.3800 
    244 H244       -5.2226  -19.5698  -49.9940 H         1 UNK         0.0800 
    245 H245       -6.8762  -20.0617  -49.9016 H         1 UNK         0.0800 
    246 H246       -4.1549  -17.5702  -49.1590 H         1 UNK         0.0800 
    247 H247       -5.2334  -16.2440  -49.5002 H         1 UNK         0.0800 
@<TRIPOS>BOND
     1    1    2 1    
     2    1  127 1    
     3    1  128 1    
     4    1  129 1    
     5    2    3 2    
     6    2    4 am   BACKBONE|DICT|INTERRES
     7    4    5 1    
     8    4  130 1    
     9    5    6 1    
    10    5   65 1    
    11    5  131 1    
    12    6    7 1    
    13    6  132 1    
    14    6  133 1    
    15    7    8 1    
    16    8    9 1    
    17    8  134 1    
    18    8  135 1    
    19    9   10 ar   
    20    9   14 ar   
    21   10   11 ar   
    22   10  136 1    
    23   11   12 ar   
    24   11  126 1    
    25   12   13 ar   
    26   12  137 1    
    27   13   14 ar   
    28   13   15 1    
    29   14  138 1    
    30   15   16 1    
    31   15  139 1    
    32   15  140 1    
    33   16   17 1    
    34   17   18 1    
    35   17  141 1    
    36   17  142 1    
    37   18   19 1    
    38   18   67 1    
    39   18  143 1    
    40   19   20 am   BACKBONE|DICT|INTERRES
    41   19  144 1    
    42   20   21 2    
    43   20   22 1    
    44   22   23 1    
    45   22   24 1    
    46   22  145 1    
    47   23  146 1    
    48   23  147 1    
    49   23  148 1    
    50   24   25 am   BACKBONE|DICT|INTERRES
    51   24  149 1    
    52   25   26 2    
    53   25   27 1    
    54   27   28 1    
    55   27   29 1    
    56   27  150 1    
    57   28  151 1    
    58   28  152 1    
    59   28  153 1    
    60   29   30 am   BACKBONE|DICT|INTERRES
    61   29  154 1    
    62   30   31 2    
    63   30   32 1    
    64   32   33 1    
    65   32   34 1    
    66   32  155 1    
    67   33  156 1    
    68   33  157 1    
    69   33  158 1    
    70   34   35 am   BACKBONE|DICT|INTERRES
    71   34  159 1    
    72   35   36 2    
    73   35   37 1    
    74   37   38 1    
    75   37   39 1    
    76   37  160 1    
    77   38  161 1    
    78   38  162 1    
    79   38  163 1    
    80   39   40 am   BACKBONE|DICT|INTERRES
    81   39  164 1    
    82   40   41 2    
    83   40   42 1    
    84   42   43 1    
    85   42   44 1    
    86   42  165 1    
    87   43  166 1    
    88   43  167 1    
    89   43  168 1    
    90   44   45 am   BACKBONE|DICT|INTERRES
    91   44  169 1    
    92   45   46 2    
    93   45   47 1    
    94   47   48 1    
    95   47   49 1    
    96   47  170 1    
    97   48  171 1    
    98   48  172 1    
    99   48  173 1    
   100   49   50 am   BACKBONE|DICT|INTERRES
   101   49  174 1    
   102   50   51 2    
   103   50   52 1    
   104   52   53 1    
   105   52   54 1    
   106   52  175 1    
   107   53  176 1    
   108   53  177 1    
   109   53  178 1    
   110   54   55 am   BACKBONE|DICT|INTERRES
   111   54  179 1    
   112   55   56 2    
   113   55   57 1    
   114   57   58 1    
   115   57   59 1    
   116   57  180 1    
   117   58  181 1    
   118   58  182 1    
   119   58  183 1    
   120   59   60 am   BACKBONE|DICT|INTERRES
   121   59  184 1    
   122   60   61 2    
   123   60   62 1    
   124   62   63 1    
   125   62   64 1    
   126   62  185 1    
   127   63  186 1    
   128   63  187 1    
   129   63  188 1    
   130   64   65 am   BACKBONE|DICT|INTERRES
   131   64  189 1    
   132   65   66 2    
   133   67   68 2    
   134   67   69 am   BACKBONE|DICT|INTERRES
   135   69   70 1    
   136   69  190 1    
   137   70   71 1    
   138   70   72 1    
   139   70  191 1    
   140   71  192 1    
   141   71  193 1    
   142   71  194 1    
   143   72   73 2    
   144   72   74 am   BACKBONE|DICT|INTERRES
   145   74   75 1    
   146   74  195 1    
   147   75   76 1    
   148   75   77 1    
   149   75  196 1    
   150   76  197 1    
   151   76  198 1    
   152   76  199 1    
   153   77   78 2    
   154   77   79 am   BACKBONE|DICT|INTERRES
   155   79   80 1    
   156   79  200 1    
   157   80   81 1    
   158   80   82 1    
   159   80  201 1    
   160   81  202 1    
   161   81  203 1    
   162   81  204 1    
   163   82   83 2    
   164   82   84 am   BACKBONE|DICT|INTERRES
   165   84   85 1    
   166   84  205 1    
   167   85   86 1    
   168   85   87 1    
   169   85  206 1    
   170   86  207 1    
   171   86  208 1    
   172   86  209 1    
   173   87   88 2    
   174   87   89 am   BACKBONE|DICT|INTERRES
   175   89   90 1    
   176   89  210 1    
   177   90   91 1    
   178   90   92 1    
   179   90  211 1    
   180   91  212 1    
   181   91  213 1    
   182   91  214 1    
   183   92   93 2    
   184   92   94 am   BACKBONE|DICT|INTERRES
   185   94   95 1    
   186   94  215 1    
   187   95   96 1    
   188   95   97 1    
   189   95  216 1    
   190   96  217 1    
   191   96  218 1    
   192   96  219 1    
   193   97   98 2    
   194   97   99 am   BACKBONE|DICT|INTERRES
   195   99  100 1    
   196   99  220 1    
   197  100  101 1    
   198  100  102 1    
   199  100  221 1    
   200  101  222 1    
   201  101  223 1    
   202  101  224 1    
   203  102  103 2    
   204  102  104 am   BACKBONE|DICT|INTERRES
   205  104  105 1    
   206  104  225 1    
   207  105  106 1    
   208  105  107 1    
   209  105  226 1    
   210  106  227 1    
   211  106  228 1    
   212  106  229 1    
   213  107  108 2    
   214  107  109 am   BACKBONE|DICT|INTERRES
   215  109  110 1    
   216  109  230 1    
   217  110  111 1    
   218  110  112 1    
   219  110  231 1    
   220  111  232 1    
   221  111  233 1    
   222  111  234 1    
   223  112  113 2    
   224  112  114 am   BACKBONE|DICT|INTERRES
   225  114  115 1    
   226  114  235 1    
   227  115  116 1    
   228  115  117 1    
   229  115  236 1    
   230  116  237 1    
   231  116  238 1    
   232  116  239 1    
   233  117  118 2    
   234  117  119 am   BACKBONE|DICT|INTERRES
   235  119  120 1    
   236  119  240 1    
   237  120  121 1    
   238  120  124 1    
   239  120  241 1    
   240  121  122 am   BACKBONE|DICT|INTERRES
   241  121  123 2    
   242  122  242 1    
   243  122  243 1    
   244  124  125 1    
   245  124  244 1    
   246  124  245 1    
   247  125  126 1    
   248  126  246 1    
   249  126  247 1    
@<TRIPOS>SUBSTRUCTURE
     1 UNK         1 GROUP             0       ****    0 ROOT    
