@<TRIPOS>MOLECULE
3R540
247   249    1
SMALL
USER_CHARGES


@<TRIPOS>ATOM
      1 CA          4.2491  -18.9162  -49.7062 C.3       0 UNK        -0.1800 
      2 C           3.5370  -18.0531  -48.6741 C.2       0 UNK         0.5000 
      3 O           3.7509  -18.2345  -47.4748 O.2       0 UNK        -0.5000 
      4 N           2.6832  -17.1338  -49.1365 N.am      1 UNK        -0.5000 
      5 CA          2.0034  -16.1314  -48.3123 C.3       1 UNK         0.1400 
      6 C6          0.6276  -15.7360  -48.9019 C.3       23 UNK        -0.0398 
      7 S7         -0.6370  -17.0105  -48.5821 S.3       23 UNK        -0.2404 
      8 C8         -1.6645  -16.1493  -47.3538 C.3       23 UNK        -0.0205 
      9 C9         -2.9163  -16.9448  -47.0259 C.ar      23 UNK        -0.0193 
     10 C10        -4.0443  -16.8280  -47.8400 C.ar      23 UNK        -0.1150 
     11 C11        -5.1988  -17.5650  -47.5661 C.ar      23 UNK        -0.0193 
     12 C12        -5.2195  -18.4248  -46.4624 C.ar      23 UNK        -0.1150 
     13 C13        -4.0970  -18.5493  -45.6366 C.ar      23 UNK        -0.0193 
     14 C14        -2.9535  -17.7935  -45.9166 C.ar      23 UNK        -0.1150 
     15 C15        -4.1289  -19.4867  -44.4351 C.3       23 UNK        -0.0205 
     16 S16        -3.7693  -21.2199  -44.8758 S.3       23 UNK        -0.2404 
     17 C17        -1.9716  -21.1659  -45.1806 C.3       23 UNK        -0.0398 
     18 CA         -1.4871  -22.3154  -46.0930 C.3       11 UNK         0.1400 
     19 N          -0.3606  -21.9210  -46.9396 N.am      11 UNK        -0.5000 
     20 C          -0.0066  -22.5463  -48.0708 C.2       10 UNK         0.5000 
     21 O          -0.6139  -23.5104  -48.5409 O.2       10 UNK        -0.5000 
     22 CA          1.2503  -22.0136  -48.7811 C.3       10 UNK         0.1400 
     23 CB          0.8806  -20.8647  -49.7320 C.3       10 UNK        -0.1800 
     24 N           2.2743  -21.5574  -47.8380 N.am      10 UNK        -0.5000 
     25 C           2.9412  -22.3635  -46.9986 C.2       9 UNK         0.5000 
     26 O           2.7796  -23.5807  -46.9498 O.2       9 UNK        -0.5000 
     27 CA          3.8994  -21.6885  -46.0034 C.3       9 UNK         0.1400 
     28 CB          5.2851  -21.4823  -46.6320 C.3       9 UNK        -0.1800 
     29 N           3.3836  -20.4069  -45.5231 N.am      9 UNK        -0.5000 
     30 C           2.3025  -20.2712  -44.7470 C.2       8 UNK         0.5000 
     31 O           1.6091  -21.2158  -44.3582 O.2       8 UNK        -0.5000 
     32 CA          1.8748  -18.8312  -44.4378 C.3       8 UNK         0.1400 
     33 CB          0.8599  -18.3595  -45.4839 C.3       8 UNK        -0.1800 
     34 N           1.2511  -18.7326  -43.1234 N.am      8 UNK        -0.5000 
     35 C           1.9042  -18.5920  -41.9646 C.2       7 UNK         0.5000 
     36 O           3.1327  -18.5412  -41.8816 O.2       7 UNK        -0.5000 
     37 CA          1.0360  -18.4959  -40.6867 C.3       7 UNK         0.1400 
     38 CB          1.6781  -17.6055  -39.6021 C.3       7 UNK        -0.1800 
     39 N          -0.3610  -18.0949  -40.9290 N.am      7 UNK        -0.5000 
     40 C          -0.7984  -16.9409  -41.4581 C.2       6 UNK         0.5000 
     41 O          -0.0559  -16.0268  -41.8194 O.2       6 UNK        -0.5000 
     42 CA         -2.3274  -16.8278  -41.6236 C.3       6 UNK         0.1400 
     43 CB         -3.0093  -16.3698  -40.3189 C.3       6 UNK        -0.1800 
     44 N          -2.7222  -16.0085  -42.7783 N.am      6 UNK        -0.5000 
     45 C          -2.6752  -14.6758  -42.9228 C.2       5 UNK         0.5000 
     46 O          -2.3804  -13.8792  -42.0279 O.2       5 UNK        -0.5000 
     47 CA         -3.0732  -14.1563  -44.3196 C.3       5 UNK         0.1400 
     48 CB         -4.5855  -14.3052  -44.5568 C.3       5 UNK        -0.1800 
     49 N          -2.7002  -12.7564  -44.5201 N.am      5 UNK        -0.5000 
     50 C          -1.4563  -12.3237  -44.7563 C.2       4 UNK         0.5000 
     51 O          -0.4835  -13.0673  -44.9206 O.2       4 UNK        -0.5000 
     52 CA         -1.2795  -10.7979  -44.8147 C.3       4 UNK         0.1400 
     53 CB         -1.3495  -10.1734  -43.4104 C.3       4 UNK        -0.1800 
     54 N           0.0146  -10.4875  -45.4099 N.am      4 UNK        -0.5000 
     55 C           0.2728   -9.4896  -46.2623 C.2       3 UNK         0.5000 
     56 O          -0.5662   -8.6556  -46.6061 O.2       3 UNK        -0.5000 
     57 CA          1.7083   -9.3924  -46.8270 C.3       3 UNK         0.1400 
     58 CB          2.4305   -8.1634  -46.2516 C.3       3 UNK        -0.1800 
     59 N           2.5328  -10.5791  -46.5732 N.am      3 UNK        -0.5000 
     60 C           2.3655  -11.7724  -47.1579 C.2       2 UNK         0.5000 
     61 O           1.5117  -11.9832  -48.0231 O.2       2 UNK        -0.5000 
     62 CA          3.2906  -12.9124  -46.6773 C.3       2 UNK         0.1400 
     63 CB          3.5452  -12.8659  -45.1574 C.3       2 UNK        -0.1800 
     64 N           2.7020  -14.2097  -46.9977 N.am      2 UNK        -0.5000 
     65 C           2.8953  -14.8901  -48.1330 C.2       1 UNK         0.5000 
     66 O           3.6957  -14.5616  -49.0131 O.2       1 UNK        -0.5000 
     67 C          -1.1815  -23.6136  -45.3243 C.2       11 UNK         0.5000 
     68 O          -2.0413  -24.4910  -45.2503 O.2       11 UNK        -0.5000 
     69 N           0.0563  -23.7457  -44.8282 N.am      12 UNK        -0.5000 
     70 CA          0.5593  -24.9692  -44.2047 C.3       12 UNK         0.1400 
     71 CB          1.9258  -24.6866  -43.5618 C.3       12 UNK        -0.1800 
     72 C           0.6496  -26.1504  -45.1923 C.2       12 UNK         0.5000 
     73 O           0.2910  -27.2713  -44.8294 O.2       12 UNK        -0.5000 
     74 N           1.1266  -25.8800  -46.4150 N.am      13 UNK        -0.5000 
     75 CA          1.3480  -26.8835  -47.4533 C.3       13 UNK         0.1400 
     76 CB          2.3345  -26.3347  -48.4964 C.3       13 UNK        -0.1800 
     77 C           0.0596  -27.3616  -48.1436 C.2       13 UNK         0.5000 
     78 O          -0.1114  -28.5702  -48.3116 O.2       13 UNK        -0.5000 
     79 N          -0.7922  -26.4223  -48.5787 N.am      14 UNK        -0.5000 
     80 CA         -1.8735  -26.6986  -49.5305 C.3       14 UNK         0.1400 
     81 CB         -1.3367  -26.4861  -50.9603 C.3       14 UNK        -0.1800 
     82 C          -3.1440  -25.8713  -49.2687 C.2       14 UNK         0.5000 
     83 O          -3.9546  -25.7121  -50.1820 O.2       14 UNK        -0.5000 
     84 N          -3.3013  -25.3343  -48.0489 N.am      15 UNK        -0.5000 
     85 CA         -4.4252  -24.4900  -47.6097 C.3       15 UNK         0.1400 
     86 CB         -5.7434  -25.2926  -47.5951 C.3       15 UNK        -0.1800 
     87 C          -4.5546  -23.1608  -48.3889 C.2       15 UNK         0.5000 
     88 O          -5.6218  -22.5466  -48.3688 O.2       15 UNK        -0.5000 
     89 N          -3.4644  -22.7467  -49.0557 N.am      16 UNK        -0.5000 
     90 CA         -3.2380  -21.5302  -49.8421 C.3       16 UNK         0.1400 
     91 CB         -3.3146  -20.2782  -48.9536 C.3       16 UNK        -0.1800 
     92 C          -4.1053  -21.3908  -51.1068 C.2       16 UNK         0.5000 
     93 O          -3.5858  -20.9793  -52.1438 O.2       16 UNK        -0.5000 
     94 N          -5.3882  -21.7559  -51.0259 N.am      17 UNK        -0.5000 
     95 CA         -6.3712  -21.6684  -52.1030 C.3       17 UNK         0.1400 
     96 CB         -7.7622  -22.0031  -51.5463 C.3       17 UNK        -0.1800 
     97 C          -6.0316  -22.5631  -53.3071 C.2       17 UNK         0.5000 
     98 O          -6.1748  -22.1189  -54.4459 O.2       17 UNK        -0.5000 
     99 N          -5.5401  -23.7834  -53.0436 N.am      18 UNK        -0.5000 
    100 CA        -5.1136  -24.7338  -54.0773 C.3       18 UNK         0.1400 
    101 CB        -4.9887  -26.1362  -53.4661 C.3       18 UNK        -0.1800 
    102 C         -3.7964  -24.3212  -54.7636 C.2       18 UNK         0.5000 
    103 O         -3.5685  -24.6936  -55.9147 O.2       18 UNK        -0.5000 
    104 N         -2.9706  -23.5377  -54.0570 N.am      19 UNK        -0.5000 
    105 CA        -1.7476  -22.9223  -54.5751 C.3       19 UNK         0.1400 
    106 CB        -0.7728  -22.7127  -53.4027 C.3       19 UNK        -0.1800 
    107 C         -2.0191  -21.5872  -55.3019 C.2       19 UNK         0.5000 
    108 O         -1.0935  -21.0292  -55.8915 O.2       19 UNK        -0.5000 
    109 N         -3.2635  -21.0873  -55.2185 N.am      20 UNK        -0.5000 
    110 CA        -3.7519  -19.7821  -55.6802 C.3       20 UNK         0.1400 
    111 CB        -3.6372  -19.6520  -57.2127 C.3       20 UNK        -0.1800 
    112 C         -3.1195  -18.5882  -54.9304 C.2       20 UNK         0.5000 
    113 O         -3.1778  -17.4559  -55.4139 O.2       20 UNK        -0.5000 
    114 N         -2.5559  -18.8466  -53.7425 N.am      21 UNK        -0.5000 
    115 CA        -1.8739  -17.8658  -52.8985 C.3       21 UNK         0.1400 
    116 CB        -0.9816  -18.6096  -51.8948 C.3       21 UNK        -0.1800 
    117 C         -2.8483  -16.8999  -52.1958 C.2       21 UNK         0.5000 
    118 O         -2.4355  -15.8100  -51.7987 O.2       21 UNK        -0.5000 
    119 N         -4.1284  -17.2881  -52.1075 N.am      22 UNK        -0.5000 
    120 CA        -5.2443  -16.4155  -51.7059 C.3       22 UNK         0.1400 
    121 C         -5.6169  -15.3272  -52.7594 C.2       22 UNK         0.5000 
    122 N         -5.1076  -15.3682  -53.9867 N.am      22 UNK        -0.7600 
    123 O         -6.3857  -14.4199  -52.4539 O.2       22 UNK        -0.5000 
    124 C124       -6.5080  -17.2199  -51.2993 C.3       23 UNK        -0.0398 
    125 S125       -6.2119  -18.4414  -49.9782 S.3       23 UNK        -0.2404 
    126 C126       -6.4122  -17.4359  -48.4733 C.3       23 UNK        -0.0205 
    127 H127        3.9163  -18.6930  -50.7201 H         1 UNK         0.0600 
    128 H128        4.0636  -19.9722  -49.5141 H         1 UNK         0.0600 
    129 H129        5.3243  -18.7456  -49.6555 H         1 UNK         0.0600 
    130 H130        2.5775  -17.0166  -50.1335 H         1 UNK         0.3000 
    131 H131        1.8436  -16.5375  -47.3150 H         1 UNK         0.0600 
    132 H132        0.2772  -14.7881  -48.4881 H         1 UNK         0.0800 
    133 H133        0.6979  -15.5748  -49.9789 H         1 UNK         0.0800 
    134 H134       -1.9505  -15.1685  -47.7375 H         1 UNK         0.0800 
    135 H135       -1.0745  -15.9704  -46.4545 H         1 UNK         0.0800 
    136 H136       -4.0148  -16.1741  -48.6993 H         1 UNK         0.1150 
    137 H137       -6.1050  -19.0081  -46.2527 H         1 UNK         0.1150 
    138 H138       -2.0865  -17.8747  -45.2797 H         1 UNK         0.1150 
    139 H139       -5.1156  -19.4431  -43.9715 H         1 UNK         0.0800 
    140 H140       -3.4230  -19.1590  -43.6725 H         1 UNK         0.0800 
    141 H141       -1.7807  -20.2246  -45.6877 H         1 UNK         0.0800 
    142 H142       -1.4255  -21.1270  -44.2362 H         1 UNK         0.0800 
    143 H143       -2.3044  -22.5485  -46.7681 H         1 UNK         0.0600 
    144 H144        0.2220  -21.1701  -46.6033 H         1 UNK         0.3000 
    145 H145        1.6693  -22.8298  -49.3733 H         1 UNK         0.0600 
    146 H146        0.1418  -21.1890  -50.4652 H         1 UNK         0.0600 
    147 H147        1.7490  -20.5171  -50.2906 H         1 UNK         0.0600 
    148 H148        0.4615  -20.0111  -49.1970 H         1 UNK         0.0600 
    149 H149        2.4620  -20.5666  -47.8005 H         1 UNK         0.3000 
    150 H150        4.0099  -22.3540  -45.1447 H         1 UNK         0.0600 
    151 H151        5.2490  -20.7938  -47.4764 H         1 UNK         0.0600 
    152 H152        5.6941  -22.4265  -46.9941 H         1 UNK         0.0600 
    153 H153        5.9905  -21.0810  -45.9043 H         1 UNK         0.0600 
    154 H154        3.8288  -19.5734  -45.8936 H         1 UNK         0.3000 
    155 H155        2.7515  -18.1806  -44.4794 H         1 UNK         0.0600 
    156 H156        0.6507  -17.2959  -45.3735 H         1 UNK         0.0600 
    157 H157       -0.0787  -18.8956  -45.3902 H         1 UNK         0.0600 
    158 H158        1.2211  -18.5308  -46.4974 H         1 UNK         0.0600 
    159 H159        0.2478  -18.8159  -43.0920 H         1 UNK         0.3000 
    160 H160        0.9906  -19.5102  -40.2878 H         1 UNK         0.0600 
    161 H161        1.8265  -16.5837  -39.9523 H         1 UNK         0.0600 
    162 H162        2.6530  -17.9921  -39.3028 H         1 UNK         0.0600 
    163 H163        1.0586  -17.5665  -38.7061 H         1 UNK         0.0600 
    164 H164       -1.0495  -18.7853  -40.6623 H         1 UNK         0.3000 
    165 H165       -2.7015  -17.8279  -41.8446 H         1 UNK         0.0600 
    166 H166       -4.0852  -16.2566  -40.4526 H         1 UNK         0.0600 
    167 H167       -2.8561  -17.1011  -39.5246 H         1 UNK         0.0600 
    168 H168       -2.6118  -15.4206  -39.9591 H         1 UNK         0.0600 
    169 H169       -3.0058  -16.5408  -43.5872 H         1 UNK         0.3000 
    170 H170       -2.5493  -14.7576  -45.0618 H         1 UNK         0.0600 
    171 H171       -4.8630  -13.9611  -45.5535 H         1 UNK         0.0600 
    172 H172       -5.1652  -13.7354  -43.8297 H         1 UNK         0.0600 
    173 H173       -4.8976  -15.3478  -44.4826 H         1 UNK         0.0600 
    174 H174       -3.4292  -12.0770  -44.3595 H         1 UNK         0.3000 
    175 H175       -2.0821  -10.3922  -45.4343 H         1 UNK         0.0600 
    176 H176       -2.3111  -10.3728  -42.9362 H         1 UNK         0.0600 
    177 H177       -0.5725  -10.5713  -42.7564 H         1 UNK         0.0600 
    178 H178       -1.2284   -9.0909  -43.4542 H         1 UNK         0.0600 
    179 H179        0.7306  -11.1795  -45.2365 H         1 UNK         0.3000 
    180 H180        1.6217   -9.2616  -47.9076 H         1 UNK         0.0600 
    181 H181        2.5534   -8.2390  -45.1705 H         1 UNK         0.0600 
    182 H182        1.8715   -7.2490  -46.4548 H         1 UNK         0.0600 
    183 H183        3.4188   -8.0419  -46.6956 H         1 UNK         0.0600 
    184 H184        3.2512  -10.4796  -45.8705 H         1 UNK         0.3000 
    185 H185        4.2478  -12.8023  -47.1908 H         1 UNK         0.0600 
    186 H186        4.1087  -11.9777  -44.8701 H         1 UNK         0.0600 
    187 H187        2.6124  -12.8681  -44.5913 H         1 UNK         0.0600 
    188 H188        4.1306  -13.7265  -44.8328 H         1 UNK         0.0600 
    189 H189        1.9896  -14.5273  -46.3561 H         1 UNK         0.3000 
    190 H190        0.6999  -22.9635  -44.8850 H         1 UNK         0.3000 
    191 H191       -0.1359  -25.2512  -43.4111 H         1 UNK         0.0600 
    192 H192        1.8564  -23.8880  -42.8229 H         1 UNK         0.0600 
    193 H193        2.3070  -25.5717  -43.0511 H         1 UNK         0.0600 
    194 H194        2.6677  -24.3907  -44.3037 H         1 UNK         0.0600 
    195 H195        1.4737  -24.9452  -46.6099 H         1 UNK         0.3000 
    196 H196        1.8146  -27.7548  -46.9884 H         1 UNK         0.0600 
    197 H197        2.5205  -27.0661  -49.2839 H         1 UNK         0.0600 
    198 H198        3.2962  -26.0973  -48.0414 H         1 UNK         0.0600 
    199 H199        1.9565  -25.4287  -48.9717 H         1 UNK         0.0600 
    200 H200       -0.5871  -25.4402  -48.4135 H         1 UNK         0.3000 
    201 H201       -2.1906  -27.7391  -49.4394 H         1 UNK         0.0600 
    202 H202       -2.0792  -26.7591  -51.7101 H         1 UNK         0.0600 
    203 H203       -0.4554  -27.0993  -51.1485 H         1 UNK         0.0600 
    204 H204       -1.0618  -25.4445  -51.1300 H         1 UNK         0.0600 
    205 H205       -2.5884  -25.5064  -47.3515 H         1 UNK         0.3000 
    206 H206       -4.2178  -24.2057  -46.5788 H         1 UNK         0.0600 
    207 H207       -5.6312  -26.2246  -47.0412 H         1 UNK         0.0600 
    208 H208       -6.5408  -24.7259  -47.1132 H         1 UNK         0.0600 
    209 H209       -6.0830  -25.5380  -48.6016 H         1 UNK         0.0600 
    210 H210       -2.6514  -23.3495  -48.9960 H         1 UNK         0.3000 
    211 H211       -2.2111  -21.6056  -50.1996 H         1 UNK         0.0600 
    212 H212       -4.2690  -20.2158  -48.4332 H         1 UNK         0.0600 
    213 H213       -3.2064  -19.3629  -49.5360 H         1 UNK         0.0600 
    214 H214       -2.5270  -20.2754  -48.2011 H         1 UNK         0.0600 
    215 H215       -5.7217  -22.0599  -50.1136 H         1 UNK         0.3000 
    216 H216       -6.3847  -20.6342  -52.4532 H         1 UNK         0.0600 
    217 H217       -8.5234  -21.9321  -52.3243 H         1 UNK         0.0600 
    218 H218       -7.8000  -23.0136  -51.1374 H         1 UNK         0.0600 
    219 H219       -8.0429  -21.3103  -50.7525 H         1 UNK         0.0600 
    220 H220       -5.4324  -24.0737  -52.0812 H         1 UNK         0.3000 
    221 H221       -5.8883  -24.7702  -54.8462 H         1 UNK         0.0600 
    222 H222       -4.1864  -26.1825  -52.7314 H         1 UNK         0.0600 
    223 H223       -5.9134  -26.4409  -52.9759 H         1 UNK         0.0600 
    224 H224       -4.7681  -26.8773  -54.2354 H         1 UNK         0.0600 
    225 H225       -3.2512  -23.2622  -53.1271 H         1 UNK         0.3000 
    226 H226       -1.2775  -23.5983  -55.2923 H         1 UNK         0.0600 
    227 H227        0.1761  -22.3034  -53.7513 H         1 UNK         0.0600 
    228 H228       -1.1718  -22.0209  -52.6609 H         1 UNK         0.0600 
    229 H229       -0.5524  -23.6539  -52.8992 H         1 UNK         0.0600 
    230 H230       -3.9452  -21.6320  -54.7071 H         1 UNK         0.3000 
    231 H231       -4.8133  -19.7590  -55.4299 H         1 UNK         0.0600 
    232 H232       -2.5995  -19.5785  -57.5386 H         1 UNK         0.0600 
    233 H233       -4.1530  -18.7595  -57.5686 H         1 UNK         0.0600 
    234 H234       -4.0884  -20.5075  -57.7155 H         1 UNK         0.0600 
    235 H235       -2.6557  -19.7810  -53.3572 H         1 UNK         0.3000 
    236 H236       -1.2260  -17.2641  -53.5391 H         1 UNK         0.0600 
    237 H237       -1.5675  -19.1805  -51.1765 H         1 UNK         0.0600 
    238 H238       -0.3075  -19.3006  -52.4012 H         1 UNK         0.0600 
    239 H239       -0.3617  -17.9088  -51.3366 H         1 UNK         0.0600 
    240 H240       -4.3717  -18.2111  -52.4342 H         1 UNK         0.3000 
    241 H241       -4.9168  -15.8631  -50.8244 H         1 UNK         0.0600 
    242 H242       -4.4615  -16.0935  -54.2689 H         1 UNK         0.3800 
    243 H243       -5.3626  -14.6505  -54.6466 H         1 UNK         0.3800 
    244 H244       -6.8991  -17.7591  -52.1636 H         1 UNK         0.0800 
    245 H245       -7.3096  -16.5520  -50.9788 H         1 UNK         0.0800 
    246 H246       -6.5608  -16.3855  -48.7268 H         1 UNK         0.0800 
    247 H247       -7.3156  -17.7547  -47.9516 H         1 UNK         0.0800 
@<TRIPOS>BOND
     1    1    2 1    
     2    1  127 1    
     3    1  128 1    
     4    1  129 1    
     5    2    3 2    
     6    2    4 am   BACKBONE|DICT|INTERRES
     7    4    5 1    
     8    4  130 1    
     9    5    6 1    
    10    5   65 1    
    11    5  131 1    
    12    6    7 1    
    13    6  132 1    
    14    6  133 1    
    15    7    8 1    
    16    8    9 1    
    17    8  134 1    
    18    8  135 1    
    19    9   10 ar   
    20    9   14 ar   
    21   10   11 ar   
    22   10  136 1    
    23   11   12 ar   
    24   11  126 1    
    25   12   13 ar   
    26   12  137 1    
    27   13   14 ar   
    28   13   15 1    
    29   14  138 1    
    30   15   16 1    
    31   15  139 1    
    32   15  140 1    
    33   16   17 1    
    34   17   18 1    
    35   17  141 1    
    36   17  142 1    
    37   18   19 1    
    38   18   67 1    
    39   18  143 1    
    40   19   20 am   BACKBONE|DICT|INTERRES
    41   19  144 1    
    42   20   21 2    
    43   20   22 1    
    44   22   23 1    
    45   22   24 1    
    46   22  145 1    
    47   23  146 1    
    48   23  147 1    
    49   23  148 1    
    50   24   25 am   BACKBONE|DICT|INTERRES
    51   24  149 1    
    52   25   26 2    
    53   25   27 1    
    54   27   28 1    
    55   27   29 1    
    56   27  150 1    
    57   28  151 1    
    58   28  152 1    
    59   28  153 1    
    60   29   30 am   BACKBONE|DICT|INTERRES
    61   29  154 1    
    62   30   31 2    
    63   30   32 1    
    64   32   33 1    
    65   32   34 1    
    66   32  155 1    
    67   33  156 1    
    68   33  157 1    
    69   33  158 1    
    70   34   35 am   BACKBONE|DICT|INTERRES
    71   34  159 1    
    72   35   36 2    
    73   35   37 1    
    74   37   38 1    
    75   37   39 1    
    76   37  160 1    
    77   38  161 1    
    78   38  162 1    
    79   38  163 1    
    80   39   40 am   BACKBONE|DICT|INTERRES
    81   39  164 1    
    82   40   41 2    
    83   40   42 1    
    84   42   43 1    
    85   42   44 1    
    86   42  165 1    
    87   43  166 1    
    88   43  167 1    
    89   43  168 1    
    90   44   45 am   BACKBONE|DICT|INTERRES
    91   44  169 1    
    92   45   46 2    
    93   45   47 1    
    94   47   48 1    
    95   47   49 1    
    96   47  170 1    
    97   48  171 1    
    98   48  172 1    
    99   48  173 1    
   100   49   50 am   BACKBONE|DICT|INTERRES
   101   49  174 1    
   102   50   51 2    
   103   50   52 1    
   104   52   53 1    
   105   52   54 1    
   106   52  175 1    
   107   53  176 1    
   108   53  177 1    
   109   53  178 1    
   110   54   55 am   BACKBONE|DICT|INTERRES
   111   54  179 1    
   112   55   56 2    
   113   55   57 1    
   114   57   58 1    
   115   57   59 1    
   116   57  180 1    
   117   58  181 1    
   118   58  182 1    
   119   58  183 1    
   120   59   60 am   BACKBONE|DICT|INTERRES
   121   59  184 1    
   122   60   61 2    
   123   60   62 1    
   124   62   63 1    
   125   62   64 1    
   126   62  185 1    
   127   63  186 1    
   128   63  187 1    
   129   63  188 1    
   130   64   65 am   BACKBONE|DICT|INTERRES
   131   64  189 1    
   132   65   66 2    
   133   67   68 2    
   134   67   69 am   BACKBONE|DICT|INTERRES
   135   69   70 1    
   136   69  190 1    
   137   70   71 1    
   138   70   72 1    
   139   70  191 1    
   140   71  192 1    
   141   71  193 1    
   142   71  194 1    
   143   72   73 2    
   144   72   74 am   BACKBONE|DICT|INTERRES
   145   74   75 1    
   146   74  195 1    
   147   75   76 1    
   148   75   77 1    
   149   75  196 1    
   150   76  197 1    
   151   76  198 1    
   152   76  199 1    
   153   77   78 2    
   154   77   79 am   BACKBONE|DICT|INTERRES
   155   79   80 1    
   156   79  200 1    
   157   80   81 1    
   158   80   82 1    
   159   80  201 1    
   160   81  202 1    
   161   81  203 1    
   162   81  204 1    
   163   82   83 2    
   164   82   84 am   BACKBONE|DICT|INTERRES
   165   84   85 1    
   166   84  205 1    
   167   85   86 1    
   168   85   87 1    
   169   85  206 1    
   170   86  207 1    
   171   86  208 1    
   172   86  209 1    
   173   87   88 2    
   174   87   89 am   BACKBONE|DICT|INTERRES
   175   89   90 1    
   176   89  210 1    
   177   90   91 1    
   178   90   92 1    
   179   90  211 1    
   180   91  212 1    
   181   91  213 1    
   182   91  214 1    
   183   92   93 2    
   184   92   94 am   BACKBONE|DICT|INTERRES
   185   94   95 1    
   186   94  215 1    
   187   95   96 1    
   188   95   97 1    
   189   95  216 1    
   190   96  217 1    
   191   96  218 1    
   192   96  219 1    
   193   97   98 2    
   194   97   99 am   BACKBONE|DICT|INTERRES
   195   99  100 1    
   196   99  220 1    
   197  100  101 1    
   198  100  102 1    
   199  100  221 1    
   200  101  222 1    
   201  101  223 1    
   202  101  224 1    
   203  102  103 2    
   204  102  104 am   BACKBONE|DICT|INTERRES
   205  104  105 1    
   206  104  225 1    
   207  105  106 1    
   208  105  107 1    
   209  105  226 1    
   210  106  227 1    
   211  106  228 1    
   212  106  229 1    
   213  107  108 2    
   214  107  109 am   BACKBONE|DICT|INTERRES
   215  109  110 1    
   216  109  230 1    
   217  110  111 1    
   218  110  112 1    
   219  110  231 1    
   220  111  232 1    
   221  111  233 1    
   222  111  234 1    
   223  112  113 2    
   224  112  114 am   BACKBONE|DICT|INTERRES
   225  114  115 1    
   226  114  235 1    
   227  115  116 1    
   228  115  117 1    
   229  115  236 1    
   230  116  237 1    
   231  116  238 1    
   232  116  239 1    
   233  117  118 2    
   234  117  119 am   BACKBONE|DICT|INTERRES
   235  119  120 1    
   236  119  240 1    
   237  120  121 1    
   238  120  124 1    
   239  120  241 1    
   240  121  122 am   BACKBONE|DICT|INTERRES
   241  121  123 2    
   242  122  242 1    
   243  122  243 1    
   244  124  125 1    
   245  124  244 1    
   246  124  245 1    
   247  125  126 1    
   248  126  246 1    
   249  126  247 1    
@<TRIPOS>SUBSTRUCTURE
     1 UNK         1 GROUP             0       ****    0 ROOT    
