@<TRIPOS>MOLECULE
3R540
247   249    1
SMALL
USER_CHARGES


@<TRIPOS>ATOM
      1 CA          5.9733  -10.9201  -42.5560 C.3       0 UNK        -0.1800 
      2 C           5.1283  -11.2685  -43.7727 C.2       0 UNK         0.5000 
      3 O           4.2158  -10.5190  -44.1210 O.2       0 UNK        -0.5000 
      4 N           5.4334  -12.3952  -44.4291 N.am      1 UNK        -0.5000 
      5 CA          4.7463  -12.9151  -45.6177 C.3       1 UNK         0.1400 
      6 C6          4.9221  -14.4536  -45.7283 C.3       23 UNK        -0.0398 
      7 S7          3.5113  -15.2831  -46.5338 S.3       23 UNK        -0.2404 
      8 C8          4.1118  -15.5108  -48.2358 C.3       23 UNK        -0.0205 
      9 C9          3.5365  -16.7645  -48.8798 C.ar      23 UNK        -0.0193 
     10 C10         2.5515  -16.6775  -49.8707 C.ar      23 UNK        -0.1150 
     11 C11         2.0835  -17.8311  -50.5154 C.ar      23 UNK        -0.0193 
     12 C12         2.6142  -19.0738  -50.1542 C.ar      23 UNK        -0.1150 
     13 C13         3.5972  -19.1749  -49.1647 C.ar      23 UNK        -0.0193 
     14 C14         4.0462  -18.0169  -48.5259 C.ar      23 UNK        -0.1150 
     15 C15         4.2230  -20.5240  -48.8323 C.3       23 UNK        -0.0205 
     16 S16         3.3814  -21.3706  -47.4586 S.3       23 UNK        -0.2404 
     17 C17         1.7689  -21.7265  -48.2226 C.3       23 UNK        -0.0398 
     18 CA          0.9484  -22.7970  -47.4662 C.3       11 UNK         0.1400 
     19 N           0.4867  -22.3493  -46.1469 N.am      11 UNK        -0.5000 
     20 C          -0.1901  -23.1097  -45.2723 C.2       10 UNK         0.5000 
     21 O          -0.4334  -24.3030  -45.4509 O.2       10 UNK        -0.5000 
     22 CA         -0.7432  -22.4157  -44.0135 C.3       10 UNK         0.1400 
     23 CB          0.3377  -22.2845  -42.9306 C.3       10 UNK        -0.1800 
     24 N          -1.3300  -21.1056  -44.3006 N.am      10 UNK        -0.5000 
     25 C          -2.4089  -20.9109  -45.0735 C.2       9 UNK         0.5000 
     26 O          -3.0534  -21.8243  -45.5880 O.2       9 UNK        -0.5000 
     27 CA         -2.8067  -19.4522  -45.3663 C.3       9 UNK         0.1400 
     28 CB         -3.6155  -18.8516  -44.2075 C.3       9 UNK        -0.1800 
     29 N          -1.6475  -18.6080  -45.6477 N.am      9 UNK        -0.5000 
     30 C          -0.8392  -18.7636  -46.7057 C.2       8 UNK         0.5000 
     31 O          -1.0219  -19.5980  -47.5933 O.2       8 UNK        -0.5000 
     32 CA          0.4106  -17.8671  -46.7400 C.3       8 UNK         0.1400 
     33 CB          0.0544  -16.4712  -47.2745 C.3       8 UNK        -0.1800 
     34 N           1.0304  -17.7456  -45.4176 N.am      8 UNK        -0.5000 
     35 C           1.5940  -18.7637  -44.7511 C.2       7 UNK         0.5000 
     36 O           1.6348  -19.9140  -45.1775 O.2       7 UNK        -0.5000 
     37 CA          2.1512  -18.4675  -43.3468 C.3       7 UNK         0.1400 
     38 CB          3.5475  -17.8344  -43.4383 C.3       7 UNK        -0.1800 
     39 N           1.2741  -17.5988  -42.5641 N.am      7 UNK        -0.5000 
     40 C           0.0197  -17.9007  -42.1964 C.2       6 UNK         0.5000 
     41 O          -0.5084  -18.9932  -42.4008 O.2       6 UNK        -0.5000 
     42 CA         -0.7998  -16.7641  -41.5496 C.3       6 UNK         0.1400 
     43 CB         -0.6657  -16.8037  -40.0204 C.3       6 UNK        -0.1800 
     44 N          -0.4130  -15.4348  -42.0390 N.am      6 UNK        -0.5000 
     45 C          -0.5024  -15.0537  -43.3203 C.2       5 UNK         0.5000 
     46 O          -1.0166  -15.7539  -44.1993 O.2       5 UNK        -0.5000 
     47 CA          0.1543  -13.7149  -43.6964 C.3       5 UNK         0.1400 
     48 CB          1.6695  -13.7501  -43.3937 C.3       5 UNK        -0.1800 
     49 N          -0.0960  -13.5030  -45.1188 N.am      5 UNK        -0.5000 
     50 C           0.2542  -12.4588  -45.8721 C.2       4 UNK         0.5000 
     51 O           0.8727  -11.4736  -45.4620 O.2       4 UNK        -0.5000 
     52 CA         -0.1890  -12.5183  -47.3390 C.3       4 UNK         0.1400 
     53 CB         -1.6297  -12.0007  -47.4975 C.3       4 UNK        -0.1800 
     54 N           0.7137  -11.6951  -48.1315 N.am      4 UNK        -0.5000 
     55 C           1.0728  -11.9340  -49.3988 C.2       3 UNK         0.5000 
     56 O           0.6355  -12.8666  -50.0726 O.2       3 UNK        -0.5000 
     57 CA          2.1155  -10.9840  -50.0040 C.3       3 UNK         0.1400 
     58 CB          1.4427   -9.7157  -50.5617 C.3       3 UNK        -0.1800 
     59 N           3.1226  -10.6441  -49.0007 N.am      3 UNK        -0.5000 
     60 C           4.3320  -10.1264  -49.2403 C.2       2 UNK         0.5000 
     61 O           4.7394   -9.8165  -50.3605 O.2       2 UNK        -0.5000 
     62 CA          5.2466   -9.9298  -48.0152 C.3       2 UNK         0.1400 
     63 CB          5.1651   -8.4815  -47.5096 C.3       2 UNK        -0.1800 
     64 N           4.9262  -10.8356  -46.9083 N.am      2 UNK        -0.5000 
     65 C           5.1804  -12.1502  -46.8912 C.2       1 UNK         0.5000 
     66 O           5.7522  -12.7348  -47.8122 O.2       1 UNK        -0.5000 
     67 C          -0.2266  -23.2571  -48.3485 C.2       11 UNK         0.5000 
     68 O          -0.1590  -24.3435  -48.9229 O.2       11 UNK        -0.5000 
     69 N          -1.2891  -22.4418  -48.4199 N.am      12 UNK        -0.5000 
     70 CA         -2.5017  -22.7517  -49.1754 C.3       12 UNK         0.1400 
     71 CB         -3.4271  -21.5302  -49.2095 C.3       12 UNK        -0.1800 
     72 C          -3.2393  -23.9899  -48.6375 C.2       12 UNK         0.5000 
     73 O          -3.6822  -24.8159  -49.4339 O.2       12 UNK        -0.5000 
     74 N          -3.3223  -24.1254  -47.3073 N.am      13 UNK        -0.5000 
     75 CA         -3.8828  -25.2944  -46.6292 C.3       13 UNK         0.1400 
     76 CB         -3.9872  -25.0219  -45.1215 C.3       13 UNK        -0.1800 
     77 C          -3.0856  -26.5816  -46.9075 C.2       13 UNK         0.5000 
     78 O          -3.6899  -27.6067  -47.2233 O.2       13 UNK        -0.5000 
     79 N          -1.7494  -26.4973  -46.8344 N.am      14 UNK        -0.5000 
     80 CA         -0.8271  -27.5949  -47.1376 C.3       14 UNK         0.1400 
     81 CB          0.5992  -27.1919  -46.7339 C.3       14 UNK        -0.1800 
     82 C          -0.8719  -28.0318  -48.6146 C.2       14 UNK         0.5000 
     83 O          -0.7973  -29.2277  -48.8984 O.2       14 UNK        -0.5000 
     84 N          -1.0220  -27.0595  -49.5234 N.am      15 UNK        -0.5000 
     85 CA         -1.1703  -27.2706  -50.9647 C.3       15 UNK         0.1400 
     86 CB         -0.8602  -25.9495  -51.6872 C.3       15 UNK        -0.1800 
     87 C          -2.5648  -27.7840  -51.3796 C.2       15 UNK         0.5000 
     88 O          -2.7265  -28.1973  -52.5285 O.2       15 UNK        -0.5000 
     89 N          -3.5434  -27.7198  -50.4626 N.am      16 UNK        -0.5000 
     90 CA         -4.9749  -27.9747  -50.6665 C.3       16 UNK         0.1400 
     91 CB         -5.2369  -29.4531  -51.0209 C.3       16 UNK        -0.1800 
     92 C          -5.6045  -26.9810  -51.6687 C.2       16 UNK         0.5000 
     93 O          -6.4623  -27.3539  -52.4708 O.2       16 UNK        -0.5000 
     94 N          -5.1507  -25.7251  -51.5928 N.am      17 UNK        -0.5000 
     95 CA         -5.5283  -24.6016  -52.4469 C.3       17 UNK         0.1400 
     96 CB         -4.2516  -24.0408  -53.0966 C.3       17 UNK        -0.1800 
     97 C          -6.2631  -23.5088  -51.6476 C.2       17 UNK         0.5000 
     98 O          -6.4351  -22.4002  -52.1541 O.2       17 UNK        -0.5000 
     99 N          -6.6914  -23.8218  -50.4155 N.am      18 UNK        -0.5000 
    100 CA        -7.3388  -22.9122  -49.4622 C.3       18 UNK         0.1400 
    101 CB        -7.5529  -23.6555  -48.1358 C.3       18 UNK        -0.1800 
    102 C         -8.6566  -22.2730  -49.9496 C.2       18 UNK         0.5000 
    103 O         -9.0571  -21.2420  -49.4098 O.2       18 UNK        -0.5000 
    104 N         -9.2915  -22.8688  -50.9691 N.am      19 UNK        -0.5000 
    105 CA       -10.4460  -22.3071  -51.6735 C.3       19 UNK         0.1400 
    106 CB       -11.0545  -23.3860  -52.5823 C.3       19 UNK        -0.1800 
    107 C        -10.0938  -21.0457  -52.4898 C.2       19 UNK         0.5000 
    108 O        -10.9251  -20.1429  -52.5938 O.2       19 UNK        -0.5000 
    109 N         -8.8709  -21.0003  -53.0369 N.am      20 UNK        -0.5000 
    110 CA        -8.2995  -19.8288  -53.7028 C.3       20 UNK         0.1400 
    111 CB        -7.3782  -20.2911  -54.8431 C.3       20 UNK        -0.1800 
    112 C         -7.5269  -18.9549  -52.6988 C.2       20 UNK         0.5000 
    113 O         -7.6193  -17.7285  -52.7665 O.2       20 UNK        -0.5000 
    114 N         -6.8124  -19.6161  -51.7755 N.am      21 UNK        -0.5000 
    115 CA        -5.9945  -19.0659  -50.6927 C.3       21 UNK         0.1400 
    116 CB        -6.8539  -18.2149  -49.7314 C.3       21 UNK        -0.1800 
    117 C         -4.7356  -18.3217  -51.1891 C.2       21 UNK         0.5000 
    118 O         -4.4181  -18.3339  -52.3807 O.2       21 UNK        -0.5000 
    119 N         -4.0256  -17.7010  -50.2452 N.am      22 UNK        -0.5000 
    120 CA        -2.8852  -16.8085  -50.4615 C.3       22 UNK         0.1400 
    121 C         -2.8377  -15.7569  -49.3194 C.2       22 UNK         0.5000 
    122 N         -2.1477  -14.6448  -49.5170 N.am      22 UNK        -0.7600 
    123 O         -3.4240  -15.9345  -48.2529 O.2       22 UNK        -0.5000 
    124 C124       -1.5512  -17.5843  -50.6500 C.3       23 UNK        -0.0398 
    125 S125       -0.2667  -16.5657  -51.4553 S.3       23 UNK        -0.2404 
    126 C126        1.0977  -17.7537  -51.6811 C.3       23 UNK        -0.0205 
    127 H127        6.7427  -11.6692  -42.3680 H         1 UNK         0.0600 
    128 H128        5.3426  -10.8505  -41.6698 H         1 UNK         0.0600 
    129 H129        6.4637   -9.9579  -42.7034 H         1 UNK         0.0600 
    130 H130        6.2216  -12.9416  -44.1120 H         1 UNK         0.3000 
    131 H131        3.6808  -12.7143  -45.4873 H         1 UNK         0.0600 
    132 H132        4.9710  -14.8849  -44.7275 H         1 UNK         0.0800 
    133 H133        5.8661  -14.7327  -46.1987 H         1 UNK         0.0800 
    134 H134        3.8609  -14.6251  -48.8215 H         1 UNK         0.0800 
    135 H135        5.2000  -15.5833  -48.2451 H         1 UNK         0.0800 
    136 H136        2.1725  -15.7078  -50.1622 H         1 UNK         0.1150 
    137 H137        2.2856  -19.9653  -50.6692 H         1 UNK         0.1150 
    138 H138        4.8153  -18.0861  -47.7693 H         1 UNK         0.1150 
    139 H139        4.2249  -21.1682  -49.7129 H         1 UNK         0.0800 
    140 H140        5.2710  -20.3841  -48.5633 H         1 UNK         0.0800 
    141 H141        1.9600  -22.0531  -49.2468 H         1 UNK         0.0800 
    142 H142        1.2089  -20.7940  -48.2966 H         1 UNK         0.0800 
    143 H143        1.5888  -23.6670  -47.3064 H         1 UNK         0.0600 
    144 H144        0.7186  -21.3929  -45.8880 H         1 UNK         0.3000 
    145 H145       -1.5385  -23.0478  -43.6133 H         1 UNK         0.0600 
    146 H146       -0.0670  -21.8402  -42.0212 H         1 UNK         0.0600 
    147 H147        0.7409  -23.2623  -42.6643 H         1 UNK         0.0600 
    148 H148        1.1719  -21.6672  -43.2615 H         1 UNK         0.0600 
    149 H149       -0.8811  -20.3016  -43.8738 H         1 UNK         0.3000 
    150 H150       -3.4403  -19.4533  -46.2559 H         1 UNK         0.0600 
    151 H151       -4.5117  -19.4418  -44.0126 H         1 UNK         0.0600 
    152 H152       -3.9378  -17.8358  -44.4376 H         1 UNK         0.0600 
    153 H153       -3.0383  -18.8181  -43.2837 H         1 UNK         0.0600 
    154 H154       -1.4266  -17.8837  -44.9758 H         1 UNK         0.3000 
    155 H155        1.1447  -18.3183  -47.4106 H         1 UNK         0.0600 
    156 H156       -0.8589  -16.0790  -46.8270 H         1 UNK         0.0600 
    157 H157       -0.0958  -16.4994  -48.3513 H         1 UNK         0.0600 
    158 H158        0.8461  -15.7503  -47.0935 H         1 UNK         0.0600 
    159 H159        0.9792  -16.8400  -44.9768 H         1 UNK         0.3000 
    160 H160        2.2414  -19.4180  -42.8170 H         1 UNK         0.0600 
    161 H161        3.5135  -16.8496  -43.9039 H         1 UNK         0.0600 
    162 H162        4.2196  -18.4550  -44.0327 H         1 UNK         0.0600 
    163 H163        3.9958  -17.7233  -42.4509 H         1 UNK         0.0600 
    164 H164        1.6279  -16.6814  -42.3403 H         1 UNK         0.3000 
    165 H165       -1.8485  -16.9263  -41.8075 H         1 UNK         0.0600 
    166 H166       -1.3008  -16.0534  -39.5491 H         1 UNK         0.0600 
    167 H167       -0.9673  -17.7759  -39.6279 H         1 UNK         0.0600 
    168 H168        0.3615  -16.6247  -39.7005 H         1 UNK         0.0600 
    169 H169        0.0073  -14.8105  -41.3655 H         1 UNK         0.3000 
    170 H170       -0.3254  -12.9170  -43.1272 H         1 UNK         0.0600 
    171 H171        1.8642  -13.9476  -42.3395 H         1 UNK         0.0600 
    172 H172        2.1759  -14.5235  -43.9705 H         1 UNK         0.0600 
    173 H173        2.1480  -12.7977  -43.6177 H         1 UNK         0.0600 
    174 H174       -0.6336  -14.2611  -45.5235 H         1 UNK         0.3000 
    175 H175       -0.1279  -13.5545  -47.6767 H         1 UNK         0.0600 
    176 H176       -1.7360  -10.9917  -47.0968 H         1 UNK         0.0600 
    177 H177       -1.9314  -11.9688  -48.5443 H         1 UNK         0.0600 
    178 H178       -2.3375  -12.6393  -46.9674 H         1 UNK         0.0600 
    179 H179        1.0958  -10.9061  -47.6279 H         1 UNK         0.3000 
    180 H180        2.6063  -11.5141  -50.8231 H         1 UNK         0.0600 
    181 H181        0.9832   -9.1235  -49.7695 H         1 UNK         0.0600 
    182 H182        0.6603   -9.9723  -51.2770 H         1 UNK         0.0600 
    183 H183        2.1583   -9.0797  -51.0823 H         1 UNK         0.0600 
    184 H184        2.9145  -10.9182  -48.0521 H         1 UNK         0.3000 
    185 H185        6.2729  -10.1240  -48.3338 H         1 UNK         0.0600 
    186 H186        5.4227   -7.7759  -48.3006 H         1 UNK         0.0600 
    187 H187        4.1619   -8.2330  -47.1608 H         1 UNK         0.0600 
    188 H188        5.8583   -8.3121  -46.6854 H         1 UNK         0.0600 
    189 H189        4.5042  -10.4276  -46.0788 H         1 UNK         0.3000 
    190 H190       -1.2612  -21.5461  -47.9411 H         1 UNK         0.3000 
    191 H191       -2.2007  -22.9701  -50.2020 H         1 UNK         0.0600 
    192 H192       -2.9202  -20.6610  -49.6296 H         1 UNK         0.0600 
    193 H193       -4.2948  -21.7375  -49.8345 H         1 UNK         0.0600 
    194 H194       -3.7857  -21.2626  -48.2152 H         1 UNK         0.0600 
    195 H195       -2.9851  -23.3711  -46.7148 H         1 UNK         0.3000 
    196 H196       -4.8926  -25.4490  -47.0128 H         1 UNK         0.0600 
    197 H197       -4.4267  -25.8730  -44.6001 H         1 UNK         0.0600 
    198 H198       -4.6186  -24.1559  -44.9217 H         1 UNK         0.0600 
    199 H199       -3.0104  -24.8323  -44.6768 H         1 UNK         0.0600 
    200 H200       -1.3285  -25.6226  -46.5309 H         1 UNK         0.3000 
    201 H201       -1.1211  -28.4536  -46.5306 H         1 UNK         0.0600 
    202 H202        0.6573  -26.9643  -45.6693 H         1 UNK         0.0600 
    203 H203        0.9393  -26.3125  -47.2818 H         1 UNK         0.0600 
    204 H204        1.3057  -27.9984  -46.9336 H         1 UNK         0.0600 
    205 H205       -0.9978  -26.0933  -49.2094 H         1 UNK         0.3000 
    206 H206       -0.4384  -28.0153  -51.2838 H         1 UNK         0.0600 
    207 H207        0.1477  -25.6021  -51.4593 H         1 UNK         0.0600 
    208 H208       -0.9258  -26.0665  -52.7696 H         1 UNK         0.0600 
    209 H209       -1.5587  -25.1631  -51.3993 H         1 UNK         0.0600 
    210 H210       -3.2983  -27.3527  -49.5521 H         1 UNK         0.3000 
    211 H211       -5.4535  -27.7790  -49.7059 H         1 UNK         0.0600 
    212 H212       -4.8511  -29.7115  -52.0072 H         1 UNK         0.0600 
    213 H213       -6.3058  -29.6690  -51.0232 H         1 UNK         0.0600 
    214 H214       -4.7735  -30.1197  -50.2935 H         1 UNK         0.0600 
    215 H215       -4.4803  -25.5024  -50.8565 H         1 UNK         0.3000 
    216 H216       -6.2043  -24.9317  -53.2377 H         1 UNK         0.0600 
    217 H217       -4.4838  -23.2361  -53.7953 H         1 UNK         0.0600 
    218 H218       -3.7238  -24.8133  -53.6563 H         1 UNK         0.0600 
    219 H219       -3.5641  -23.6415  -52.3499 H         1 UNK         0.0600 
    220 H220       -6.5040  -24.7565  -50.0843 H         1 UNK         0.3000 
    221 H221       -6.6458  -22.0903  -49.2760 H         1 UNK         0.0600 
    222 H222       -8.1858  -24.5343  -48.2644 H         1 UNK         0.0600 
    223 H223       -6.6035  -23.9804  -47.7119 H         1 UNK         0.0600 
    224 H224       -8.0301  -23.0113  -47.3959 H         1 UNK         0.0600 
    225 H225       -8.9037  -23.7242  -51.3379 H         1 UNK         0.3000 
    226 H226      -11.1944  -22.0243  -50.9301 H         1 UNK         0.0600 
    227 H227      -11.3730  -24.2543  -52.0053 H         1 UNK         0.0600 
    228 H228      -11.9324  -23.0050  -53.1057 H         1 UNK         0.0600 
    229 H229      -10.3439  -23.7253  -53.3370 H         1 UNK         0.0600 
    230 H230       -8.2297  -21.7638  -52.8572 H         1 UNK         0.3000 
    231 H231       -9.0967  -19.2228  -54.1386 H         1 UNK         0.0600 
    232 H232       -7.9271  -20.8802  -55.5778 H         1 UNK         0.0600 
    233 H233       -6.5511  -20.8999  -54.4759 H         1 UNK         0.0600 
    234 H234       -6.9482  -19.4360  -55.3660 H         1 UNK         0.0600 
    235 H235       -6.7463  -20.6252  -51.8843 H         1 UNK         0.3000 
    236 H236       -5.6418  -19.9284  -50.1309 H         1 UNK         0.0600 
    237 H237       -6.3249  -18.0057  -48.8013 H         1 UNK         0.0600 
    238 H238       -7.1295  -17.2568  -50.1730 H         1 UNK         0.0600 
    239 H239       -7.7737  -18.7343  -49.4619 H         1 UNK         0.0600 
    240 H240       -4.3565  -17.6987  -49.2888 H         1 UNK         0.3000 
    241 H241       -3.0944  -16.2508  -51.3769 H         1 UNK         0.0600 
    242 H242       -2.1365  -13.9458  -48.7957 H         1 UNK         0.3800 
    243 H243       -1.6007  -14.5045  -50.3543 H         1 UNK         0.3800 
    244 H244       -1.7195  -18.4522  -51.2888 H         1 UNK         0.0800 
    245 H245       -1.1817  -17.9793  -49.7048 H         1 UNK         0.0800 
    246 H246        1.6583  -17.4572  -52.5682 H         1 UNK         0.0800 
    247 H247        0.6801  -18.7370  -51.9028 H         1 UNK         0.0800 
@<TRIPOS>BOND
     1    1    2 1    
     2    1  127 1    
     3    1  128 1    
     4    1  129 1    
     5    2    3 2    
     6    2    4 am   BACKBONE|DICT|INTERRES
     7    4    5 1    
     8    4  130 1    
     9    5    6 1    
    10    5   65 1    
    11    5  131 1    
    12    6    7 1    
    13    6  132 1    
    14    6  133 1    
    15    7    8 1    
    16    8    9 1    
    17    8  134 1    
    18    8  135 1    
    19    9   10 ar   
    20    9   14 ar   
    21   10   11 ar   
    22   10  136 1    
    23   11   12 ar   
    24   11  126 1    
    25   12   13 ar   
    26   12  137 1    
    27   13   14 ar   
    28   13   15 1    
    29   14  138 1    
    30   15   16 1    
    31   15  139 1    
    32   15  140 1    
    33   16   17 1    
    34   17   18 1    
    35   17  141 1    
    36   17  142 1    
    37   18   19 1    
    38   18   67 1    
    39   18  143 1    
    40   19   20 am   BACKBONE|DICT|INTERRES
    41   19  144 1    
    42   20   21 2    
    43   20   22 1    
    44   22   23 1    
    45   22   24 1    
    46   22  145 1    
    47   23  146 1    
    48   23  147 1    
    49   23  148 1    
    50   24   25 am   BACKBONE|DICT|INTERRES
    51   24  149 1    
    52   25   26 2    
    53   25   27 1    
    54   27   28 1    
    55   27   29 1    
    56   27  150 1    
    57   28  151 1    
    58   28  152 1    
    59   28  153 1    
    60   29   30 am   BACKBONE|DICT|INTERRES
    61   29  154 1    
    62   30   31 2    
    63   30   32 1    
    64   32   33 1    
    65   32   34 1    
    66   32  155 1    
    67   33  156 1    
    68   33  157 1    
    69   33  158 1    
    70   34   35 am   BACKBONE|DICT|INTERRES
    71   34  159 1    
    72   35   36 2    
    73   35   37 1    
    74   37   38 1    
    75   37   39 1    
    76   37  160 1    
    77   38  161 1    
    78   38  162 1    
    79   38  163 1    
    80   39   40 am   BACKBONE|DICT|INTERRES
    81   39  164 1    
    82   40   41 2    
    83   40   42 1    
    84   42   43 1    
    85   42   44 1    
    86   42  165 1    
    87   43  166 1    
    88   43  167 1    
    89   43  168 1    
    90   44   45 am   BACKBONE|DICT|INTERRES
    91   44  169 1    
    92   45   46 2    
    93   45   47 1    
    94   47   48 1    
    95   47   49 1    
    96   47  170 1    
    97   48  171 1    
    98   48  172 1    
    99   48  173 1    
   100   49   50 am   BACKBONE|DICT|INTERRES
   101   49  174 1    
   102   50   51 2    
   103   50   52 1    
   104   52   53 1    
   105   52   54 1    
   106   52  175 1    
   107   53  176 1    
   108   53  177 1    
   109   53  178 1    
   110   54   55 am   BACKBONE|DICT|INTERRES
   111   54  179 1    
   112   55   56 2    
   113   55   57 1    
   114   57   58 1    
   115   57   59 1    
   116   57  180 1    
   117   58  181 1    
   118   58  182 1    
   119   58  183 1    
   120   59   60 am   BACKBONE|DICT|INTERRES
   121   59  184 1    
   122   60   61 2    
   123   60   62 1    
   124   62   63 1    
   125   62   64 1    
   126   62  185 1    
   127   63  186 1    
   128   63  187 1    
   129   63  188 1    
   130   64   65 am   BACKBONE|DICT|INTERRES
   131   64  189 1    
   132   65   66 2    
   133   67   68 2    
   134   67   69 am   BACKBONE|DICT|INTERRES
   135   69   70 1    
   136   69  190 1    
   137   70   71 1    
   138   70   72 1    
   139   70  191 1    
   140   71  192 1    
   141   71  193 1    
   142   71  194 1    
   143   72   73 2    
   144   72   74 am   BACKBONE|DICT|INTERRES
   145   74   75 1    
   146   74  195 1    
   147   75   76 1    
   148   75   77 1    
   149   75  196 1    
   150   76  197 1    
   151   76  198 1    
   152   76  199 1    
   153   77   78 2    
   154   77   79 am   BACKBONE|DICT|INTERRES
   155   79   80 1    
   156   79  200 1    
   157   80   81 1    
   158   80   82 1    
   159   80  201 1    
   160   81  202 1    
   161   81  203 1    
   162   81  204 1    
   163   82   83 2    
   164   82   84 am   BACKBONE|DICT|INTERRES
   165   84   85 1    
   166   84  205 1    
   167   85   86 1    
   168   85   87 1    
   169   85  206 1    
   170   86  207 1    
   171   86  208 1    
   172   86  209 1    
   173   87   88 2    
   174   87   89 am   BACKBONE|DICT|INTERRES
   175   89   90 1    
   176   89  210 1    
   177   90   91 1    
   178   90   92 1    
   179   90  211 1    
   180   91  212 1    
   181   91  213 1    
   182   91  214 1    
   183   92   93 2    
   184   92   94 am   BACKBONE|DICT|INTERRES
   185   94   95 1    
   186   94  215 1    
   187   95   96 1    
   188   95   97 1    
   189   95  216 1    
   190   96  217 1    
   191   96  218 1    
   192   96  219 1    
   193   97   98 2    
   194   97   99 am   BACKBONE|DICT|INTERRES
   195   99  100 1    
   196   99  220 1    
   197  100  101 1    
   198  100  102 1    
   199  100  221 1    
   200  101  222 1    
   201  101  223 1    
   202  101  224 1    
   203  102  103 2    
   204  102  104 am   BACKBONE|DICT|INTERRES
   205  104  105 1    
   206  104  225 1    
   207  105  106 1    
   208  105  107 1    
   209  105  226 1    
   210  106  227 1    
   211  106  228 1    
   212  106  229 1    
   213  107  108 2    
   214  107  109 am   BACKBONE|DICT|INTERRES
   215  109  110 1    
   216  109  230 1    
   217  110  111 1    
   218  110  112 1    
   219  110  231 1    
   220  111  232 1    
   221  111  233 1    
   222  111  234 1    
   223  112  113 2    
   224  112  114 am   BACKBONE|DICT|INTERRES
   225  114  115 1    
   226  114  235 1    
   227  115  116 1    
   228  115  117 1    
   229  115  236 1    
   230  116  237 1    
   231  116  238 1    
   232  116  239 1    
   233  117  118 2    
   234  117  119 am   BACKBONE|DICT|INTERRES
   235  119  120 1    
   236  119  240 1    
   237  120  121 1    
   238  120  124 1    
   239  120  241 1    
   240  121  122 am   BACKBONE|DICT|INTERRES
   241  121  123 2    
   242  122  242 1    
   243  122  243 1    
   244  124  125 1    
   245  124  244 1    
   246  124  245 1    
   247  125  126 1    
   248  126  246 1    
   249  126  247 1    
@<TRIPOS>SUBSTRUCTURE
     1 UNK         1 GROUP             0       ****    0 ROOT    
