@<TRIPOS>MOLECULE
3R540
247   249    1
SMALL
USER_CHARGES


@<TRIPOS>ATOM
      1 CA         -0.8503  -18.2534  -42.6351 C.3       0 UNK        -0.1800 
      2 C          -1.7304  -18.3663  -43.8701 C.2       0 UNK         0.5000 
      3 O          -2.9267  -18.6263  -43.7452 O.2       0 UNK        -0.5000 
      4 N          -1.1414  -18.1904  -45.0598 N.am      1 UNK        -0.5000 
      5 CA         -1.8413  -18.1781  -46.3480 C.3       1 UNK         0.1400 
      6 C6         -0.8561  -18.2258  -47.5442 C.3       23 UNK        -0.0398 
      7 S7          0.4240  -16.9167  -47.5256 S.3       23 UNK        -0.2404 
      8 C8          1.0052  -16.9197  -49.2527 C.3       23 UNK        -0.0205 
      9 C9          1.4931  -18.2973  -49.6684 C.ar      23 UNK        -0.0193 
     10 C10         0.7453  -19.0685  -50.5582 C.ar      23 UNK        -0.1150 
     11 C11         1.1419  -20.3684  -50.8827 C.ar      23 UNK        -0.0193 
     12 C12         2.2822  -20.9056  -50.2775 C.ar      23 UNK        -0.1150 
     13 C13         3.0383  -20.1459  -49.3772 C.ar      23 UNK        -0.0193 
     14 C14         2.6617  -18.8237  -49.1173 C.ar      23 UNK        -0.1150 
     15 C15         4.2399  -20.7791  -48.6788 C.3       23 UNK        -0.0205 
     16 S16         4.4482  -20.3081  -46.9204 S.3       23 UNK        -0.2404 
     17 C17         2.7631  -20.4561  -46.2263 C.3       23 UNK        -0.0398 
     18 CA          2.1799  -21.8845  -46.2620 C.3       11 UNK         0.1400 
     19 N           3.0042  -22.8319  -45.5122 N.am      11 UNK        -0.5000 
     20 C           3.0200  -24.1559  -45.7045 C.2       10 UNK         0.5000 
     21 O           2.3730  -24.7269  -46.5816 O.2       10 UNK        -0.5000 
     22 CA          3.8942  -24.9826  -44.7414 C.3       10 UNK         0.1400 
     23 CB          5.3100  -25.1492  -45.3136 C.3       10 UNK        -0.1800 
     24 N           3.9852  -24.3897  -43.4048 N.am      10 UNK        -0.5000 
     25 C           2.9696  -24.3244  -42.5321 C.2       9 UNK         0.5000 
     26 O           1.8580  -24.8101  -42.7410 O.2       9 UNK        -0.5000 
     27 CA          3.2280  -23.5455  -41.2256 C.3       9 UNK         0.1400 
     28 CB          3.7879  -24.4819  -40.1446 C.3       9 UNK        -0.1800 
     29 N           4.1251  -22.3927  -41.3793 N.am      9 UNK        -0.5000 
     30 C           3.9015  -21.3497  -42.1902 C.2       8 UNK         0.5000 
     31 O           2.9315  -21.2784  -42.9464 O.2       8 UNK        -0.5000 
     32 CA          4.9727  -20.2408  -42.2019 C.3       8 UNK         0.1400 
     33 CB          6.1915  -20.6984  -43.0197 C.3       8 UNK        -0.1800 
     34 N           4.4867  -18.9795  -42.7691 N.am      8 UNK        -0.5000 
     35 C           3.5234  -18.2120  -42.2431 C.2       7 UNK         0.5000 
     36 O           2.9626  -18.4527  -41.1692 O.2       7 UNK        -0.5000 
     37 CA          3.1253  -16.9619  -43.0495 C.3       7 UNK         0.1400 
     38 CB          2.6635  -17.3263  -44.4780 C.3       7 UNK        -0.1800 
     39 N           2.0661  -16.2658  -42.3226 N.am      7 UNK        -0.5000 
     40 C           1.5836  -15.0508  -42.5943 C.2       6 UNK         0.5000 
     41 O           1.9869  -14.3367  -43.5145 O.2       6 UNK        -0.5000 
     42 CA          0.4432  -14.5450  -41.7036 C.3       6 UNK         0.1400 
     43 CB          0.9079  -13.3977  -40.7894 C.3       6 UNK        -0.1800 
     44 N          -0.6195  -14.0934  -42.5910 N.am      6 UNK        -0.5000 
     45 C          -1.9142  -13.9629  -42.2852 C.2       5 UNK         0.5000 
     46 O          -2.3652  -14.1773  -41.1593 O.2       5 UNK        -0.5000 
     47 CA         -2.8829  -13.5724  -43.4244 C.3       5 UNK         0.1400 
     48 CB         -3.7474  -12.3477  -43.0625 C.3       5 UNK        -0.1800 
     49 N          -2.2445  -13.4206  -44.7393 N.am      5 UNK        -0.5000 
     50 C          -1.4284  -12.4481  -45.1726 C.2       4 UNK         0.5000 
     51 O          -1.1227  -11.4580  -44.5087 O.2       4 UNK        -0.5000 
     52 CA         -0.8183  -12.6265  -46.5731 C.3       4 UNK         0.1400 
     53 CB          0.5165  -13.3794  -46.4665 C.3       4 UNK        -0.1800 
     54 N          -1.7052  -13.3626  -47.4786 N.am      4 UNK        -0.5000 
     55 C          -2.3157  -12.8264  -48.5452 C.2       3 UNK         0.5000 
     56 O          -2.2193  -11.6404  -48.8636 O.2       3 UNK        -0.5000 
     57 CA         -3.1706  -13.7632  -49.4237 C.3       3 UNK         0.1400 
     58 CB         -2.3511  -14.2754  -50.6182 C.3       3 UNK        -0.1800 
     59 N          -3.7081  -14.9128  -48.6993 N.am      3 UNK        -0.5000 
     60 C          -4.7037  -14.8579  -47.8054 C.2       2 UNK         0.5000 
     61 O          -5.3184  -13.8279  -47.5284 O.2       2 UNK        -0.5000 
     62 CA         -5.0666  -16.1747  -47.0875 C.3       2 UNK         0.1400 
     63 CB         -6.2926  -16.8191  -47.7528 C.3       2 UNK        -0.1800 
     64 N          -3.9838  -17.1669  -47.0209 N.am      2 UNK        -0.5000 
     65 C          -2.7929  -16.9668  -46.4394 C.2       1 UNK         0.5000 
     66 O          -2.4264  -15.8731  -46.0034 O.2       1 UNK        -0.5000 
     67 C           0.7370  -21.8793  -45.7245 C.2       11 UNK         0.5000 
     68 O          -0.2063  -21.8333  -46.5110 O.2       11 UNK        -0.5000 
     69 N           0.5870  -21.9644  -44.3949 N.am      12 UNK        -0.5000 
     70 CA         -0.6922  -22.0164  -43.6812 C.3       12 UNK         0.1400 
     71 CB         -0.4232  -21.9235  -42.1720 C.3       12 UNK        -0.1800 
     72 C          -1.5490  -23.2562  -44.0055 C.2       12 UNK         0.5000 
     73 O          -2.7574  -23.2343  -43.7718 O.2       12 UNK        -0.5000 
     74 N          -0.9190  -24.3037  -44.5520 N.am      13 UNK        -0.5000 
     75 CA         -1.5746  -25.5024  -45.0687 C.3       13 UNK         0.1400 
     76 CB         -0.5127  -26.5941  -45.2715 C.3       13 UNK        -0.1800 
     77 C          -2.3624  -25.2617  -46.3752 C.2       13 UNK         0.5000 
     78 O          -3.2125  -26.0869  -46.7135 O.2       13 UNK        -0.5000 
     79 N          -2.0761  -24.1654  -47.0954 N.am      14 UNK        -0.5000 
     80 CA         -2.7788  -23.7817  -48.3189 C.3       14 UNK         0.1400 
     81 CB         -1.9681  -22.7071  -49.0653 C.3       14 UNK        -0.1800 
     82 C          -4.1967  -23.2655  -48.0141 C.2       14 UNK         0.5000 
     83 O          -4.3741  -22.4530  -47.1032 O.2       14 UNK        -0.5000 
     84 N          -5.1706  -23.7155  -48.8141 N.am      15 UNK        -0.5000 
     85 CA         -6.5276  -23.1681  -48.8640 C.3       15 UNK         0.1400 
     86 CB         -7.4205  -24.1562  -49.6321 C.3       15 UNK        -0.1800 
     87 C          -6.5410  -21.7891  -49.5515 C.2       15 UNK         0.5000 
     88 O          -5.5614  -21.4214  -50.2018 O.2       15 UNK        -0.5000 
     89 N          -7.6621  -21.0632  -49.4503 N.am      16 UNK        -0.5000 
     90 CA         -7.8418  -19.7370  -50.0550 C.3       16 UNK         0.1400 
     91 CB         -9.2116  -19.1705  -49.6549 C.3       16 UNK        -0.1800 
     92 C          -7.6684  -19.7193  -51.5878 C.2       16 UNK         0.5000 
     93 O          -7.0840  -18.7775  -52.1233 O.2       16 UNK        -0.5000 
     94 N          -8.1304  -20.7847  -52.2577 N.am      17 UNK        -0.5000 
     95 CA         -7.9598  -20.9915  -53.6971 C.3       17 UNK         0.1400 
     96 CB         -8.8569  -22.1515  -54.1538 C.3       17 UNK        -0.1800 
     97 C          -6.4933  -21.2531  -54.0889 C.2       17 UNK         0.5000 
     98 O          -6.0395  -20.7505  -55.1164 O.2       17 UNK        -0.5000 
     99 N          -5.7699  -22.0067  -53.2492 N.am      18 UNK        -0.5000 
    100 CA        -4.3424  -22.2807  -53.4134 C.3       18 UNK         0.1400 
    101 CB        -3.9299  -23.4600  -52.5205 C.3       18 UNK        -0.1800 
    102 C         -3.4900  -21.0351  -53.1225 C.2       18 UNK         0.5000 
    103 O         -2.5542  -20.7543  -53.8679 O.2       18 UNK        -0.5000 
    104 N         -3.8606  -20.2774  -52.0817 N.am      19 UNK        -0.5000 
    105 CA        -3.2495  -19.0006  -51.7151 C.3       19 UNK         0.1400 
    106 CB        -3.8368  -18.5067  -50.3862 C.3       19 UNK        -0.1800 
    107 C         -3.3796  -17.9300  -52.8130 C.2       19 UNK         0.5000 
    108 O         -2.4409  -17.1619  -53.0162 O.2       19 UNK        -0.5000 
    109 N         -4.5195  -17.9246  -53.5173 N.am      20 UNK        -0.5000 
    110 CA        -4.7631  -17.0850  -54.6893 C.3       20 UNK         0.1400 
    111 CB        -6.2701  -17.0603  -54.9872 C.3       20 UNK        -0.1800 
    112 C         -3.9703  -17.5379  -55.9325 C.2       20 UNK         0.5000 
    113 O         -3.5900  -16.6908  -56.7416 O.2       20 UNK        -0.5000 
    114 N         -3.7451  -18.8526  -56.0746 N.am      21 UNK        -0.5000 
    115 CA        -2.9736  -19.4479  -57.1682 C.3       21 UNK         0.1400 
    116 CB        -3.2941  -20.9469  -57.2752 C.3       21 UNK        -0.1800 
    117 C         -1.4578  -19.2176  -57.0186 C.2       21 UNK         0.5000 
    118 O         -0.7856  -18.9658  -58.0202 O.2       21 UNK        -0.5000 
    119 N         -0.9516  -19.2983  -55.7810 N.am      22 UNK        -0.5000 
    120 CA         0.4276  -18.9539  -55.4001 C.3       22 UNK         0.1400 
    121 C          0.7931  -17.4720  -55.7075 C.2       22 UNK         0.5000 
    122 N          2.0303  -17.2058  -56.1053 N.am      22 UNK        -0.7600 
    123 O         -0.0126  -16.5585  -55.5495 O.2       22 UNK        -0.5000 
    124 C124        0.6951  -19.2673  -53.9057 C.3       23 UNK        -0.0398 
    125 S125        0.9018  -21.0512  -53.5771 S.3       23 UNK        -0.2404 
    126 C126        0.3175  -21.2008  -51.8563 C.3       23 UNK        -0.0205 
    127 H127       -1.2007  -18.9311  -41.8567 H         1 UNK         0.0600 
    128 H128       -0.8906  -17.2385  -42.2434 H         1 UNK         0.0600 
    129 H129        0.1861  -18.5065  -42.8551 H         1 UNK         0.0600 
    130 H130       -0.1694  -17.9237  -45.1043 H         1 UNK         0.3000 
    131 H131       -2.4499  -19.0844  -46.3900 H         1 UNK         0.0600 
    132 H132       -0.3452  -19.1898  -47.5468 H         1 UNK         0.0800 
    133 H133       -1.3994  -18.1825  -48.4891 H         1 UNK         0.0800 
    134 H134        0.2015  -16.5774  -49.9054 H         1 UNK         0.0800 
    135 H135        1.8171  -16.1987  -49.3572 H         1 UNK         0.0800 
    136 H136       -0.1506  -18.6516  -50.9893 H         1 UNK         0.1150 
    137 H137        2.5741  -21.9220  -50.5020 H         1 UNK         0.1150 
    138 H138        3.2361  -18.2225  -48.4267 H         1 UNK         0.1150 
    139 H139        4.1725  -21.8670  -48.7285 H         1 UNK         0.0800 
    140 H140        5.1437  -20.5035  -49.2231 H         1 UNK         0.0800 
    141 H141        2.0988  -19.7564  -46.7326 H         1 UNK         0.0800 
    142 H142        2.8157  -20.1042  -45.1975 H         1 UNK         0.0800 
    143 H143        2.1328  -22.2079  -47.3038 H         1 UNK         0.0600 
    144 H144        3.5241  -22.4462  -44.7365 H         1 UNK         0.3000 
    145 H145        3.4419  -25.9723  -44.6482 H         1 UNK         0.0600 
    146 H146        5.9208  -25.7885  -44.6760 H         1 UNK         0.0600 
    147 H147        5.2796  -25.6111  -46.3014 H         1 UNK         0.0600 
    148 H148        5.8191  -24.1898  -45.4156 H         1 UNK         0.0600 
    149 H149        4.8671  -23.9709  -43.1488 H         1 UNK         0.3000 
    150 H150        2.2664  -23.1650  -40.8771 H         1 UNK         0.0600 
    151 H151        4.7714  -24.8678  -40.4157 H         1 UNK         0.0600 
    152 H152        3.1300  -25.3384  -39.9906 H         1 UNK         0.0600 
    153 H153        3.8797  -23.9692  -39.1869 H         1 UNK         0.0600 
    154 H154        4.9526  -22.3917  -40.8004 H         1 UNK         0.3000 
    155 H155        5.2839  -20.0533  -41.1723 H         1 UNK         0.0600 
    156 H156        5.9265  -20.8978  -44.0591 H         1 UNK         0.0600 
    157 H157        6.6242  -21.6121  -42.6105 H         1 UNK         0.0600 
    158 H158        6.9766  -19.9421  -43.0140 H         1 UNK         0.0600 
    159 H159        4.8809  -18.7179  -43.6603 H         1 UNK         0.3000 
    160 H160        3.9957  -16.3054  -43.1049 H         1 UNK         0.0600 
    161 H161        2.3349  -16.4509  -45.0373 H         1 UNK         0.0600 
    162 H162        1.8404  -18.0390  -44.4655 H         1 UNK         0.0600 
    163 H163        3.4765  -17.7681  -45.0539 H         1 UNK         0.0600 
    164 H164        1.7325  -16.7849  -41.5185 H         1 UNK         0.3000 
    165 H165        0.0743  -15.3663  -41.0861 H         1 UNK         0.0600 
    166 H166        1.7278  -13.7199  -40.1466 H         1 UNK         0.0600 
    167 H167        1.2580  -12.5413  -41.3671 H         1 UNK         0.0600 
    168 H168        0.1014  -13.0559  -40.1406 H         1 UNK         0.0600 
    169 H169       -0.3209  -13.9041  -43.5384 H         1 UNK         0.3000 
    170 H170       -3.5588  -14.4217  -43.5354 H         1 UNK         0.0600 
    171 H171       -4.3563  -12.5494  -42.1805 H         1 UNK         0.0600 
    172 H172       -3.1404  -11.4700  -42.8402 H         1 UNK         0.0600 
    173 H173       -4.4282  -12.0914  -43.8742 H         1 UNK         0.0600 
    174 H174       -2.3658  -14.2334  -45.3414 H         1 UNK         0.3000 
    175 H175       -0.6079  -11.6299  -46.9662 H         1 UNK         0.0600 
    176 H176        0.9694  -13.5255  -47.4472 H         1 UNK         0.0600 
    177 H177        1.2307  -12.8241  -45.8571 H         1 UNK         0.0600 
    178 H178        0.3902  -14.3600  -46.0063 H         1 UNK         0.0600 
    179 H179       -1.8681  -14.3381  -47.2582 H         1 UNK         0.3000 
    180 H180       -4.0080  -13.1790  -49.8114 H         1 UNK         0.0600 
    181 H181       -1.5034  -14.8800  -50.2951 H         1 UNK         0.0600 
    182 H182       -1.9567  -13.4459  -51.2065 H         1 UNK         0.0600 
    183 H183       -2.9621  -14.8832  -51.2860 H         1 UNK         0.0600 
    184 H184       -3.2577  -15.8001  -48.8566 H         1 UNK         0.3000 
    185 H185       -5.3317  -15.9176  -46.0598 H         1 UNK         0.0600 
    186 H186       -6.5926  -17.7332  -47.2401 H         1 UNK         0.0600 
    187 H187       -7.1477  -16.1422  -47.7327 H         1 UNK         0.0600 
    188 H188       -6.0972  -17.0632  -48.7967 H         1 UNK         0.0600 
    189 H189       -4.2171  -18.0934  -47.3468 H         1 UNK         0.3000 
    190 H190        1.4228  -21.9340  -43.8159 H         1 UNK         0.3000 
    191 H191       -1.2716  -21.1453  -43.9857 H         1 UNK         0.0600 
    192 H192        0.0827  -22.8154  -41.8030 H         1 UNK         0.0600 
    193 H193       -1.3560  -21.8225  -41.6160 H         1 UNK         0.0600 
    194 H194        0.1978  -21.0612  -41.9286 H         1 UNK         0.0600 
    195 H195        0.0835  -24.2494  -44.6644 H         1 UNK         0.3000 
    196 H196       -2.2847  -25.8530  -44.3168 H         1 UNK         0.0600 
    197 H197       -0.9714  -27.5312  -45.5894 H         1 UNK         0.0600 
    198 H198        0.0306  -26.7946  -44.3476 H         1 UNK         0.0600 
    199 H199        0.2139  -26.3103  -46.0333 H         1 UNK         0.0600 
    200 H200       -1.4011  -23.4969  -46.7405 H         1 UNK         0.3000 
    201 H201       -2.8462  -24.6616  -48.9624 H         1 UNK         0.0600 
    202 H202       -2.4210  -22.4697  -50.0277 H         1 UNK         0.0600 
    203 H203       -1.9172  -21.7759  -48.5002 H         1 UNK         0.0600 
    204 H204       -0.9475  -23.0388  -49.2572 H         1 UNK         0.0600 
    205 H205       -4.9345  -24.3747  -49.5401 H         1 UNK         0.3000 
    206 H206       -6.9061  -23.0558  -47.8460 H         1 UNK         0.0600 
    207 H207       -7.4171  -25.1384  -49.1588 H         1 UNK         0.0600 
    208 H208       -8.4568  -23.8171  -49.6578 H         1 UNK         0.0600 
    209 H209       -7.0901  -24.2816  -50.6642 H         1 UNK         0.0600 
    210 H210       -8.4375  -21.4242  -48.9134 H         1 UNK         0.3000 
    211 H211       -7.0734  -19.0856  -49.6371 H         1 UNK         0.0600 
    212 H212      -10.0279  -19.8023  -50.0069 H         1 UNK         0.0600 
    213 H213       -9.3604  -18.1753  -50.0763 H         1 UNK         0.0600 
    214 H214       -9.2991  -19.0785  -48.5721 H         1 UNK         0.0600 
    215 H215       -8.5999  -21.5134  -51.7409 H         1 UNK         0.3000 
    216 H216       -8.2845  -20.0852  -54.2129 H         1 UNK         0.0600 
    217 H217       -8.7625  -22.3177  -55.2278 H         1 UNK         0.0600 
    218 H218       -9.9070  -21.9413  -53.9500 H         1 UNK         0.0600 
    219 H219       -8.5974  -23.0850  -53.6529 H         1 UNK         0.0600 
    220 H220       -6.1982  -22.3270  -52.3939 H         1 UNK         0.3000 
    221 H221       -4.1649  -22.5694  -54.4515 H         1 UNK         0.0600 
    222 H222       -4.1312  -23.2609  -51.4696 H         1 UNK         0.0600 
    223 H223       -4.4661  -24.3678  -52.7970 H         1 UNK         0.0600 
    224 H224       -2.8636  -23.6688  -52.6175 H         1 UNK         0.0600 
    225 H225       -4.6075  -20.6158  -51.4771 H         1 UNK         0.3000 
    226 H226       -2.1882  -19.1827  -51.5642 H         1 UNK         0.0600 
    227 H227       -3.3614  -17.5771  -50.0737 H         1 UNK         0.0600 
    228 H228       -4.9060  -18.3176  -50.4723 H         1 UNK         0.0600 
    229 H229       -3.6871  -19.2390  -49.5924 H         1 UNK         0.0600 
    230 H230       -5.2719  -18.5408  -53.2319 H         1 UNK         0.3000 
    231 H231       -4.4494  -16.0666  -54.4500 H         1 UNK         0.0600 
    232 H232       -6.6518  -18.0555  -55.2167 H         1 UNK         0.0600 
    233 H233       -6.4894  -16.4187  -55.8415 H         1 UNK         0.0600 
    234 H234       -6.8333  -16.6747  -54.1371 H         1 UNK         0.0600 
    235 H235       -4.1216  -19.4894  -55.3848 H         1 UNK         0.3000 
    236 H236       -3.2894  -18.9753  -58.1007 H         1 UNK         0.0600 
    237 H237       -2.7808  -21.3931  -58.1277 H         1 UNK         0.0600 
    238 H238       -2.9829  -21.4935  -56.3856 H         1 UNK         0.0600 
    239 H239       -4.3624  -21.1135  -57.4149 H         1 UNK         0.0600 
    240 H240       -1.5669  -19.5882  -55.0264 H         1 UNK         0.3000 
    241 H241        1.0861  -19.5796  -56.0058 H         1 UNK         0.0600 
    242 H242        2.7144  -17.9353  -56.2357 H         1 UNK         0.3800 
    243 H243        2.2874  -16.2494  -56.2948 H         1 UNK         0.3800 
    244 H244       -0.1180  -18.8690  -53.2981 H         1 UNK         0.0800 
    245 H245        1.6067  -18.7793  -53.5550 H         1 UNK         0.0800 
    246 H246        0.3582  -22.2514  -51.5653 H         1 UNK         0.0800 
    247 H247       -0.7331  -20.9211  -51.8020 H         1 UNK         0.0800 
@<TRIPOS>BOND
     1    1    2 1    
     2    1  127 1    
     3    1  128 1    
     4    1  129 1    
     5    2    3 2    
     6    2    4 am   BACKBONE|DICT|INTERRES
     7    4    5 1    
     8    4  130 1    
     9    5    6 1    
    10    5   65 1    
    11    5  131 1    
    12    6    7 1    
    13    6  132 1    
    14    6  133 1    
    15    7    8 1    
    16    8    9 1    
    17    8  134 1    
    18    8  135 1    
    19    9   10 ar   
    20    9   14 ar   
    21   10   11 ar   
    22   10  136 1    
    23   11   12 ar   
    24   11  126 1    
    25   12   13 ar   
    26   12  137 1    
    27   13   14 ar   
    28   13   15 1    
    29   14  138 1    
    30   15   16 1    
    31   15  139 1    
    32   15  140 1    
    33   16   17 1    
    34   17   18 1    
    35   17  141 1    
    36   17  142 1    
    37   18   19 1    
    38   18   67 1    
    39   18  143 1    
    40   19   20 am   BACKBONE|DICT|INTERRES
    41   19  144 1    
    42   20   21 2    
    43   20   22 1    
    44   22   23 1    
    45   22   24 1    
    46   22  145 1    
    47   23  146 1    
    48   23  147 1    
    49   23  148 1    
    50   24   25 am   BACKBONE|DICT|INTERRES
    51   24  149 1    
    52   25   26 2    
    53   25   27 1    
    54   27   28 1    
    55   27   29 1    
    56   27  150 1    
    57   28  151 1    
    58   28  152 1    
    59   28  153 1    
    60   29   30 am   BACKBONE|DICT|INTERRES
    61   29  154 1    
    62   30   31 2    
    63   30   32 1    
    64   32   33 1    
    65   32   34 1    
    66   32  155 1    
    67   33  156 1    
    68   33  157 1    
    69   33  158 1    
    70   34   35 am   BACKBONE|DICT|INTERRES
    71   34  159 1    
    72   35   36 2    
    73   35   37 1    
    74   37   38 1    
    75   37   39 1    
    76   37  160 1    
    77   38  161 1    
    78   38  162 1    
    79   38  163 1    
    80   39   40 am   BACKBONE|DICT|INTERRES
    81   39  164 1    
    82   40   41 2    
    83   40   42 1    
    84   42   43 1    
    85   42   44 1    
    86   42  165 1    
    87   43  166 1    
    88   43  167 1    
    89   43  168 1    
    90   44   45 am   BACKBONE|DICT|INTERRES
    91   44  169 1    
    92   45   46 2    
    93   45   47 1    
    94   47   48 1    
    95   47   49 1    
    96   47  170 1    
    97   48  171 1    
    98   48  172 1    
    99   48  173 1    
   100   49   50 am   BACKBONE|DICT|INTERRES
   101   49  174 1    
   102   50   51 2    
   103   50   52 1    
   104   52   53 1    
   105   52   54 1    
   106   52  175 1    
   107   53  176 1    
   108   53  177 1    
   109   53  178 1    
   110   54   55 am   BACKBONE|DICT|INTERRES
   111   54  179 1    
   112   55   56 2    
   113   55   57 1    
   114   57   58 1    
   115   57   59 1    
   116   57  180 1    
   117   58  181 1    
   118   58  182 1    
   119   58  183 1    
   120   59   60 am   BACKBONE|DICT|INTERRES
   121   59  184 1    
   122   60   61 2    
   123   60   62 1    
   124   62   63 1    
   125   62   64 1    
   126   62  185 1    
   127   63  186 1    
   128   63  187 1    
   129   63  188 1    
   130   64   65 am   BACKBONE|DICT|INTERRES
   131   64  189 1    
   132   65   66 2    
   133   67   68 2    
   134   67   69 am   BACKBONE|DICT|INTERRES
   135   69   70 1    
   136   69  190 1    
   137   70   71 1    
   138   70   72 1    
   139   70  191 1    
   140   71  192 1    
   141   71  193 1    
   142   71  194 1    
   143   72   73 2    
   144   72   74 am   BACKBONE|DICT|INTERRES
   145   74   75 1    
   146   74  195 1    
   147   75   76 1    
   148   75   77 1    
   149   75  196 1    
   150   76  197 1    
   151   76  198 1    
   152   76  199 1    
   153   77   78 2    
   154   77   79 am   BACKBONE|DICT|INTERRES
   155   79   80 1    
   156   79  200 1    
   157   80   81 1    
   158   80   82 1    
   159   80  201 1    
   160   81  202 1    
   161   81  203 1    
   162   81  204 1    
   163   82   83 2    
   164   82   84 am   BACKBONE|DICT|INTERRES
   165   84   85 1    
   166   84  205 1    
   167   85   86 1    
   168   85   87 1    
   169   85  206 1    
   170   86  207 1    
   171   86  208 1    
   172   86  209 1    
   173   87   88 2    
   174   87   89 am   BACKBONE|DICT|INTERRES
   175   89   90 1    
   176   89  210 1    
   177   90   91 1    
   178   90   92 1    
   179   90  211 1    
   180   91  212 1    
   181   91  213 1    
   182   91  214 1    
   183   92   93 2    
   184   92   94 am   BACKBONE|DICT|INTERRES
   185   94   95 1    
   186   94  215 1    
   187   95   96 1    
   188   95   97 1    
   189   95  216 1    
   190   96  217 1    
   191   96  218 1    
   192   96  219 1    
   193   97   98 2    
   194   97   99 am   BACKBONE|DICT|INTERRES
   195   99  100 1    
   196   99  220 1    
   197  100  101 1    
   198  100  102 1    
   199  100  221 1    
   200  101  222 1    
   201  101  223 1    
   202  101  224 1    
   203  102  103 2    
   204  102  104 am   BACKBONE|DICT|INTERRES
   205  104  105 1    
   206  104  225 1    
   207  105  106 1    
   208  105  107 1    
   209  105  226 1    
   210  106  227 1    
   211  106  228 1    
   212  106  229 1    
   213  107  108 2    
   214  107  109 am   BACKBONE|DICT|INTERRES
   215  109  110 1    
   216  109  230 1    
   217  110  111 1    
   218  110  112 1    
   219  110  231 1    
   220  111  232 1    
   221  111  233 1    
   222  111  234 1    
   223  112  113 2    
   224  112  114 am   BACKBONE|DICT|INTERRES
   225  114  115 1    
   226  114  235 1    
   227  115  116 1    
   228  115  117 1    
   229  115  236 1    
   230  116  237 1    
   231  116  238 1    
   232  116  239 1    
   233  117  118 2    
   234  117  119 am   BACKBONE|DICT|INTERRES
   235  119  120 1    
   236  119  240 1    
   237  120  121 1    
   238  120  124 1    
   239  120  241 1    
   240  121  122 am   BACKBONE|DICT|INTERRES
   241  121  123 2    
   242  122  242 1    
   243  122  243 1    
   244  124  125 1    
   245  124  244 1    
   246  124  245 1    
   247  125  126 1    
   248  126  246 1    
   249  126  247 1    
@<TRIPOS>SUBSTRUCTURE
     1 UNK         1 GROUP             0       ****    0 ROOT    
