@<TRIPOS>MOLECULE
3R540
247   249    1
SMALL
USER_CHARGES


@<TRIPOS>ATOM
      1 CA          0.4186   -9.4922  -49.8660 C.3       0 UNK        -0.1800 
      2 C           1.2802  -10.6717  -49.4385 C.2       0 UNK         0.5000 
      3 O           2.4869  -10.5153  -49.2535 O.2       0 UNK        -0.5000 
      4 N           0.6653  -11.8496  -49.2724 N.am      1 UNK        -0.5000 
      5 CA          1.3242  -13.0970  -48.8607 C.3       1 UNK         0.1400 
      6 C6          0.5457  -14.3428  -49.3501 C.3       23 UNK        -0.0398 
      7 S7         -1.1693  -14.4690  -48.7199 S.3       23 UNK        -0.2404 
      8 C8         -1.1528  -16.1017  -47.9101 C.3       23 UNK        -0.0205 
      9 C9         -0.9570  -17.2308  -48.9106 C.ar      23 UNK        -0.0193 
     10 C10        -1.9965  -17.6061  -49.7650 C.ar      23 UNK        -0.1150 
     11 C11        -1.8036  -18.6071  -50.7222 C.ar      23 UNK        -0.0193 
     12 C12        -0.5671  -19.2563  -50.8009 C.ar      23 UNK        -0.1150 
     13 C13         0.4743  -18.9008  -49.9378 C.ar      23 UNK        -0.0193 
     14 C14         0.2724  -17.8875  -48.9971 C.ar      23 UNK        -0.1150 
     15 C15         1.8325  -19.5794  -50.0416 C.3       23 UNK        -0.0205 
     16 S16         1.8480  -21.2479  -49.3149 S.3       23 UNK        -0.2404 
     17 C17         1.4851  -20.9218  -47.5529 C.3       23 UNK        -0.0398 
     18 CA          0.5593  -21.9956  -46.9396 C.3       11 UNK         0.1400 
     19 N           0.5697  -21.9612  -45.4766 N.am      11 UNK        -0.5000 
     20 C           0.0780  -22.9363  -44.7003 C.2       10 UNK         0.5000 
     21 O          -0.4341  -23.9652  -45.1395 O.2       10 UNK        -0.5000 
     22 CA          0.1239  -22.7099  -43.1811 C.3       10 UNK         0.1400 
     23 CB          1.5425  -22.9360  -42.6378 C.3       10 UNK        -0.1800 
     24 N          -0.3543  -21.3811  -42.8017 N.am      10 UNK        -0.5000 
     25 C          -1.6077  -20.9462  -42.9996 C.2       9 UNK         0.5000 
     26 O          -2.5030  -21.6361  -43.4870 O.2       9 UNK        -0.5000 
     27 CA         -1.9067  -19.4859  -42.6195 C.3       9 UNK         0.1400 
     28 CB         -2.1423  -19.3573  -41.1073 C.3       9 UNK        -0.1800 
     29 N          -0.8532  -18.5598  -43.0360 N.am      9 UNK        -0.5000 
     30 C          -0.4993  -18.3346  -44.3100 C.2       8 UNK         0.5000 
     31 O          -1.0294  -18.8755  -45.2789 O.2       8 UNK        -0.5000 
     32 CA          0.6858  -17.3854  -44.5413 C.3       8 UNK         0.1400 
     33 CB          0.2812  -15.9240  -44.3054 C.3       8 UNK        -0.1800 
     34 N           1.8317  -17.7125  -43.6986 N.am      8 UNK        -0.5000 
     35 C           2.4993  -18.8739  -43.7276 C.2       7 UNK         0.5000 
     36 O           2.2494  -19.7954  -44.5053 O.2       7 UNK        -0.5000 
     37 CA          3.6033  -19.0467  -42.6728 C.3       7 UNK         0.1400 
     38 CB          4.8811  -18.3076  -43.0973 C.3       7 UNK        -0.1800 
     39 N           3.1771  -18.5783  -41.3532 N.am      7 UNK        -0.5000 
     40 C           2.2196  -19.1600  -40.6163 C.2       6 UNK         0.5000 
     41 O           1.5976  -20.1623  -40.9660 O.2       6 UNK        -0.5000 
     42 CA          1.8735  -18.4836  -39.2789 C.3       6 UNK         0.1400 
     43 CB          2.8926  -18.8656  -38.1949 C.3       6 UNK        -0.1800 
     44 N           1.8022  -17.0268  -39.3902 N.am      6 UNK        -0.5000 
     45 C           0.8746  -16.3694  -40.0994 C.2       5 UNK         0.5000 
     46 O          -0.0227  -16.9205  -40.7365 O.2       5 UNK        -0.5000 
     47 CA          1.0010  -14.8368  -40.1377 C.3       5 UNK         0.1400 
     48 CB          0.3873  -14.2093  -38.8771 C.3       5 UNK        -0.1800 
     49 N           2.3804  -14.3655  -40.2977 N.am      5 UNK        -0.5000 
     50 C           3.1509  -14.6388  -41.3574 C.2       4 UNK         0.5000 
     51 O           2.8194  -15.4002  -42.2704 O.2       4 UNK        -0.5000 
     52 CA          4.5107  -13.9383  -41.4336 C.3       4 UNK         0.1400 
     53 CB          5.6542  -14.8685  -40.9970 C.3       4 UNK        -0.1800 
     54 N           4.6730  -13.5422  -42.8232 N.am      4 UNK        -0.5000 
     55 C           5.3841  -12.5102  -43.2853 C.2       3 UNK         0.5000 
     56 O           6.1520  -11.8361  -42.5979 O.2       3 UNK        -0.5000 
     57 CA          5.1467  -12.1460  -44.7641 C.3       3 UNK         0.1400 
     58 CB          6.0411  -12.9901  -45.6847 C.3       3 UNK        -0.1800 
     59 N           3.7448  -12.3288  -45.1534 N.am      3 UNK        -0.5000 
     60 C           2.7215  -11.5823  -44.7171 C.2       2 UNK         0.5000 
     61 O           2.8693  -10.5788  -44.0172 O.2       2 UNK        -0.5000 
     62 CA          1.3036  -12.0425  -45.1254 C.3       2 UNK         0.1400 
     63 CB          0.1989  -11.1103  -44.5965 C.3       2 UNK        -0.1800 
     64 N           1.1361  -12.1856  -46.5723 N.am      2 UNK        -0.5000 
     65 C           1.6321  -13.1613  -47.3460 C.2       1 UNK         0.5000 
     66 O           2.3187  -14.0857  -46.9070 O.2       1 UNK        -0.5000 
     67 C          -0.8753  -21.9509  -47.5078 C.2       11 UNK         0.5000 
     68 O          -1.1941  -22.7572  -48.3789 O.2       11 UNK        -0.5000 
     69 N          -1.7392  -21.0831  -46.9612 N.am      12 UNK        -0.5000 
     70 CA         -3.1533  -20.9866  -47.3379 C.3       12 UNK         0.1400 
     71 CB         -3.7787  -19.7587  -46.6599 C.3       12 UNK        -0.1800 
     72 C          -3.9714  -22.2578  -47.0243 C.2       12 UNK         0.5000 
     73 O          -4.9971  -22.4881  -47.6633 O.2       12 UNK        -0.5000 
     74 N          -3.5130  -23.0683  -46.0619 N.am      13 UNK        -0.5000 
     75 CA         -4.0592  -24.3922  -45.7838 C.3       13 UNK         0.1400 
     76 CB         -3.7968  -24.7646  -44.3155 C.3       13 UNK        -0.1800 
     77 C          -3.4747  -25.4430  -46.7448 C.2       13 UNK         0.5000 
     78 O          -4.2343  -26.1384  -47.4196 O.2       13 UNK        -0.5000 
     79 N          -2.1389  -25.5455  -46.7848 N.am      14 UNK        -0.5000 
     80 CA         -1.4001  -26.5896  -47.4977 C.3       14 UNK         0.1400 
     81 CB          0.0669  -26.5703  -47.0409 C.3       14 UNK        -0.1800 
     82 C          -1.4815  -26.4927  -49.0311 C.2       14 UNK         0.5000 
     83 O          -1.6014  -27.5237  -49.6942 O.2       14 UNK        -0.5000 
     84 N          -1.4076  -25.2687  -49.5652 N.am      15 UNK        -0.5000 
     85 CA         -1.4112  -24.9718  -50.9993 C.3       15 UNK         0.1400 
     86 CB         -0.2689  -23.9860  -51.2985 C.3       15 UNK        -0.1800 
     87 C          -2.7697  -24.4202  -51.4752 C.2       15 UNK         0.5000 
     88 O          -2.8661  -23.9882  -52.6245 O.2       15 UNK        -0.5000 
     89 N          -3.7801  -24.4642  -50.5922 N.am      16 UNK        -0.5000 
     90 CA         -5.1532  -23.9702  -50.7405 C.3       16 UNK         0.1400 
     91 CB         -5.8668  -24.6595  -51.9235 C.3       16 UNK        -0.1800 
     92 C          -5.2527  -22.4328  -50.8293 C.2       16 UNK         0.5000 
     93 O          -4.2423  -21.7303  -50.8720 O.2       16 UNK        -0.5000 
     94 N          -6.4936  -21.9376  -50.8240 N.am      17 UNK        -0.5000 
     95 CA         -6.8501  -20.5321  -50.9634 C.3       17 UNK         0.1400 
     96 CB         -7.1953  -19.9438  -49.5871 C.3       17 UNK        -0.1800 
     97 C          -8.0393  -20.4561  -51.9270 C.2       17 UNK         0.5000 
     98 O          -8.9116  -21.3272  -51.8776 O.2       17 UNK        -0.5000 
     99 N          -8.0274  -19.4439  -52.8073 N.am      18 UNK        -0.5000 
    100 CA        -8.9562  -19.2379  -53.9318 C.3       18 UNK         0.1400 
    101 CB       -10.3763  -18.9219  -53.4176 C.3       18 UNK        -0.1800 
    102 C         -8.9443  -20.3837  -54.9740 C.2       18 UNK         0.5000 
    103 O         -9.8919  -20.5241  -55.7493 O.2       18 UNK        -0.5000 
    104 N         -7.8690  -21.1774  -54.9749 N.am      19 UNK        -0.5000 
    105 CA        -7.6209  -22.3430  -55.8089 C.3       19 UNK         0.1400 
    106 CB        -8.4772  -23.5291  -55.3266 C.3       19 UNK        -0.1800 
    107 C         -6.1249  -22.6735  -55.7098 C.2       19 UNK         0.5000 
    108 O         -5.4522  -22.1831  -54.7955 O.2       19 UNK        -0.5000 
    109 N         -5.6408  -23.4939  -56.6531 N.am      20 UNK        -0.5000 
    110 CA        -4.2622  -23.9777  -56.7863 C.3       20 UNK         0.1400 
    111 CB        -3.9672  -25.0563  -55.7246 C.3       20 UNK        -0.1800 
    112 C         -3.2433  -22.8198  -56.8196 C.2       20 UNK         0.5000 
    113 O         -3.2140  -22.0882  -57.8114 O.2       20 UNK        -0.5000 
    114 N         -2.4635  -22.6386  -55.7429 N.am      21 UNK        -0.5000 
    115 CA        -1.4692  -21.5687  -55.5981 C.3       21 UNK         0.1400 
    116 CB        -0.6648  -21.7966  -54.3107 C.3       21 UNK        -0.1800 
    117 C         -2.0618  -20.1453  -55.6156 C.2       21 UNK         0.5000 
    118 O         -1.3491  -19.2032  -55.9646 O.2       21 UNK        -0.5000 
    119 N         -3.3472  -20.0236  -55.2686 N.am      22 UNK        -0.5000 
    120 CA        -4.1360  -18.7858  -55.3240 C.3       22 UNK         0.1400 
    121 C         -5.3306  -18.9024  -56.3168 C.2       22 UNK         0.5000 
    122 N         -5.2806  -19.7817  -57.3118 N.am      22 UNK        -0.7600 
    123 O         -6.3165  -18.1800  -56.2005 O.2       22 UNK        -0.5000 
    124 C124       -4.5594  -18.3292  -53.9036 C.3       23 UNK        -0.0398 
    125 S125       -3.1481  -17.6813  -52.9446 S.3       23 UNK        -0.2404 
    126 C126       -2.9296  -18.9667  -51.6776 C.3       23 UNK        -0.0205 
    127 H127        0.7743   -9.0928  -50.8157 H         1 UNK         0.0600 
    128 H128        0.4712   -8.6991  -49.1202 H         1 UNK         0.0600 
    129 H129       -0.6270   -9.7766  -49.9871 H         1 UNK         0.0600 
    130 H130       -0.3304  -11.9215  -49.4321 H         1 UNK         0.3000 
    131 H131        2.2976  -13.1288  -49.3553 H         1 UNK         0.0600 
    132 H132        0.4939  -14.3315  -50.4395 H         1 UNK         0.0800 
    133 H133        1.1060  -15.2442  -49.1020 H         1 UNK         0.0800 
    134 H134       -2.0917  -16.2499  -47.3748 H         1 UNK         0.0800 
    135 H135       -0.3630  -16.1159  -47.1600 H         1 UNK         0.0800 
    136 H136       -2.9475  -17.0954  -49.7073 H         1 UNK         0.1150 
    137 H137       -0.4110  -20.0323  -51.5371 H         1 UNK         0.1150 
    138 H138        1.0798  -17.6004  -48.3382 H         1 UNK         0.1150 
    139 H139        2.1159  -19.6532  -51.0924 H         1 UNK         0.0800 
    140 H140        2.6041  -18.9748  -49.5622 H         1 UNK         0.0800 
    141 H141        1.0622  -19.9286  -47.4072 H         1 UNK         0.0800 
    142 H142        2.4415  -20.9161  -47.0285 H         1 UNK         0.0800 
    143 H143        0.9733  -22.9676  -47.2184 H         1 UNK         0.0600 
    144 H144        0.9951  -21.1461  -45.0421 H         1 UNK         0.3000 
    145 H145       -0.5359  -23.4462  -42.7173 H         1 UNK         0.0600 
    146 H146        1.5591  -22.8828  -41.5492 H         1 UNK         0.0600 
    147 H147        1.9173  -23.9206  -42.9202 H         1 UNK         0.0600 
    148 H148        2.2445  -22.1942  -43.0194 H         1 UNK         0.0600 
    149 H149        0.3180  -20.7682  -42.3504 H         1 UNK         0.3000 
    150 H150       -2.8254  -19.1933  -43.1319 H         1 UNK         0.0600 
    151 H151       -2.9263  -20.0381  -40.7734 H         1 UNK         0.0600 
    152 H152       -2.4548  -18.3471  -40.8425 H         1 UNK         0.0600 
    153 H153       -1.2405  -19.5880  -40.5388 H         1 UNK         0.0600 
    154 H154       -0.3786  -18.0531  -42.2941 H         1 UNK         0.3000 
    155 H155        0.9979  -17.4910  -45.5823 H         1 UNK         0.0600 
    156 H156        0.0629  -15.7280  -43.2557 H         1 UNK         0.0600 
    157 H157       -0.6057  -15.6541  -44.8790 H         1 UNK         0.0600 
    158 H158        1.0869  -15.2585  -44.6097 H         1 UNK         0.0600 
    159 H159        2.1312  -16.9927  -43.0461 H         1 UNK         0.3000 
    160 H160        3.8331  -20.1116  -42.5967 H         1 UNK         0.0600 
    161 H161        5.6762  -18.4358  -42.3626 H         1 UNK         0.0600 
    162 H162        4.7068  -17.2386  -43.2236 H         1 UNK         0.0600 
    163 H163        5.2523  -18.6911  -44.0484 H         1 UNK         0.0600 
    164 H164        3.6011  -17.7292  -41.0120 H         1 UNK         0.3000 
    165 H165        0.8922  -18.8478  -38.9671 H         1 UNK         0.0600 
    166 H166        2.6081  -18.4565  -37.2253 H         1 UNK         0.0600 
    167 H167        2.9550  -19.9490  -38.0835 H         1 UNK         0.0600 
    168 H168        3.8928  -18.5017  -38.4329 H         1 UNK         0.0600 
    169 H169        2.5085  -16.4925  -38.9062 H         1 UNK         0.3000 
    170 H170        0.4313  -14.4852  -41.0006 H         1 UNK         0.0600 
    171 H171       -0.6457  -14.5336  -38.7431 H         1 UNK         0.0600 
    172 H172        0.9381  -14.4874  -37.9778 H         1 UNK         0.0600 
    173 H173        0.3782  -13.1212  -38.9427 H         1 UNK         0.0600 
    174 H174        2.7259  -13.7365  -39.5871 H         1 UNK         0.3000 
    175 H175        4.4946  -13.0492  -40.7998 H         1 UNK         0.0600 
    176 H176        5.7128  -15.7587  -41.6229 H         1 UNK         0.0600 
    177 H177        6.6168  -14.3601  -41.0519 H         1 UNK         0.0600 
    178 H178        5.5183  -15.1974  -39.9662 H         1 UNK         0.0600 
    179 H179        4.0547  -14.0340  -43.4561 H         1 UNK         0.3000 
    180 H180        5.4080  -11.0943  -44.8990 H         1 UNK         0.0600 
    181 H181        5.8094  -14.0533  -45.6084 H         1 UNK         0.0600 
    182 H182        7.0939  -12.8632  -45.4292 H         1 UNK         0.0600 
    183 H183        5.9217  -12.6952  -46.7274 H         1 UNK         0.0600 
    184 H184        3.5253  -13.1201  -45.7518 H         1 UNK         0.3000 
    185 H185        1.1493  -13.0170  -44.6630 H         1 UNK         0.0600 
    186 H186        0.2494  -11.0179  -43.5107 H         1 UNK         0.0600 
    187 H187        0.2824  -10.1076  -45.0175 H         1 UNK         0.0600 
    188 H188       -0.7915  -11.4954  -44.8400 H         1 UNK         0.0600 
    189 H189        0.6101  -11.4569  -47.0314 H         1 UNK         0.3000 
    190 H190       -1.4146  -20.4239  -46.2571 H         1 UNK         0.3000 
    191 H191       -3.1957  -20.8337  -48.4185 H         1 UNK         0.0600 
    192 H192       -3.7230  -19.8313  -45.5731 H         1 UNK         0.0600 
    193 H193       -4.8297  -19.6528  -46.9303 H         1 UNK         0.0600 
    194 H194       -3.2714  -18.8425  -46.9630 H         1 UNK         0.0600 
    195 H195       -2.6910  -22.7903  -45.5416 H         1 UNK         0.3000 
    196 H196       -5.1419  -24.3727  -45.9263 H         1 UNK         0.0600 
    197 H197       -4.2011  -25.7510  -44.0854 H         1 UNK         0.0600 
    198 H198       -4.2723  -24.0522  -43.6411 H         1 UNK         0.0600 
    199 H199       -2.7331  -24.7826  -44.0790 H         1 UNK         0.0600 
    200 H200       -1.5802  -24.9225  -46.2047 H         1 UNK         0.3000 
    201 H201       -1.8278  -27.5518  -47.2081 H         1 UNK         0.0600 
    202 H202        0.1472  -26.7306  -45.9655 H         1 UNK         0.0600 
    203 H203        0.5466  -25.6186  -47.2734 H         1 UNK         0.0600 
    204 H204        0.6413  -27.3574  -47.5311 H         1 UNK         0.0600 
    205 H205       -1.3321  -24.4536  -48.9566 H         1 UNK         0.3000 
    206 H206       -1.2195  -25.8825  -51.5699 H         1 UNK         0.0600 
    207 H207       -0.0938  -23.9171  -52.3706 H         1 UNK         0.0600 
    208 H208       -0.4930  -22.9819  -50.9362 H         1 UNK         0.0600 
    209 H209        0.6669  -24.3068  -50.8406 H         1 UNK         0.0600 
    210 H210       -3.5549  -24.8229  -49.6753 H         1 UNK         0.3000 
    211 H211       -5.6650  -24.2640  -49.8228 H         1 UNK         0.0600 
    212 H212       -5.5099  -24.2843  -52.8820 H         1 UNK         0.0600 
    213 H213       -6.9425  -24.4850  -51.8922 H         1 UNK         0.0600 
    214 H214       -5.7151  -25.7387  -51.9059 H         1 UNK         0.0600 
    215 H215       -7.2849  -22.5675  -50.8309 H         1 UNK         0.3000 
    216 H216       -6.0171  -19.9733  -51.3903 H         1 UNK         0.0600 
    217 H217       -7.4628  -18.8896  -49.6680 H         1 UNK         0.0600 
    218 H218       -6.3453  -20.0149  -48.9083 H         1 UNK         0.0600 
    219 H219       -8.0354  -20.4646  -49.1258 H         1 UNK         0.0600 
    220 H220       -7.2856  -18.7621  -52.7422 H         1 UNK         0.3000 
    221 H221       -8.5965  -18.3542  -54.4608 H         1 UNK         0.0600 
    222 H222      -10.8383  -19.7880  -52.9431 H         1 UNK         0.0600 
    223 H223      -10.3612  -18.1092  -52.6915 H         1 UNK         0.0600 
    224 H224      -11.0288  -18.6121  -54.2347 H         1 UNK         0.0600 
    225 H225       -7.1085  -20.9815  -54.3371 H         1 UNK         0.3000 
    226 H226       -7.8614  -22.0998  -56.8456 H         1 UNK         0.0600 
    227 H227       -8.2882  -24.4218  -55.9236 H         1 UNK         0.0600 
    228 H228       -8.2636  -23.7775  -54.2859 H         1 UNK         0.0600 
    229 H229       -9.5421  -23.3099  -55.4046 H         1 UNK         0.0600 
    230 H230       -6.2728  -23.8094  -57.3753 H         1 UNK         0.3000 
    231 H231       -4.1954  -24.4599  -57.7627 H         1 UNK         0.0600 
    232 H232       -4.6132  -25.9230  -55.8632 H         1 UNK         0.0600 
    233 H233       -4.1329  -24.6874  -54.7152 H         1 UNK         0.0600 
    234 H234       -2.9371  -25.4091  -55.7890 H         1 UNK         0.0600 
    235 H235       -2.6051  -23.2335  -54.9353 H         1 UNK         0.3000 
    236 H236       -0.7825  -21.6403  -56.4439 H         1 UNK         0.0600 
    237 H237       -0.1263  -22.7424  -54.3549 H         1 UNK         0.0600 
    238 H238        0.0759  -21.0096  -54.1629 H         1 UNK         0.0600 
    239 H239       -1.3096  -21.8099  -53.4309 H         1 UNK         0.0600 
    240 H240       -3.8669  -20.8617  -55.0263 H         1 UNK         0.3000 
    241 H241       -3.5308  -17.9850  -55.7521 H         1 UNK         0.0600 
    242 H242       -4.4734  -20.3781  -57.4450 H         1 UNK         0.3800 
    243 H243       -6.0466  -19.8257  -57.9642 H         1 UNK         0.3800 
    244 H244       -5.2932  -17.5231  -53.9511 H         1 UNK         0.0800 
    245 H245       -5.0364  -19.1509  -53.3701 H         1 UNK         0.0800 
    246 H246       -3.8528  -19.0808  -51.1097 H         1 UNK         0.0800 
    247 H247       -2.7342  -19.9244  -52.1632 H         1 UNK         0.0800 
@<TRIPOS>BOND
     1    1    2 1    
     2    1  127 1    
     3    1  128 1    
     4    1  129 1    
     5    2    3 2    
     6    2    4 am   BACKBONE|DICT|INTERRES
     7    4    5 1    
     8    4  130 1    
     9    5    6 1    
    10    5   65 1    
    11    5  131 1    
    12    6    7 1    
    13    6  132 1    
    14    6  133 1    
    15    7    8 1    
    16    8    9 1    
    17    8  134 1    
    18    8  135 1    
    19    9   10 ar   
    20    9   14 ar   
    21   10   11 ar   
    22   10  136 1    
    23   11   12 ar   
    24   11  126 1    
    25   12   13 ar   
    26   12  137 1    
    27   13   14 ar   
    28   13   15 1    
    29   14  138 1    
    30   15   16 1    
    31   15  139 1    
    32   15  140 1    
    33   16   17 1    
    34   17   18 1    
    35   17  141 1    
    36   17  142 1    
    37   18   19 1    
    38   18   67 1    
    39   18  143 1    
    40   19   20 am   BACKBONE|DICT|INTERRES
    41   19  144 1    
    42   20   21 2    
    43   20   22 1    
    44   22   23 1    
    45   22   24 1    
    46   22  145 1    
    47   23  146 1    
    48   23  147 1    
    49   23  148 1    
    50   24   25 am   BACKBONE|DICT|INTERRES
    51   24  149 1    
    52   25   26 2    
    53   25   27 1    
    54   27   28 1    
    55   27   29 1    
    56   27  150 1    
    57   28  151 1    
    58   28  152 1    
    59   28  153 1    
    60   29   30 am   BACKBONE|DICT|INTERRES
    61   29  154 1    
    62   30   31 2    
    63   30   32 1    
    64   32   33 1    
    65   32   34 1    
    66   32  155 1    
    67   33  156 1    
    68   33  157 1    
    69   33  158 1    
    70   34   35 am   BACKBONE|DICT|INTERRES
    71   34  159 1    
    72   35   36 2    
    73   35   37 1    
    74   37   38 1    
    75   37   39 1    
    76   37  160 1    
    77   38  161 1    
    78   38  162 1    
    79   38  163 1    
    80   39   40 am   BACKBONE|DICT|INTERRES
    81   39  164 1    
    82   40   41 2    
    83   40   42 1    
    84   42   43 1    
    85   42   44 1    
    86   42  165 1    
    87   43  166 1    
    88   43  167 1    
    89   43  168 1    
    90   44   45 am   BACKBONE|DICT|INTERRES
    91   44  169 1    
    92   45   46 2    
    93   45   47 1    
    94   47   48 1    
    95   47   49 1    
    96   47  170 1    
    97   48  171 1    
    98   48  172 1    
    99   48  173 1    
   100   49   50 am   BACKBONE|DICT|INTERRES
   101   49  174 1    
   102   50   51 2    
   103   50   52 1    
   104   52   53 1    
   105   52   54 1    
   106   52  175 1    
   107   53  176 1    
   108   53  177 1    
   109   53  178 1    
   110   54   55 am   BACKBONE|DICT|INTERRES
   111   54  179 1    
   112   55   56 2    
   113   55   57 1    
   114   57   58 1    
   115   57   59 1    
   116   57  180 1    
   117   58  181 1    
   118   58  182 1    
   119   58  183 1    
   120   59   60 am   BACKBONE|DICT|INTERRES
   121   59  184 1    
   122   60   61 2    
   123   60   62 1    
   124   62   63 1    
   125   62   64 1    
   126   62  185 1    
   127   63  186 1    
   128   63  187 1    
   129   63  188 1    
   130   64   65 am   BACKBONE|DICT|INTERRES
   131   64  189 1    
   132   65   66 2    
   133   67   68 2    
   134   67   69 am   BACKBONE|DICT|INTERRES
   135   69   70 1    
   136   69  190 1    
   137   70   71 1    
   138   70   72 1    
   139   70  191 1    
   140   71  192 1    
   141   71  193 1    
   142   71  194 1    
   143   72   73 2    
   144   72   74 am   BACKBONE|DICT|INTERRES
   145   74   75 1    
   146   74  195 1    
   147   75   76 1    
   148   75   77 1    
   149   75  196 1    
   150   76  197 1    
   151   76  198 1    
   152   76  199 1    
   153   77   78 2    
   154   77   79 am   BACKBONE|DICT|INTERRES
   155   79   80 1    
   156   79  200 1    
   157   80   81 1    
   158   80   82 1    
   159   80  201 1    
   160   81  202 1    
   161   81  203 1    
   162   81  204 1    
   163   82   83 2    
   164   82   84 am   BACKBONE|DICT|INTERRES
   165   84   85 1    
   166   84  205 1    
   167   85   86 1    
   168   85   87 1    
   169   85  206 1    
   170   86  207 1    
   171   86  208 1    
   172   86  209 1    
   173   87   88 2    
   174   87   89 am   BACKBONE|DICT|INTERRES
   175   89   90 1    
   176   89  210 1    
   177   90   91 1    
   178   90   92 1    
   179   90  211 1    
   180   91  212 1    
   181   91  213 1    
   182   91  214 1    
   183   92   93 2    
   184   92   94 am   BACKBONE|DICT|INTERRES
   185   94   95 1    
   186   94  215 1    
   187   95   96 1    
   188   95   97 1    
   189   95  216 1    
   190   96  217 1    
   191   96  218 1    
   192   96  219 1    
   193   97   98 2    
   194   97   99 am   BACKBONE|DICT|INTERRES
   195   99  100 1    
   196   99  220 1    
   197  100  101 1    
   198  100  102 1    
   199  100  221 1    
   200  101  222 1    
   201  101  223 1    
   202  101  224 1    
   203  102  103 2    
   204  102  104 am   BACKBONE|DICT|INTERRES
   205  104  105 1    
   206  104  225 1    
   207  105  106 1    
   208  105  107 1    
   209  105  226 1    
   210  106  227 1    
   211  106  228 1    
   212  106  229 1    
   213  107  108 2    
   214  107  109 am   BACKBONE|DICT|INTERRES
   215  109  110 1    
   216  109  230 1    
   217  110  111 1    
   218  110  112 1    
   219  110  231 1    
   220  111  232 1    
   221  111  233 1    
   222  111  234 1    
   223  112  113 2    
   224  112  114 am   BACKBONE|DICT|INTERRES
   225  114  115 1    
   226  114  235 1    
   227  115  116 1    
   228  115  117 1    
   229  115  236 1    
   230  116  237 1    
   231  116  238 1    
   232  116  239 1    
   233  117  118 2    
   234  117  119 am   BACKBONE|DICT|INTERRES
   235  119  120 1    
   236  119  240 1    
   237  120  121 1    
   238  120  124 1    
   239  120  241 1    
   240  121  122 am   BACKBONE|DICT|INTERRES
   241  121  123 2    
   242  122  242 1    
   243  122  243 1    
   244  124  125 1    
   245  124  244 1    
   246  124  245 1    
   247  125  126 1    
   248  126  246 1    
   249  126  247 1    
@<TRIPOS>SUBSTRUCTURE
     1 UNK         1 GROUP             0       ****    0 ROOT    
