@<TRIPOS>MOLECULE
3R540
247   249    1
SMALL
USER_CHARGES


@<TRIPOS>ATOM
      1 CA         -2.9119  -12.5106  -45.8619 C.3       0 UNK        -0.1800 
      2 C          -2.3611  -13.9068  -45.5778 C.2       0 UNK         0.5000 
      3 O          -2.9304  -14.6160  -44.7530 O.2       0 UNK        -0.5000 
      4 N          -1.2742  -14.3495  -46.2285 N.am      1 UNK        -0.5000 
      5 CA         -0.4622  -13.6178  -47.2108 C.3       1 UNK         0.1400 
      6 C6          0.4586  -14.5916  -47.9898 C.3       23 UNK        -0.0398 
      7 S7          1.0894  -13.8999  -49.5557 S.3       23 UNK        -0.2404 
      8 C8         -0.1479  -14.5170  -50.7475 C.3       23 UNK        -0.0205 
      9 C9         -0.1031  -16.0165  -51.0485 C.ar      23 UNK        -0.0193 
     10 C10        -1.2017  -16.5903  -51.6949 C.ar      23 UNK        -0.1150 
     11 C11        -1.2046  -17.9439  -52.0383 C.ar      23 UNK        -0.0193 
     12 C12        -0.0969  -18.7329  -51.7259 C.ar      23 UNK        -0.1150 
     13 C13         1.0078  -18.1837  -51.0710 C.ar      23 UNK        -0.0193 
     14 C14         1.0008  -16.8251  -50.7413 C.ar      23 UNK        -0.1150 
     15 C15         2.2297  -19.0395  -50.7573 C.3       23 UNK        -0.0205 
     16 S16         1.8289  -20.6083  -49.9189 S.3       23 UNK        -0.2404 
     17 C17         1.1992  -20.0311  -48.3072 C.3       23 UNK        -0.0398 
     18 CA         -0.1190  -20.7407  -47.9088 C.3       11 UNK         0.1400 
     19 N          -0.2697  -20.8253  -46.4561 N.am      11 UNK        -0.5000 
     20 C          -1.1428  -21.6213  -45.8243 C.2       10 UNK         0.5000 
     21 O          -1.8772  -22.4253  -46.3963 O.2       10 UNK        -0.5000 
     22 CA         -1.2243  -21.4779  -44.2935 C.3       10 UNK         0.1400 
     23 CB         -0.1979  -22.3893  -43.6037 C.3       10 UNK        -0.1800 
     24 N          -1.0347  -20.0989  -43.8389 N.am      10 UNK        -0.5000 
     25 C          -1.8749  -19.0884  -44.1025 C.2       9 UNK         0.5000 
     26 O          -2.8995  -19.2069  -44.7706 O.2       9 UNK        -0.5000 
     27 CA         -1.4811  -17.7052  -43.5666 C.3       9 UNK         0.1400 
     28 CB         -1.9028  -17.5470  -42.0984 C.3       9 UNK        -0.1800 
     29 N          -0.0465  -17.4591  -43.7121 N.am      9 UNK        -0.5000 
     30 C           0.5371  -17.1806  -44.8853 C.2       8 UNK         0.5000 
     31 O          -0.0867  -17.0513  -45.9399 O.2       8 UNK        -0.5000 
     32 CA          2.0689  -17.0302  -44.8932 C.3       8 UNK         0.1400 
     33 CB          2.4716  -15.6122  -44.4633 C.3       8 UNK        -0.1800 
     34 N           2.7680  -17.9930  -44.0446 N.am      8 UNK        -0.5000 
     35 C           2.7189  -19.3259  -44.1444 C.2       7 UNK         0.5000 
     36 O           2.0192  -19.9155  -44.9665 O.2       7 UNK        -0.5000 
     37 CA          3.5659  -20.1474  -43.1490 C.3       7 UNK         0.1400 
     38 CB          4.9861  -20.3871  -43.6940 C.3       7 UNK        -0.1800 
     39 N           3.5893  -19.6059  -41.7818 N.am      7 UNK        -0.5000 
     40 C           4.1269  -18.4615  -41.3367 C.2       6 UNK         0.5000 
     41 O           4.7839  -17.6842  -42.0322 O.2       6 UNK        -0.5000 
     42 CA          3.7797  -18.0726  -39.8885 C.3       6 UNK         0.1400 
     43 CB          5.0476  -17.7712  -39.0743 C.3       6 UNK        -0.1800 
     44 N           2.8952  -16.9067  -39.8410 N.am      6 UNK        -0.5000 
     45 C           1.7171  -16.7661  -40.4618 C.2       5 UNK         0.5000 
     46 O           1.2079  -17.6434  -41.1593 O.2       5 UNK        -0.5000 
     47 CA          0.9698  -15.4269  -40.3027 C.3       5 UNK         0.1400 
     48 CB          0.0180  -15.4709  -39.0940 C.3       5 UNK        -0.1800 
     49 N           1.8055  -14.2195  -40.2730 N.am      5 UNK        -0.5000 
     50 C           2.7171  -13.8300  -39.3667 C.2       4 UNK         0.5000 
     51 O           3.0636  -14.5106  -38.4008 O.2       4 UNK        -0.5000 
     52 CA          3.3602  -12.4435  -39.5746 C.3       4 UNK         0.1400 
     53 CB          4.7151  -12.5885  -40.2844 C.3       4 UNK        -0.1800 
     54 N           2.5191  -11.5241  -40.3432 N.am      4 UNK        -0.5000 
     55 C           1.3341  -11.0411  -39.9422 C.2       3 UNK         0.5000 
     56 O           0.8659  -11.2291  -38.8188 O.2       3 UNK        -0.5000 
     57 CA          0.5214  -10.2313  -40.9734 C.3       3 UNK         0.1400 
     58 CB          0.5801   -8.7312  -40.6449 C.3       3 UNK        -0.1800 
     59 N           0.9381  -10.4264  -42.3674 N.am      3 UNK        -0.5000 
     60 C           0.8558  -11.5729  -43.0549 C.2       2 UNK         0.5000 
     61 O           0.4718  -12.6439  -42.5763 O.2       2 UNK        -0.5000 
     62 CA          1.3341  -11.5186  -44.5091 C.3       2 UNK         0.1400 
     63 CB          2.8514  -11.7598  -44.5944 C.3       2 UNK        -0.1800 
     64 N           0.6271  -12.5357  -45.2782 N.am      2 UNK        -0.5000 
     65 C           0.3358  -12.4498  -46.5816 C.2       1 UNK         0.5000 
     66 O           0.6424  -11.4811  -47.2773 O.2       1 UNK        -0.5000 
     67 C          -1.3543  -20.0985  -48.5768 C.2       11 UNK         0.5000 
     68 O          -1.7942  -20.5673  -49.6261 O.2       11 UNK        -0.5000 
     69 N          -1.9109  -19.0558  -47.9440 N.am      12 UNK        -0.5000 
     70 CA         -3.1144  -18.3718  -48.4120 C.3       12 UNK         0.1400 
     71 CB         -3.2256  -17.0050  -47.7215 C.3       12 UNK        -0.1800 
     72 C          -4.3930  -19.2065  -48.2054 C.2       12 UNK         0.5000 
     73 O          -5.2297  -19.2561  -49.1089 O.2       12 UNK        -0.5000 
     74 N          -4.5194  -19.8446  -47.0311 N.am      13 UNK        -0.5000 
     75 CA         -5.6591  -20.6597  -46.5998 C.3       13 UNK         0.1400 
     76 CB         -5.3849  -21.2248  -45.1971 C.3       13 UNK        -0.1800 
     77 C          -5.9907  -21.7922  -47.5871 C.2       13 UNK         0.5000 
     78 O          -5.2110  -22.7377  -47.7232 O.2       13 UNK        -0.5000 
     79 N          -7.1212  -21.6390  -48.2934 N.am      14 UNK        -0.5000 
     80 CA         -7.6286  -22.5168  -49.3567 C.3       14 UNK         0.1400 
     81 CB         -8.1084  -23.8566  -48.7594 C.3       14 UNK        -0.1800 
     82 C          -6.6303  -22.7163  -50.5191 C.2       14 UNK         0.5000 
     83 O          -6.6526  -23.7618  -51.1689 O.2       14 UNK        -0.5000 
     84 N          -5.7385  -21.7348  -50.7262 N.am      15 UNK        -0.5000 
     85 CA         -4.5853  -21.7703  -51.6282 C.3       15 UNK         0.1400 
     86 CB         -5.0418  -21.6977  -53.0991 C.3       15 UNK        -0.1800 
     87 C          -3.6478  -22.9640  -51.3472 C.2       15 UNK         0.5000 
     88 O          -3.2398  -23.6587  -52.2801 O.2       15 UNK        -0.5000 
     89 N          -3.3675  -23.2018  -50.0574 N.am      16 UNK        -0.5000 
     90 CA         -2.5747  -24.3068  -49.5121 C.3       16 UNK         0.1400 
     91 CB         -1.1152  -24.2370  -50.0127 C.3       16 UNK        -0.1800 
     92 C          -3.2415  -25.6699  -49.7840 C.2       16 UNK         0.5000 
     93 O          -2.5636  -26.6250  -50.1620 O.2       16 UNK        -0.5000 
     94 N          -4.5745  -25.7149  -49.6335 N.am      17 UNK        -0.5000 
     95 CA         -5.4659  -26.8164  -50.0212 C.3       17 UNK         0.1400 
     96 CB         -5.2401  -28.0535  -49.1276 C.3       17 UNK        -0.1800 
     97 C          -5.3641  -27.1214  -51.5323 C.2       17 UNK         0.5000 
     98 O          -5.1722  -28.2705  -51.9328 O.2       17 UNK        -0.5000 
     99 N          -5.4570  -26.0495  -52.3306 N.am      18 UNK        -0.5000 
    100 CA        -5.3455  -25.9690  -53.7898 C.3       18 UNK         0.1400 
    101 CB        -6.4474  -26.8038  -54.4733 C.3       18 UNK        -0.1800 
    102 C         -3.9456  -26.2741  -54.3673 C.2       18 UNK         0.5000 
    103 O         -3.8020  -26.2786  -55.5907 O.2       18 UNK        -0.5000 
    104 N         -2.9313  -26.4938  -53.5178 N.am      19 UNK        -0.5000 
    105 CA        -1.5624  -26.8036  -53.9371 C.3       19 UNK         0.1400 
    106 CB        -0.7773  -27.3963  -52.7585 C.3       19 UNK        -0.1800 
    107 C         -0.8140  -25.5960  -54.5319 C.2       19 UNK         0.5000 
    108 O          0.0264  -25.7901  -55.4115 O.2       19 UNK        -0.5000 
    109 N         -1.1272  -24.3785  -54.0637 N.am      20 UNK        -0.5000 
    110 CA        -0.5654  -23.1340  -54.5979 C.3       20 UNK         0.1400 
    111 CB        -0.6277  -22.0362  -53.5266 C.3       20 UNK        -0.1800 
    112 C         -1.2859  -22.6752  -55.8795 C.2       20 UNK         0.5000 
    113 O         -0.6923  -21.9507  -56.6785 O.2       20 UNK        -0.5000 
    114 N         -2.5430  -23.1153  -56.0482 N.am      21 UNK        -0.5000 
    115 CA        -3.4226  -22.8944  -57.2018 C.3       21 UNK         0.1400 
    116 CB        -2.8772  -23.6320  -58.4425 C.3       21 UNK        -0.1800 
    117 C         -3.7455  -21.4082  -57.4772 C.2       21 UNK         0.5000 
    118 O         -3.9507  -21.0266  -58.6314 O.2       21 UNK        -0.5000 
    119 N         -3.7947  -20.5978  -56.4118 N.am      22 UNK        -0.5000 
    120 CA        -4.1963  -19.1827  -56.4403 C.3       22 UNK         0.1400 
    121 C         -5.6710  -18.9874  -56.8951 C.2       22 UNK         0.5000 
    122 N         -5.9562  -17.9505  -57.6710 N.am      22 UNK        -0.7600 
    123 O         -6.5640  -19.7408  -56.5133 O.2       22 UNK        -0.5000 
    124 C124       -3.9758  -18.4945  -55.0696 C.3       23 UNK        -0.0398 
    125 S125       -2.2274  -18.4640  -54.5506 S.3       23 UNK        -0.2404 
    126 C126       -2.4054  -18.5508  -52.7424 C.3       23 UNK        -0.0205 
    127 H127       -3.9070  -12.4026  -45.4298 H         1 UNK         0.0600 
    128 H128       -3.0008  -12.3224  -46.9311 H         1 UNK         0.0600 
    129 H129       -2.2747  -11.7461  -45.4182 H         1 UNK         0.0600 
    130 H130       -0.9614  -15.2980  -46.0449 H         1 UNK         0.3000 
    131 H131       -1.1522  -13.1815  -47.9347 H         1 UNK         0.0600 
    132 H132        1.3087  -14.9005  -47.3808 H         1 UNK         0.0800 
    133 H133       -0.0797  -15.5114  -48.2219 H         1 UNK         0.0800 
    134 H134       -0.0072  -13.9810  -51.6870 H         1 UNK         0.0800 
    135 H135       -1.1411  -14.2460  -50.3857 H         1 UNK         0.0800 
    136 H136       -2.0558  -15.9769  -51.9460 H         1 UNK         0.1150 
    137 H137       -0.0978  -19.7812  -51.9827 H         1 UNK         0.1150 
    138 H138        1.8692  -16.4025  -50.2585 H         1 UNK         0.1150 
    139 H139        2.7397  -19.2668  -51.6941 H         1 UNK         0.0800 
    140 H140        2.9448  -18.4886  -50.1443 H         1 UNK         0.0800 
    141 H141        1.0899  -18.9449  -48.2914 H         1 UNK         0.0800 
    142 H142        1.9815  -20.2591  -47.5828 H         1 UNK         0.0800 
    143 H143       -0.0624  -21.7720  -48.2599 H         1 UNK         0.0600 
    144 H144        0.3652  -20.2636  -45.8960 H         1 UNK         0.3000 
    145 H145       -2.2222  -21.7961  -43.9847 H         1 UNK         0.0600 
    146 H146        0.8245  -22.1232  -43.8724 H         1 UNK         0.0600 
    147 H147       -0.2864  -22.3344  -42.5186 H         1 UNK         0.0600 
    148 H148       -0.3499  -23.4309  -43.8895 H         1 UNK         0.0600 
    149 H149       -0.1946  -19.9018  -43.3163 H         1 UNK         0.3000 
    150 H150       -2.0238  -16.9617  -44.1513 H         1 UNK         0.0600 
    151 H151       -2.9755  -17.7078  -41.9838 H         1 UNK         0.0600 
    152 H152       -1.6870  -16.5433  -41.7338 H         1 UNK         0.0600 
    153 H153       -1.3940  -18.2606  -41.4497 H         1 UNK         0.0600 
    154 H154        0.5241  -17.5610  -42.8756 H         1 UNK         0.3000 
    155 H155        2.4096  -17.1900  -45.9182 H         1 UNK         0.0600 
    156 H156        3.5526  -15.4779  -44.5071 H         1 UNK         0.0600 
    157 H157        2.1483  -15.3891  -43.4455 H         1 UNK         0.0600 
    158 H158        2.0297  -14.8665  -45.1208 H         1 UNK         0.0600 
    159 H159        3.3961  -17.6135  -43.3426 H         1 UNK         0.3000 
    160 H160        3.0827  -21.1222  -43.0674 H         1 UNK         0.0600 
    161 H161        5.5694  -21.0089  -43.0149 H         1 UNK         0.0600 
    162 H162        5.5301  -19.4549  -43.8475 H         1 UNK         0.0600 
    163 H163        4.9494  -20.9013  -44.6552 H         1 UNK         0.0600 
    164 H164        3.0223  -20.1248  -41.1256 H         1 UNK         0.3000 
    165 H165        3.2577  -18.9040  -39.4109 H         1 UNK         0.0600 
    166 H166        5.5865  -16.9101  -39.4722 H         1 UNK         0.0600 
    167 H167        4.8061  -17.5610  -38.0322 H         1 UNK         0.0600 
    168 H168        5.7307  -18.6214  -39.0853 H         1 UNK         0.0600 
    169 H169        3.2045  -16.1232  -39.2721 H         1 UNK         0.3000 
    170 H170        0.3534  -15.3170  -41.1963 H         1 UNK         0.0600 
    171 H171        0.5590  -15.5796  -38.1536 H         1 UNK         0.0600 
    172 H172       -0.5819  -14.5628  -39.0333 H         1 UNK         0.0600 
    173 H173       -0.6721  -16.3121  -39.1723 H         1 UNK         0.0600 
    174 H174        1.6067  -13.5716  -41.0271 H         1 UNK         0.3000 
    175 H175        3.5301  -12.0060  -38.5886 H         1 UNK         0.0600 
    176 H176        4.6026  -13.0068  -41.2857 H         1 UNK         0.0600 
    177 H177        5.2181  -11.6257  -40.3763 H         1 UNK         0.0600 
    178 H178        5.3802  -13.2489  -39.7262 H         1 UNK         0.0600 
    179 H179        2.8310  -11.2970  -41.2753 H         1 UNK         0.3000 
    180 H180       -0.5169  -10.5590  -40.8898 H         1 UNK         0.0600 
    181 H181        1.5941   -8.3396  -40.7348 H         1 UNK         0.0600 
    182 H182        0.2437   -8.5396  -39.6250 H         1 UNK         0.0600 
    183 H183       -0.0638   -8.1554  -41.3098 H         1 UNK         0.0600 
    184 H184        1.2880   -9.6043  -42.8388 H         1 UNK         0.3000 
    185 H185        1.0996  -10.5294  -44.9087 H         1 UNK         0.0600 
    186 H186        3.4021  -10.9896  -44.0533 H         1 UNK         0.0600 
    187 H187        3.1313  -12.7236  -44.1682 H         1 UNK         0.0600 
    188 H188        3.1978  -11.7383  -45.6278 H         1 UNK         0.0600 
    189 H189        0.2769  -13.3123  -44.7315 H         1 UNK         0.3000 
    190 H190       -1.5003  -18.7231  -47.0820 H         1 UNK         0.3000 
    191 H191       -3.0089  -18.1927  -49.4844 H         1 UNK         0.0600 
    192 H192       -3.2614  -17.0996  -46.6355 H         1 UNK         0.0600 
    193 H193       -2.3756  -16.3722  -47.9746 H         1 UNK         0.0600 
    194 H194       -4.1266  -16.4776  -48.0367 H         1 UNK         0.0600 
    195 H195       -3.7902  -19.7138  -46.3343 H         1 UNK         0.3000 
    196 H196       -6.5227  -19.9960  -46.5268 H         1 UNK         0.0600 
    197 H197       -5.2821  -20.4264  -44.4623 H         1 UNK         0.0600 
    198 H198       -4.4716  -21.8204  -45.1773 H         1 UNK         0.0600 
    199 H199       -6.2028  -21.8655  -44.8652 H         1 UNK         0.0600 
    200 H200       -7.6665  -20.8029  -48.1343 H         1 UNK         0.3000 
    201 H201       -8.4958  -22.0143  -49.7871 H         1 UNK         0.0600 
    202 H202       -8.5984  -24.4724  -49.5146 H         1 UNK         0.0600 
    203 H203       -8.8308  -23.6940  -47.9597 H         1 UNK         0.0600 
    204 H204       -7.2818  -24.4372  -48.3491 H         1 UNK         0.0600 
    205 H205       -5.7854  -20.9174  -50.1247 H         1 UNK         0.3000 
    206 H206       -4.0106  -20.8729  -51.4049 H         1 UNK         0.0600 
    207 H207       -5.5956  -22.5878  -53.3967 H         1 UNK         0.0600 
    208 H208       -4.1849  -21.6066  -53.7653 H         1 UNK         0.0600 
    209 H209       -5.6858  -20.8357  -53.2701 H         1 UNK         0.0600 
    210 H210       -3.7947  -22.6057  -49.3582 H         1 UNK         0.3000 
    211 H211       -2.5651  -24.1728  -48.4298 H         1 UNK         0.0600 
    212 H212       -0.6955  -23.2423  -49.8743 H         1 UNK         0.0600 
    213 H213       -0.4829  -24.9397  -49.4695 H         1 UNK         0.0600 
    214 H214       -1.0353  -24.4776  -51.0722 H         1 UNK         0.0600 
    215 H215       -5.0327  -24.8650  -49.3336 H         1 UNK         0.3000 
    216 H216       -6.4844  -26.4662  -49.8470 H         1 UNK         0.0600 
    217 H217       -5.9775  -28.8275  -49.3431 H         1 UNK         0.0600 
    218 H218       -4.2538  -28.4928  -49.2790 H         1 UNK         0.0600 
    219 H219       -5.3355  -27.7990  -48.0721 H         1 UNK         0.0600 
    220 H220       -5.6590  -25.1591  -51.8798 H         1 UNK         0.3000 
    221 H221       -5.5361  -24.9234  -54.0328 H         1 UNK         0.0600 
    222 H222       -6.2910  -27.8738  -54.3349 H         1 UNK         0.0600 
    223 H223       -6.4724  -26.6160  -55.5473 H         1 UNK         0.0600 
    224 H224       -7.4326  -26.5536  -54.0798 H         1 UNK         0.0600 
    225 H225       -3.1072  -26.4452  -52.5230 H         1 UNK         0.3000 
    226 H226       -1.6181  -27.5692  -54.7140 H         1 UNK         0.0600 
    227 H227       -1.2986  -28.2489  -52.3228 H         1 UNK         0.0600 
    228 H228        0.2043  -27.7443  -53.0820 H         1 UNK         0.0600 
    229 H229       -0.6169  -26.6614  -51.9703 H         1 UNK         0.0600 
    230 H230       -1.8462  -24.2850  -53.3484 H         1 UNK         0.3000 
    231 H231        0.4856  -23.2967  -54.8460 H         1 UNK         0.0600 
    232 H232       -0.1231  -21.1351  -53.8767 H         1 UNK         0.0600 
    233 H233       -0.1389  -22.3487  -52.6035 H         1 UNK         0.0600 
    234 H234       -1.6536  -21.7595  -53.2880 H         1 UNK         0.0600 
    235 H235       -2.9121  -23.7231  -55.3312 H         1 UNK         0.3000 
    236 H236       -4.3747  -23.3596  -56.9423 H         1 UNK         0.0600 
    237 H237       -2.6849  -24.6821  -58.2210 H         1 UNK         0.0600 
    238 H238       -3.5934  -23.6020  -59.2644 H         1 UNK         0.0600 
    239 H239       -1.9479  -23.1884  -58.8009 H         1 UNK         0.0600 
    240 H240       -3.5923  -20.9867  -55.5051 H         1 UNK         0.3000 
    241 H241       -3.5548  -18.6873  -57.1719 H         1 UNK         0.0600 
    242 H242       -6.9112  -17.8042  -57.9603 H         1 UNK         0.3800 
    243 H243       -5.2414  -17.3153  -57.9918 H         1 UNK         0.3800 
    244 H244       -4.5771  -18.9829  -54.3022 H         1 UNK         0.0800 
    245 H245       -4.3162  -17.4579  -55.1049 H         1 UNK         0.0800 
    246 H246       -3.3144  -18.0368  -52.4257 H         1 UNK         0.0800 
    247 H247       -2.5150  -19.5930  -52.4475 H         1 UNK         0.0800 
@<TRIPOS>BOND
     1    1    2 1    
     2    1  127 1    
     3    1  128 1    
     4    1  129 1    
     5    2    3 2    
     6    2    4 am   BACKBONE|DICT|INTERRES
     7    4    5 1    
     8    4  130 1    
     9    5    6 1    
    10    5   65 1    
    11    5  131 1    
    12    6    7 1    
    13    6  132 1    
    14    6  133 1    
    15    7    8 1    
    16    8    9 1    
    17    8  134 1    
    18    8  135 1    
    19    9   10 ar   
    20    9   14 ar   
    21   10   11 ar   
    22   10  136 1    
    23   11   12 ar   
    24   11  126 1    
    25   12   13 ar   
    26   12  137 1    
    27   13   14 ar   
    28   13   15 1    
    29   14  138 1    
    30   15   16 1    
    31   15  139 1    
    32   15  140 1    
    33   16   17 1    
    34   17   18 1    
    35   17  141 1    
    36   17  142 1    
    37   18   19 1    
    38   18   67 1    
    39   18  143 1    
    40   19   20 am   BACKBONE|DICT|INTERRES
    41   19  144 1    
    42   20   21 2    
    43   20   22 1    
    44   22   23 1    
    45   22   24 1    
    46   22  145 1    
    47   23  146 1    
    48   23  147 1    
    49   23  148 1    
    50   24   25 am   BACKBONE|DICT|INTERRES
    51   24  149 1    
    52   25   26 2    
    53   25   27 1    
    54   27   28 1    
    55   27   29 1    
    56   27  150 1    
    57   28  151 1    
    58   28  152 1    
    59   28  153 1    
    60   29   30 am   BACKBONE|DICT|INTERRES
    61   29  154 1    
    62   30   31 2    
    63   30   32 1    
    64   32   33 1    
    65   32   34 1    
    66   32  155 1    
    67   33  156 1    
    68   33  157 1    
    69   33  158 1    
    70   34   35 am   BACKBONE|DICT|INTERRES
    71   34  159 1    
    72   35   36 2    
    73   35   37 1    
    74   37   38 1    
    75   37   39 1    
    76   37  160 1    
    77   38  161 1    
    78   38  162 1    
    79   38  163 1    
    80   39   40 am   BACKBONE|DICT|INTERRES
    81   39  164 1    
    82   40   41 2    
    83   40   42 1    
    84   42   43 1    
    85   42   44 1    
    86   42  165 1    
    87   43  166 1    
    88   43  167 1    
    89   43  168 1    
    90   44   45 am   BACKBONE|DICT|INTERRES
    91   44  169 1    
    92   45   46 2    
    93   45   47 1    
    94   47   48 1    
    95   47   49 1    
    96   47  170 1    
    97   48  171 1    
    98   48  172 1    
    99   48  173 1    
   100   49   50 am   BACKBONE|DICT|INTERRES
   101   49  174 1    
   102   50   51 2    
   103   50   52 1    
   104   52   53 1    
   105   52   54 1    
   106   52  175 1    
   107   53  176 1    
   108   53  177 1    
   109   53  178 1    
   110   54   55 am   BACKBONE|DICT|INTERRES
   111   54  179 1    
   112   55   56 2    
   113   55   57 1    
   114   57   58 1    
   115   57   59 1    
   116   57  180 1    
   117   58  181 1    
   118   58  182 1    
   119   58  183 1    
   120   59   60 am   BACKBONE|DICT|INTERRES
   121   59  184 1    
   122   60   61 2    
   123   60   62 1    
   124   62   63 1    
   125   62   64 1    
   126   62  185 1    
   127   63  186 1    
   128   63  187 1    
   129   63  188 1    
   130   64   65 am   BACKBONE|DICT|INTERRES
   131   64  189 1    
   132   65   66 2    
   133   67   68 2    
   134   67   69 am   BACKBONE|DICT|INTERRES
   135   69   70 1    
   136   69  190 1    
   137   70   71 1    
   138   70   72 1    
   139   70  191 1    
   140   71  192 1    
   141   71  193 1    
   142   71  194 1    
   143   72   73 2    
   144   72   74 am   BACKBONE|DICT|INTERRES
   145   74   75 1    
   146   74  195 1    
   147   75   76 1    
   148   75   77 1    
   149   75  196 1    
   150   76  197 1    
   151   76  198 1    
   152   76  199 1    
   153   77   78 2    
   154   77   79 am   BACKBONE|DICT|INTERRES
   155   79   80 1    
   156   79  200 1    
   157   80   81 1    
   158   80   82 1    
   159   80  201 1    
   160   81  202 1    
   161   81  203 1    
   162   81  204 1    
   163   82   83 2    
   164   82   84 am   BACKBONE|DICT|INTERRES
   165   84   85 1    
   166   84  205 1    
   167   85   86 1    
   168   85   87 1    
   169   85  206 1    
   170   86  207 1    
   171   86  208 1    
   172   86  209 1    
   173   87   88 2    
   174   87   89 am   BACKBONE|DICT|INTERRES
   175   89   90 1    
   176   89  210 1    
   177   90   91 1    
   178   90   92 1    
   179   90  211 1    
   180   91  212 1    
   181   91  213 1    
   182   91  214 1    
   183   92   93 2    
   184   92   94 am   BACKBONE|DICT|INTERRES
   185   94   95 1    
   186   94  215 1    
   187   95   96 1    
   188   95   97 1    
   189   95  216 1    
   190   96  217 1    
   191   96  218 1    
   192   96  219 1    
   193   97   98 2    
   194   97   99 am   BACKBONE|DICT|INTERRES
   195   99  100 1    
   196   99  220 1    
   197  100  101 1    
   198  100  102 1    
   199  100  221 1    
   200  101  222 1    
   201  101  223 1    
   202  101  224 1    
   203  102  103 2    
   204  102  104 am   BACKBONE|DICT|INTERRES
   205  104  105 1    
   206  104  225 1    
   207  105  106 1    
   208  105  107 1    
   209  105  226 1    
   210  106  227 1    
   211  106  228 1    
   212  106  229 1    
   213  107  108 2    
   214  107  109 am   BACKBONE|DICT|INTERRES
   215  109  110 1    
   216  109  230 1    
   217  110  111 1    
   218  110  112 1    
   219  110  231 1    
   220  111  232 1    
   221  111  233 1    
   222  111  234 1    
   223  112  113 2    
   224  112  114 am   BACKBONE|DICT|INTERRES
   225  114  115 1    
   226  114  235 1    
   227  115  116 1    
   228  115  117 1    
   229  115  236 1    
   230  116  237 1    
   231  116  238 1    
   232  116  239 1    
   233  117  118 2    
   234  117  119 am   BACKBONE|DICT|INTERRES
   235  119  120 1    
   236  119  240 1    
   237  120  121 1    
   238  120  124 1    
   239  120  241 1    
   240  121  122 am   BACKBONE|DICT|INTERRES
   241  121  123 2    
   242  122  242 1    
   243  122  243 1    
   244  124  125 1    
   245  124  244 1    
   246  124  245 1    
   247  125  126 1    
   248  126  246 1    
   249  126  247 1    
@<TRIPOS>SUBSTRUCTURE
     1 UNK         1 GROUP             0       ****    0 ROOT    
