@<TRIPOS>MOLECULE
3R540
247   249    1
SMALL
USER_CHARGES


@<TRIPOS>ATOM
      1 CA          7.5271  -15.9441  -47.9841 C.3       0 UNK        -0.1800 
      2 C           6.3500  -15.0234  -47.6933 C.2       0 UNK         0.5000 
      3 O           6.3975  -13.8499  -48.0600 O.2       0 UNK        -0.5000 
      4 N           5.3147  -15.5634  -47.0322 N.am      1 UNK        -0.5000 
      5 CA          4.0521  -14.9211  -46.6334 C.3       1 UNK         0.1400 
      6 C6          2.9351  -14.9734  -47.7157 C.3       23 UNK        -0.0398 
      7 S7          3.2562  -14.1096  -49.2900 S.3       23 UNK        -0.2404 
      8 C8          1.5520  -13.6898  -49.8088 C.3       23 UNK        -0.0205 
      9 C9          0.6864  -14.8424  -50.3332 C.ar      23 UNK        -0.0193 
     10 C10        -0.6414  -14.5601  -50.6797 C.ar      23 UNK        -0.1150 
     11 C11        -1.4714  -15.5493  -51.2169 C.ar      23 UNK        -0.0193 
     12 C12        -0.9632  -16.8331  -51.4114 C.ar      23 UNK        -0.1150 
     13 C13         0.3384  -17.1517  -51.0243 C.ar      23 UNK        -0.0193 
     14 C14         1.1640  -16.1517  -50.5023 C.ar      23 UNK        -0.1150 
     15 C15         0.8365  -18.5836  -51.1599 C.3       23 UNK        -0.0205 
     16 S16         0.6215  -19.5251  -49.6132 S.3       23 UNK        -0.2404 
     17 C17        -1.1705  -19.3604  -49.3092 C.3       23 UNK        -0.0398 
     18 CA         -1.7882  -20.5755  -48.5868 C.3       11 UNK         0.1400 
     19 N          -1.1666  -20.8386  -47.2910 N.am      11 UNK        -0.5000 
     20 C          -1.1683  -22.0166  -46.6580 C.2       10 UNK         0.5000 
     21 O          -1.6181  -23.0520  -47.1549 O.2       10 UNK        -0.5000 
     22 CA         -0.6091  -22.0111  -45.2192 C.3       10 UNK         0.1400 
     23 CB         -0.0676  -23.3876  -44.7809 C.3       10 UNK        -0.1800 
     24 N           0.3614  -20.9296  -44.9896 N.am      10 UNK        -0.5000 
     25 C           1.6000  -20.8228  -45.4969 C.2       9 UNK         0.5000 
     26 O           2.1517  -21.7006  -46.1577 O.2       9 UNK        -0.5000 
     27 CA          2.3567  -19.5031  -45.2479 C.3       9 UNK         0.1400 
     28 CB          2.3975  -18.6583  -46.5287 C.3       9 UNK        -0.1800 
     29 N           1.7982  -18.6839  -44.1724 N.am      9 UNK        -0.5000 
     30 C           1.9360  -18.9423  -42.8653 C.2       8 UNK         0.5000 
     31 O           2.5385  -19.9171  -42.4155 O.2       8 UNK        -0.5000 
     32 CA          1.2719  -17.9429  -41.9044 C.3       8 UNK         0.1400 
     33 CB          2.1735  -16.7135  -41.7039 C.3       8 UNK        -0.1800 
     34 N          -0.0451  -17.5282  -42.3947 N.am      8 UNK        -0.5000 
     35 C          -1.1518  -18.2792  -42.2889 C.2       7 UNK         0.5000 
     36 O          -1.1843  -19.3633  -41.7072 O.2       7 UNK        -0.5000 
     37 CA         -2.4345  -17.7555  -42.9622 C.3       7 UNK         0.1400 
     38 CB         -3.2875  -16.9563  -41.9676 C.3       7 UNK        -0.1800 
     39 N          -2.1632  -16.9307  -44.1393 N.am      7 UNK        -0.5000 
     40 C          -1.7848  -17.4192  -45.3286 C.2       6 UNK         0.5000 
     41 O          -1.6866  -18.6223  -45.5709 O.2       6 UNK        -0.5000 
     42 CA         -1.4257  -16.4036  -46.4298 C.3       6 UNK         0.1400 
     43 CB         -2.6351  -16.1217  -47.3312 C.3       6 UNK        -0.1800 
     44 N          -0.9147  -15.1372  -45.9097 N.am      6 UNK        -0.5000 
     45 C           0.1886  -15.0105  -45.1643 C.2       5 UNK         0.5000 
     46 O           0.9009  -15.9619  -44.8383 O.2       5 UNK        -0.5000 
     47 CA          0.5704  -13.5981  -44.7023 C.3       5 UNK         0.1400 
     48 CB         -0.2455  -12.4579  -45.3520 C.3       5 UNK        -0.1800 
     49 N           0.5698  -13.4912  -43.2478 N.am      5 UNK        -0.5000 
     50 C          -0.4777  -13.5727  -42.4172 C.2       4 UNK         0.5000 
     51 O          -1.6143  -13.8696  -42.7881 O.2       4 UNK        -0.5000 
     52 CA         -0.2203  -13.2688  -40.9229 C.3       4 UNK         0.1400 
     53 CB         -0.7204  -14.4105  -40.0218 C.3       4 UNK        -0.1800 
     54 N           1.1863  -12.9842  -40.6112 N.am      4 UNK        -0.5000 
     55 C           1.8236  -11.8349  -40.8816 C.2       3 UNK         0.5000 
     56 O           1.2750  -10.8548  -41.3871 O.2       3 UNK        -0.5000 
     57 CA          3.3345  -11.7679  -40.5712 C.3       3 UNK         0.1400 
     58 CB          3.8251  -12.8694  -39.6031 C.3       3 UNK        -0.1800 
     59 N           4.1505  -11.7592  -41.7937 N.am      3 UNK        -0.5000 
     60 C           4.1827  -12.7032  -42.7459 C.2       2 UNK         0.5000 
     61 O           3.4641  -13.7057  -42.7307 O.2       2 UNK        -0.5000 
     62 CA          5.2045  -12.5034  -43.8866 C.3       2 UNK         0.1400 
     63 CB          6.6446  -12.5224  -43.3458 C.3       2 UNK        -0.1800 
     64 N           5.0788  -13.5684  -44.8823 N.am      2 UNK        -0.5000 
     65 C           4.2259  -13.5621  -45.9141 C.2       1 UNK         0.5000 
     66 O           3.5853  -12.5698  -46.2655 O.2       1 UNK        -0.5000 
     67 C          -3.3046  -20.3679  -48.4137 C.2       11 UNK         0.5000 
     68 O          -4.0703  -20.7951  -49.2736 O.2       11 UNK        -0.5000 
     69 N          -3.7235  -19.7703  -47.2862 N.am      12 UNK        -0.5000 
     70 CA         -5.1334  -19.5948  -46.9156 C.3       12 UNK         0.1400 
     71 CB         -5.2386  -18.6131  -45.7396 C.3       12 UNK        -0.1800 
     72 C          -5.8166  -20.9300  -46.5628 C.2       12 UNK         0.5000 
     73 O          -7.0188  -21.0806  -46.7776 O.2       12 UNK        -0.5000 
     74 N          -5.0176  -21.8874  -46.0714 N.am      13 UNK        -0.5000 
     75 CA         -5.3980  -23.2847  -45.8572 C.3       13 UNK         0.1400 
     76 CB         -4.4306  -23.8995  -44.8320 C.3       13 UNK        -0.1800 
     77 C          -5.3970  -24.1095  -47.1628 C.2       13 UNK         0.5000 
     78 O          -5.7816  -25.2780  -47.1347 O.2       13 UNK        -0.5000 
     79 N          -4.9342  -23.5029  -48.2678 N.am      14 UNK        -0.5000 
     80 CA         -4.8011  -24.0273  -49.6307 C.3       14 UNK         0.1400 
     81 CB         -6.1455  -24.5731  -50.1457 C.3       14 UNK        -0.1800 
     82 C          -3.6561  -25.0429  -49.8175 C.2       14 UNK         0.5000 
     83 O          -3.3383  -25.3762  -50.9595 O.2       14 UNK        -0.5000 
     84 N          -3.0341  -25.4935  -48.7207 N.am      15 UNK        -0.5000 
     85 CA         -1.9788  -26.5056  -48.6843 C.3       15 UNK         0.1400 
     86 CB         -1.6682  -26.8503  -47.2195 C.3       15 UNK        -0.1800 
     87 C          -0.7004  -26.0777  -49.4234 C.2       15 UNK         0.5000 
     88 O          -0.1280  -26.8777  -50.1637 O.2       15 UNK        -0.5000 
     89 N          -0.3001  -24.8144  -49.2354 N.am      16 UNK        -0.5000 
     90 CA          0.8592  -24.2083  -49.8956 C.3       16 UNK         0.1400 
     91 CB          1.5365  -23.2446  -48.9123 C.3       16 UNK        -0.1800 
     92 C           0.4895  -23.4896  -51.2090 C.2       16 UNK         0.5000 
     93 O           1.3543  -22.8490  -51.8074 O.2       16 UNK        -0.5000 
     94 N          -0.7761  -23.5927  -51.6341 N.am      17 UNK        -0.5000 
     95 CA         -1.3368  -22.8961  -52.7888 C.3       17 UNK         0.1400 
     96 CB         -2.1112  -21.6634  -52.2993 C.3       17 UNK        -0.1800 
     97 C          -2.1720  -23.8545  -53.6537 C.2       17 UNK         0.5000 
     98 O          -3.2687  -23.5012  -54.0928 O.2       17 UNK        -0.5000 
     99 N          -1.6227  -25.0592  -53.8730 N.am      18 UNK        -0.5000 
    100 CA        -2.0385  -26.0809  -54.8448 C.3       18 UNK         0.1400 
    101 CB        -1.6657  -25.6106  -56.2664 C.3       18 UNK        -0.1800 
    102 C         -3.5138  -26.5306  -54.7531 C.2       18 UNK         0.5000 
    103 O         -4.0943  -26.9185  -55.7684 O.2       18 UNK        -0.5000 
    104 N         -4.1012  -26.4501  -53.5501 N.am      19 UNK        -0.5000 
    105 CA        -5.5138  -26.6961  -53.2336 C.3       19 UNK         0.1400 
    106 CB        -5.9161  -28.1536  -53.5430 C.3       19 UNK        -0.1800 
    107 C         -6.4883  -25.6670  -53.8567 C.2       19 UNK         0.5000 
    108 O         -7.6991  -25.8928  -53.8284 O.2       19 UNK        -0.5000 
    109 N         -5.9618  -24.5533  -54.3852 N.am      20 UNK        -0.5000 
    110 CA        -6.7236  -23.4721  -55.0109 C.3       20 UNK         0.1400 
    111 CB        -6.0145  -23.0565  -56.3095 C.3       20 UNK        -0.1800 
    112 C         -6.8763  -22.2589  -54.0770 C.2       20 UNK         0.5000 
    113 O         -7.8805  -21.5517  -54.1754 O.2       20 UNK        -0.5000 
    114 N         -5.8894  -22.0446  -53.1928 N.am      21 UNK        -0.5000 
    115 CA        -5.7695  -20.9114  -52.2665 C.3       21 UNK         0.1400 
    116 CB        -6.9305  -20.8936  -51.2461 C.3       21 UNK        -0.1800 
    117 C         -5.5685  -19.5645  -52.9975 C.2       21 UNK         0.5000 
    118 O         -5.1249  -19.5481  -54.1482 O.2       21 UNK        -0.5000 
    119 N         -5.8699  -18.4553  -52.3114 N.am      22 UNK        -0.5000 
    120 CA        -5.7828  -17.0836  -52.8462 C.3       22 UNK         0.1400 
    121 C         -6.9507  -16.6846  -53.7990 C.2       22 UNK         0.5000 
    122 N         -7.9656  -17.5154  -54.0058 N.am      22 UNK        -0.7600 
    123 O         -6.9318  -15.5986  -54.3720 O.2       22 UNK        -0.5000 
    124 C124       -5.6031  -16.0322  -51.7180 C.3       23 UNK        -0.0398 
    125 S125       -4.0967  -16.3115  -50.7273 S.3       23 UNK        -0.2404 
    126 C126       -2.9097  -15.2445  -51.6115 C.3       23 UNK        -0.0205 
    127 H127        7.3582  -16.9533  -47.6075 H         1 UNK         0.0600 
    128 H128        7.6963  -16.0072  -49.0590 H         1 UNK         0.0600 
    129 H129        8.4322  -15.5546  -47.5179 H         1 UNK         0.0600 
    130 H130        5.3892  -16.5351  -46.7666 H         1 UNK         0.3000 
    131 H131        3.6818  -15.5645  -45.8332 H         1 UNK         0.0600 
    132 H132        2.0064  -14.5874  -47.2992 H         1 UNK         0.0800 
    133 H133        2.7260  -16.0149  -47.9578 H         1 UNK         0.0800 
    134 H134        1.6265  -12.9421  -50.5996 H         1 UNK         0.0800 
    135 H135        1.0393  -13.2008  -48.9791 H         1 UNK         0.0800 
    136 H136       -1.0253  -13.5583  -50.5456 H         1 UNK         0.1150 
    137 H137       -1.6001  -17.5936  -51.8404 H         1 UNK         0.1150 
    138 H138        2.1772  -16.4110  -50.2358 H         1 UNK         0.1150 
    139 H139        0.3159  -19.0952  -51.9707 H         1 UNK         0.0800 
    140 H140        1.8935  -18.5839  -51.4298 H         1 UNK         0.0800 
    141 H141       -1.6768  -19.2242  -50.2642 H         1 UNK         0.0800 
    142 H142       -1.3310  -18.4427  -48.7437 H         1 UNK         0.0800 
    143 H143       -1.6462  -21.4519  -49.2233 H         1 UNK         0.0600 
    144 H144       -0.8296  -20.0311  -46.7816 H         1 UNK         0.3000 
    145 H145       -1.4587  -21.7807  -44.5750 H         1 UNK         0.0600 
    146 H146        0.3531  -23.3453  -43.7764 H         1 UNK         0.0600 
    147 H147       -0.8641  -24.1322  -44.7679 H         1 UNK         0.0600 
    148 H148        0.7049  -23.7566  -45.4559 H         1 UNK         0.0600 
    149 H149        0.0087  -20.1350  -44.4742 H         1 UNK         0.3000 
    150 H150        3.3832  -19.7659  -44.9837 H         1 UNK         0.0600 
    151 H151        2.7994  -19.2293  -47.3668 H         1 UNK         0.0600 
    152 H152        3.0379  -17.7890  -46.3954 H         1 UNK         0.0600 
    153 H153        1.4050  -18.3076  -46.8133 H         1 UNK         0.0600 
    154 H154        1.3401  -17.8197  -44.4469 H         1 UNK         0.3000 
    155 H155        1.1535  -18.4340  -40.9361 H         1 UNK         0.0600 
    156 H156        2.2989  -16.1454  -42.6252 H         1 UNK         0.0600 
    157 H157        3.1685  -17.0106  -41.3704 H         1 UNK         0.0600 
    158 H158        1.7741  -16.0411  -40.9479 H         1 UNK         0.0600 
    159 H159       -0.0764  -16.6842  -42.9498 H         1 UNK         0.3000 
    160 H160       -3.0130  -18.6272  -43.2731 H         1 UNK         0.0600 
    161 H161       -4.2338  -16.6534  -42.4161 H         1 UNK         0.0600 
    162 H162       -2.7741  -16.0569  -41.6300 H         1 UNK         0.0600 
    163 H163       -3.5219  -17.5525  -41.0847 H         1 UNK         0.0600 
    164 H164       -2.2104  -15.9277  -44.0137 H         1 UNK         0.3000 
    165 H165       -0.6388  -16.8495  -47.0411 H         1 UNK         0.0600 
    166 H166       -3.0437  -17.0412  -47.7501 H         1 UNK         0.0600 
    167 H167       -3.4384  -15.6253  -46.7858 H         1 UNK         0.0600 
    168 H168       -2.3572  -15.4847  -48.1712 H         1 UNK         0.0600 
    169 H169       -1.4535  -14.3095  -46.1200 H         1 UNK         0.3000 
    170 H170        1.6050  -13.4628  -44.9965 H         1 UNK         0.0600 
    171 H171       -0.1621  -12.4855  -46.4393 H         1 UNK         0.0600 
    172 H172       -1.3043  -12.5020  -45.0954 H         1 UNK         0.0600 
    173 H173        0.1290  -11.4859  -45.0304 H         1 UNK         0.0600 
    174 H174        1.4880  -13.3614  -42.8355 H         1 UNK         0.3000 
    175 H175       -0.8043  -12.3788  -40.6796 H         1 UNK         0.0600 
    176 H176       -0.4840  -14.2228  -38.9744 H         1 UNK         0.0600 
    177 H177       -1.8041  -14.5083  -40.0903 H         1 UNK         0.0600 
    178 H178       -0.2906  -15.3721  -40.2981 H         1 UNK         0.0600 
    179 H179        1.7247  -13.7452  -40.2237 H         1 UNK         0.3000 
    180 H180        3.4998  -10.8073  -40.0810 H         1 UNK         0.0600 
    181 H181        3.7457  -13.8691  -40.0316 H         1 UNK         0.0600 
    182 H182        3.2543  -12.8587  -38.6736 H         1 UNK         0.0600 
    183 H183        4.8702  -12.7116  -39.3368 H         1 UNK         0.0600 
    184 H184        4.7475  -10.9514  -41.9032 H         1 UNK         0.3000 
    185 H185        5.0151  -11.5350  -44.3541 H         1 UNK         0.0600 
    186 H186        6.8647  -13.4519  -42.8188 H         1 UNK         0.0600 
    187 H187        7.3688  -12.4171  -44.1539 H         1 UNK         0.0600 
    188 H188        6.8201  -11.7012  -42.6501 H         1 UNK         0.0600 
    189 H189        5.5403  -14.4368  -44.6546 H         1 UNK         0.3000 
    190 H190       -3.0304  -19.4441  -46.6189 H         1 UNK         0.3000 
    191 H191       -5.6616  -19.1655  -47.7699 H         1 UNK         0.0600 
    192 H192       -4.8254  -17.6388  -45.9966 H         1 UNK         0.0600 
    193 H193       -4.7128  -18.9835  -44.8601 H         1 UNK         0.0600 
    194 H194       -6.2798  -18.4553  -45.4555 H         1 UNK         0.0600 
    195 H195       -4.0464  -21.6610  -45.9244 H         1 UNK         0.3000 
    196 H196       -6.4083  -23.3193  -45.4444 H         1 UNK         0.0600 
    197 H197       -4.7152  -24.9245  -44.5909 H         1 UNK         0.0600 
    198 H198       -4.4330  -23.3364  -43.8985 H         1 UNK         0.0600 
    199 H199       -3.4072  -23.9252  -45.2070 H         1 UNK         0.0600 
    200 H200       -4.6468  -22.5370  -48.1777 H         1 UNK         0.3000 
    201 H201       -4.5459  -23.1682  -50.2501 H         1 UNK         0.0600 
    202 H202       -6.9861  -23.9797  -49.7872 H         1 UNK         0.0600 
    203 H203       -6.3135  -25.6047  -49.8340 H         1 UNK         0.0600 
    204 H204       -6.1764  -24.5387  -51.2325 H         1 UNK         0.0600 
    205 H205       -3.3381  -25.1307  -47.8296 H         1 UNK         0.3000 
    206 H206       -2.3621  -27.4026  -49.1751 H         1 UNK         0.0600 
    207 H207       -2.5513  -27.2356  -46.7096 H         1 UNK         0.0600 
    208 H208       -0.8944  -27.6161  -47.1531 H         1 UNK         0.0600 
    209 H209       -1.3164  -25.9779  -46.6667 H         1 UNK         0.0600 
    210 H210       -0.8261  -24.2245  -48.5965 H         1 UNK         0.3000 
    211 H211        1.5853  -24.9835  -50.1486 H         1 UNK         0.0600 
    212 H212        0.8958  -22.3962  -48.6768 H         1 UNK         0.0600 
    213 H213        2.4639  -22.8451  -49.3240 H         1 UNK         0.0600 
    214 H214        1.7871  -23.7460  -47.9775 H         1 UNK         0.0600 
    215 H215       -1.4128  -24.1952  -51.1277 H         1 UNK         0.3000 
    216 H216       -0.5379  -22.5449  -53.4448 H         1 UNK         0.0600 
    217 H217       -2.6395  -21.1640  -53.1125 H         1 UNK         0.0600 
    218 H218       -1.4298  -20.9344  -51.8645 H         1 UNK         0.0600 
    219 H219       -2.8348  -21.9397  -51.5351 H         1 UNK         0.0600 
    220 H220       -0.7522  -25.2540  -53.3986 H         1 UNK         0.3000 
    221 H221       -1.4443  -26.9686  -54.6242 H         1 UNK         0.0600 
    222 H222       -2.2627  -24.7506  -56.5729 H         1 UNK         0.0600 
    223 H223       -0.6149  -25.3271  -56.3259 H         1 UNK         0.0600 
    224 H224       -1.8258  -26.4009  -57.0008 H         1 UNK         0.0600 
    225 H225       -3.5535  -26.0906  -52.7724 H         1 UNK         0.3000 
    226 H226       -5.5938  -26.5754  -52.1543 H         1 UNK         0.0600 
    227 H227       -5.2087  -28.8594  -53.1077 H         1 UNK         0.0600 
    228 H228       -5.9676  -28.3454  -54.6148 H         1 UNK         0.0600 
    229 H229       -6.8977  -28.3832  -53.1270 H         1 UNK         0.0600 
    230 H230       -4.9546  -24.4253  -54.3494 H         1 UNK         0.3000 
    231 H231       -7.7257  -23.8185  -55.2722 H         1 UNK         0.0600 
    232 H232       -5.9317  -23.8969  -56.9989 H         1 UNK         0.0600 
    233 H233       -5.0084  -22.6810  -56.1174 H         1 UNK         0.0600 
    234 H234       -6.5672  -22.2674  -56.8209 H         1 UNK         0.0600 
    235 H235       -5.0691  -22.6332  -53.2694 H         1 UNK         0.3000 
    236 H236       -4.8554  -21.0825  -51.7064 H         1 UNK         0.0600 
    237 H237       -6.7074  -20.2379  -50.4038 H         1 UNK         0.0600 
    238 H238       -7.8649  -20.5539  -51.6935 H         1 UNK         0.0600 
    239 H239       -7.1044  -21.8848  -50.8316 H         1 UNK         0.0600 
    240 H240       -6.2113  -18.5414  -51.3658 H         1 UNK         0.3000 
    241 H241       -4.8863  -17.0352  -53.4672 H         1 UNK         0.0600 
    242 H242       -7.9858  -18.4234  -53.5696 H         1 UNK         0.3800 
    243 H243       -8.7093  -17.2430  -54.6293 H         1 UNK         0.3800 
    244 H244       -5.5640  -15.0208  -52.1267 H         1 UNK         0.0800 
    245 H245       -6.4624  -16.0504  -51.0459 H         1 UNK         0.0800 
    246 H246       -3.1549  -14.1996  -51.4154 H         1 UNK         0.0800 
    247 H247       -3.0130  -15.3948  -52.6870 H         1 UNK         0.0800 
@<TRIPOS>BOND
     1    1    2 1    
     2    1  127 1    
     3    1  128 1    
     4    1  129 1    
     5    2    3 2    
     6    2    4 am   BACKBONE|DICT|INTERRES
     7    4    5 1    
     8    4  130 1    
     9    5    6 1    
    10    5   65 1    
    11    5  131 1    
    12    6    7 1    
    13    6  132 1    
    14    6  133 1    
    15    7    8 1    
    16    8    9 1    
    17    8  134 1    
    18    8  135 1    
    19    9   10 ar   
    20    9   14 ar   
    21   10   11 ar   
    22   10  136 1    
    23   11   12 ar   
    24   11  126 1    
    25   12   13 ar   
    26   12  137 1    
    27   13   14 ar   
    28   13   15 1    
    29   14  138 1    
    30   15   16 1    
    31   15  139 1    
    32   15  140 1    
    33   16   17 1    
    34   17   18 1    
    35   17  141 1    
    36   17  142 1    
    37   18   19 1    
    38   18   67 1    
    39   18  143 1    
    40   19   20 am   BACKBONE|DICT|INTERRES
    41   19  144 1    
    42   20   21 2    
    43   20   22 1    
    44   22   23 1    
    45   22   24 1    
    46   22  145 1    
    47   23  146 1    
    48   23  147 1    
    49   23  148 1    
    50   24   25 am   BACKBONE|DICT|INTERRES
    51   24  149 1    
    52   25   26 2    
    53   25   27 1    
    54   27   28 1    
    55   27   29 1    
    56   27  150 1    
    57   28  151 1    
    58   28  152 1    
    59   28  153 1    
    60   29   30 am   BACKBONE|DICT|INTERRES
    61   29  154 1    
    62   30   31 2    
    63   30   32 1    
    64   32   33 1    
    65   32   34 1    
    66   32  155 1    
    67   33  156 1    
    68   33  157 1    
    69   33  158 1    
    70   34   35 am   BACKBONE|DICT|INTERRES
    71   34  159 1    
    72   35   36 2    
    73   35   37 1    
    74   37   38 1    
    75   37   39 1    
    76   37  160 1    
    77   38  161 1    
    78   38  162 1    
    79   38  163 1    
    80   39   40 am   BACKBONE|DICT|INTERRES
    81   39  164 1    
    82   40   41 2    
    83   40   42 1    
    84   42   43 1    
    85   42   44 1    
    86   42  165 1    
    87   43  166 1    
    88   43  167 1    
    89   43  168 1    
    90   44   45 am   BACKBONE|DICT|INTERRES
    91   44  169 1    
    92   45   46 2    
    93   45   47 1    
    94   47   48 1    
    95   47   49 1    
    96   47  170 1    
    97   48  171 1    
    98   48  172 1    
    99   48  173 1    
   100   49   50 am   BACKBONE|DICT|INTERRES
   101   49  174 1    
   102   50   51 2    
   103   50   52 1    
   104   52   53 1    
   105   52   54 1    
   106   52  175 1    
   107   53  176 1    
   108   53  177 1    
   109   53  178 1    
   110   54   55 am   BACKBONE|DICT|INTERRES
   111   54  179 1    
   112   55   56 2    
   113   55   57 1    
   114   57   58 1    
   115   57   59 1    
   116   57  180 1    
   117   58  181 1    
   118   58  182 1    
   119   58  183 1    
   120   59   60 am   BACKBONE|DICT|INTERRES
   121   59  184 1    
   122   60   61 2    
   123   60   62 1    
   124   62   63 1    
   125   62   64 1    
   126   62  185 1    
   127   63  186 1    
   128   63  187 1    
   129   63  188 1    
   130   64   65 am   BACKBONE|DICT|INTERRES
   131   64  189 1    
   132   65   66 2    
   133   67   68 2    
   134   67   69 am   BACKBONE|DICT|INTERRES
   135   69   70 1    
   136   69  190 1    
   137   70   71 1    
   138   70   72 1    
   139   70  191 1    
   140   71  192 1    
   141   71  193 1    
   142   71  194 1    
   143   72   73 2    
   144   72   74 am   BACKBONE|DICT|INTERRES
   145   74   75 1    
   146   74  195 1    
   147   75   76 1    
   148   75   77 1    
   149   75  196 1    
   150   76  197 1    
   151   76  198 1    
   152   76  199 1    
   153   77   78 2    
   154   77   79 am   BACKBONE|DICT|INTERRES
   155   79   80 1    
   156   79  200 1    
   157   80   81 1    
   158   80   82 1    
   159   80  201 1    
   160   81  202 1    
   161   81  203 1    
   162   81  204 1    
   163   82   83 2    
   164   82   84 am   BACKBONE|DICT|INTERRES
   165   84   85 1    
   166   84  205 1    
   167   85   86 1    
   168   85   87 1    
   169   85  206 1    
   170   86  207 1    
   171   86  208 1    
   172   86  209 1    
   173   87   88 2    
   174   87   89 am   BACKBONE|DICT|INTERRES
   175   89   90 1    
   176   89  210 1    
   177   90   91 1    
   178   90   92 1    
   179   90  211 1    
   180   91  212 1    
   181   91  213 1    
   182   91  214 1    
   183   92   93 2    
   184   92   94 am   BACKBONE|DICT|INTERRES
   185   94   95 1    
   186   94  215 1    
   187   95   96 1    
   188   95   97 1    
   189   95  216 1    
   190   96  217 1    
   191   96  218 1    
   192   96  219 1    
   193   97   98 2    
   194   97   99 am   BACKBONE|DICT|INTERRES
   195   99  100 1    
   196   99  220 1    
   197  100  101 1    
   198  100  102 1    
   199  100  221 1    
   200  101  222 1    
   201  101  223 1    
   202  101  224 1    
   203  102  103 2    
   204  102  104 am   BACKBONE|DICT|INTERRES
   205  104  105 1    
   206  104  225 1    
   207  105  106 1    
   208  105  107 1    
   209  105  226 1    
   210  106  227 1    
   211  106  228 1    
   212  106  229 1    
   213  107  108 2    
   214  107  109 am   BACKBONE|DICT|INTERRES
   215  109  110 1    
   216  109  230 1    
   217  110  111 1    
   218  110  112 1    
   219  110  231 1    
   220  111  232 1    
   221  111  233 1    
   222  111  234 1    
   223  112  113 2    
   224  112  114 am   BACKBONE|DICT|INTERRES
   225  114  115 1    
   226  114  235 1    
   227  115  116 1    
   228  115  117 1    
   229  115  236 1    
   230  116  237 1    
   231  116  238 1    
   232  116  239 1    
   233  117  118 2    
   234  117  119 am   BACKBONE|DICT|INTERRES
   235  119  120 1    
   236  119  240 1    
   237  120  121 1    
   238  120  124 1    
   239  120  241 1    
   240  121  122 am   BACKBONE|DICT|INTERRES
   241  121  123 2    
   242  122  242 1    
   243  122  243 1    
   244  124  125 1    
   245  124  244 1    
   246  124  245 1    
   247  125  126 1    
   248  126  246 1    
   249  126  247 1    
@<TRIPOS>SUBSTRUCTURE
     1 UNK         1 GROUP             0       ****    0 ROOT    
