@<TRIPOS>MOLECULE
3R540
247   249    1
SMALL
USER_CHARGES


@<TRIPOS>ATOM
      1 CA          2.8021  -10.1614  -50.4354 C.3       0 UNK        -0.1800 
      2 C           3.1704  -11.4955  -49.8021 C.2       0 UNK         0.5000 
      3 O           4.1301  -11.5646  -49.0343 O.2       0 UNK        -0.5000 
      4 N           2.4113  -12.5524  -50.1202 N.am      1 UNK        -0.5000 
      5 CA          2.6090  -13.9189  -49.6143 C.3       1 UNK         0.1400 
      6 C6          1.7675  -14.9587  -50.3943 C.3       23 UNK        -0.0398 
      7 S7          2.0654  -14.9179  -52.1971 S.3       23 UNK        -0.2404 
      8 C8          3.3545  -16.1862  -52.4132 C.3       23 UNK        -0.0205 
      9 C9          2.8356  -17.5868  -52.1267 C.ar      23 UNK        -0.0193 
     10 C10         2.0076  -18.2363  -53.0463 C.ar      23 UNK        -0.1150 
     11 C11         1.5128  -19.5166  -52.7774 C.ar      23 UNK        -0.0193 
     12 C12         1.8555  -20.1479  -51.5771 C.ar      23 UNK        -0.1150 
     13 C13         2.6946  -19.5117  -50.6559 C.ar      23 UNK        -0.0193 
     14 C14         3.1878  -18.2365  -50.9418 C.ar      23 UNK        -0.1150 
     15 C15         3.0872  -20.2015  -49.3578 C.3       23 UNK        -0.0205 
     16 S16         2.4876  -19.3114  -47.8836 S.3       23 UNK        -0.2404 
     17 C17         0.6829  -19.5369  -48.0202 C.3       23 UNK        -0.0398 
     18 CA          0.2292  -20.9030  -47.4595 C.3       11 UNK         0.1400 
     19 N           0.4202  -21.0318  -46.0135 N.am      11 UNK        -0.5000 
     20 C           0.3436  -22.1934  -45.3501 C.2       10 UNK         0.5000 
     21 O           0.1298  -23.2768  -45.8948 O.2       10 UNK        -0.5000 
     22 CA          0.4811  -22.1339  -43.8192 C.3       10 UNK         0.1400 
     23 CB          1.9534  -21.9924  -43.4053 C.3       10 UNK        -0.1800 
     24 N          -0.3119  -21.0576  -43.2238 N.am      10 UNK        -0.5000 
     25 C          -1.6497  -20.9850  -43.2788 C.2       9 UNK         0.5000 
     26 O          -2.3587  -21.8375  -43.8140 O.2       9 UNK        -0.5000 
     27 CA         -2.3074  -19.7336  -42.6696 C.3       9 UNK         0.1400 
     28 CB         -2.3903  -19.8491  -41.1404 C.3       9 UNK        -0.1800 
     29 N          -1.6202  -18.4946  -43.0338 N.am      9 UNK        -0.5000 
     30 C          -1.4977  -18.0315  -44.2866 C.2       8 UNK         0.5000 
     31 O          -1.9777  -18.5853  -45.2747 O.2       8 UNK        -0.5000 
     32 CA         -0.6447  -16.7652  -44.4749 C.3       8 UNK         0.1400 
     33 CB         -1.4218  -15.5140  -44.0390 C.3       8 UNK        -0.1800 
     34 N           0.6218  -16.8351  -43.7477 N.am      8 UNK        -0.5000 
     35 C           1.5603  -17.7747  -43.9328 C.2       7 UNK         0.5000 
     36 O           1.4749  -18.6745  -44.7655 O.2       7 UNK        -0.5000 
     37 CA          2.7647  -17.7423  -42.9789 C.3       7 UNK         0.1400 
     38 CB          3.7763  -16.6646  -43.4002 C.3       7 UNK        -0.1800 
     39 N           2.3481  -17.5283  -41.5924 N.am      7 UNK        -0.5000 
     40 C           1.6460  -18.4142  -40.8700 C.2       6 UNK         0.5000 
     41 O           1.3094  -19.5230  -41.2841 O.2       6 UNK        -0.5000 
     42 CA          1.2131  -17.9689  -39.4618 C.3       6 UNK         0.1400 
     43 CB          2.3488  -18.1861  -38.4509 C.3       6 UNK        -0.1800 
     44 N           0.7904  -16.5687  -39.4247 N.am      6 UNK        -0.5000 
     45 C          -0.3070  -16.0923  -40.0299 C.2       5 UNK         0.5000 
     46 O          -1.1041  -16.7929  -40.6538 O.2       5 UNK        -0.5000 
     47 CA         -0.5120  -14.5661  -39.9731 C.3       5 UNK         0.1400 
     48 CB         -1.2094  -14.1601  -38.6663 C.3       5 UNK        -0.1800 
     49 N           0.7411  -13.8152  -40.1145 N.am      5 UNK        -0.5000 
     50 C           1.5157  -13.8549  -41.2054 C.2       4 UNK         0.5000 
     51 O           1.2470  -14.5274  -42.2059 O.2       4 UNK        -0.5000 
     52 CA          2.8240  -13.0537  -41.1663 C.3       4 UNK         0.1400 
     53 CB          3.8829  -13.7644  -40.3044 C.3       4 UNK        -0.1800 
     54 N           3.2928  -12.9468  -42.5391 N.am      4 UNK        -0.5000 
     55 C           4.1333  -12.0448  -43.0504 C.2       3 UNK         0.5000 
     56 O           4.7105  -11.1857  -42.3829 O.2       3 UNK        -0.5000 
     57 CA          4.3535  -12.1116  -44.5765 C.3       3 UNK         0.1400 
     58 CB          5.6472  -12.8747  -44.8987 C.3       3 UNK        -0.1800 
     59 N           3.2435  -12.7433  -45.2994 N.am      3 UNK        -0.5000 
     60 C           2.0119  -12.2321  -45.4238 C.2       2 UNK         0.5000 
     61 O           1.6818  -11.1355  -44.9691 O.2       2 UNK        -0.5000 
     62 CA          0.9965  -13.0906  -46.2051 C.3       2 UNK         0.1400 
     63 CB         -0.4350  -12.5286  -46.1333 C.3       2 UNK        -0.1800 
     64 N           1.3792  -13.2091  -47.6100 N.am      2 UNK        -0.5000 
     65 C           2.3181  -14.0293  -48.1014 C.2       1 UNK         0.5000 
     66 O           2.9528  -14.8266  -47.4093 O.2       1 UNK        -0.5000 
     67 C          -1.2143  -21.2277  -47.8825 C.2       11 UNK         0.5000 
     68 O          -1.3909  -21.9086  -48.8898 O.2       11 UNK        -0.5000 
     69 N          -2.2155  -20.7951  -47.1007 N.am      12 UNK        -0.5000 
     70 CA         -3.6239  -21.1346  -47.3169 C.3       12 UNK         0.1400 
     71 CB         -4.5188  -20.3395  -46.3562 C.3       12 UNK        -0.1800 
     72 C          -3.8936  -22.6442  -47.1913 C.2       12 UNK         0.5000 
     73 O          -4.6161  -23.1959  -48.0218 O.2       12 UNK        -0.5000 
     74 N          -3.2807  -23.2910  -46.1898 N.am      13 UNK        -0.5000 
     75 CA         -3.3265  -24.7393  -45.9880 C.3       13 UNK         0.1400 
     76 CB         -2.6989  -25.0988  -44.6330 C.3       13 UNK        -0.1800 
     77 C          -2.6539  -25.5137  -47.1361 C.2       13 UNK         0.5000 
     78 O          -3.2478  -26.4612  -47.6522 O.2       13 UNK        -0.5000 
     79 N          -1.4605  -25.0662  -47.5558 N.am      14 UNK        -0.5000 
     80 CA         -0.7188  -25.6061  -48.7017 C.3       14 UNK         0.1400 
     81 CB          0.6634  -24.9404  -48.7778 C.3       14 UNK        -0.1800 
     82 C          -1.4719  -25.4469  -50.0378 C.2       14 UNK         0.5000 
     83 O          -1.3993  -26.3305  -50.8917 O.2       14 UNK        -0.5000 
     84 N          -2.2234  -24.3471  -50.1653 N.am      15 UNK        -0.5000 
     85 CA         -3.1284  -24.0360  -51.2698 C.3       15 UNK         0.1400 
     86 CB         -3.3500  -22.5153  -51.2982 C.3       15 UNK        -0.1800 
     87 C          -4.4763  -24.7855  -51.2082 C.2       15 UNK         0.5000 
     88 O          -5.3550  -24.4747  -52.0124 O.2       15 UNK        -0.5000 
     89 N          -4.6327  -25.7320  -50.2694 N.am      16 UNK        -0.5000 
     90 CA         -5.8083  -26.5780  -50.0420 C.3       16 UNK         0.1400 
     91 CB         -6.0635  -27.5059  -51.2487 C.3       16 UNK        -0.1800 
     92 C          -7.0432  -25.7556  -49.6280 C.2       16 UNK         0.5000 
     93 O          -8.0969  -25.8501  -50.2584 O.2       16 UNK        -0.5000 
     94 N          -6.8625  -24.9450  -48.5760 N.am      17 UNK        -0.5000 
     95 CA         -7.8100  -23.9703  -48.0252 C.3       17 UNK         0.1400 
     96 CB         -9.1055  -24.6464  -47.5279 C.3       17 UNK        -0.1800 
     97 C          -8.0520  -22.8044  -49.0037 C.2       17 UNK         0.5000 
     98 O          -9.1951  -22.4011  -49.2256 O.2       17 UNK        -0.5000 
     99 N          -6.9461  -22.2949  -49.5681 N.am      18 UNK        -0.5000 
    100 CA        -6.8654  -21.1922  -50.5331 C.3       18 UNK         0.1400 
    101 CB        -7.2569  -19.8588  -49.8633 C.3       18 UNK        -0.1800 
    102 C         -7.6300  -21.4612  -51.8489 C.2       18 UNK         0.5000 
    103 O         -8.1879  -20.5343  -52.4393 O.2       18 UNK        -0.5000 
    104 N         -7.6410  -22.7266  -52.2882 N.am      19 UNK        -0.5000 
    105 CA        -8.2254  -23.1583  -53.5561 C.3       19 UNK         0.1400 
    106 CB        -8.5761  -24.6512  -53.4743 C.3       19 UNK        -0.1800 
    107 C         -7.2803  -22.8842  -54.7388 C.2       19 UNK         0.5000 
    108 O         -7.7534  -22.5301  -55.8201 O.2       19 UNK        -0.5000 
    109 N         -5.9669  -23.0421  -54.5163 N.am      20 UNK        -0.5000 
    110 CA        -4.9197  -22.7120  -55.4839 C.3       20 UNK         0.1400 
    111 CB        -3.5791  -23.3013  -55.0191 C.3       20 UNK        -0.1800 
    112 C         -4.8021  -21.1899  -55.6896 C.2       20 UNK         0.5000 
    113 O         -5.0041  -20.4184  -54.7474 O.2       20 UNK        -0.5000 
    114 N         -4.4598  -20.7871  -56.9185 N.am      21 UNK        -0.5000 
    115 CA        -4.3679  -19.3962  -57.3654 C.3       21 UNK         0.1400 
    116 CB        -4.5447  -19.3621  -58.8948 C.3       21 UNK        -0.1800 
    117 C         -3.0690  -18.7023  -56.9009 C.2       21 UNK         0.5000 
    118 O         -2.2702  -18.2614  -57.7299 O.2       21 UNK        -0.5000 
    119 N         -2.8792  -18.6176  -55.5798 N.am      22 UNK        -0.5000 
    120 CA        -1.7571  -17.9125  -54.9353 C.3       22 UNK         0.1400 
    121 C         -1.8623  -16.3589  -54.9783 C.2       22 UNK         0.5000 
    122 N         -3.0099  -15.7740  -55.3010 N.am      22 UNK        -0.7600 
    123 O         -0.8787  -15.6703  -54.7245 O.2       22 UNK        -0.5000 
    124 C124       -1.5209  -18.3985  -53.4827 C.3       23 UNK        -0.0398 
    125 S125       -1.1379  -20.1795  -53.3708 S.3       23 UNK        -0.2404 
    126 C126        0.6333  -20.2275  -53.7973 C.3       23 UNK        -0.0205 
    127 H127        2.5665   -9.4313  -49.6611 H         1 UNK         0.0600 
    128 H128        1.9378  -10.2498  -51.0941 H         1 UNK         0.0600 
    129 H129        3.6386   -9.7809  -51.0215 H         1 UNK         0.0600 
    130 H130        1.6568  -12.4389  -50.7825 H         1 UNK         0.3000 
    131 H131        3.6625  -14.1707  -49.7540 H         1 UNK         0.0600 
    132 H132        1.9527  -15.9637  -50.0144 H         1 UNK         0.0800 
    133 H133        0.7028  -14.7771  -50.2371 H         1 UNK         0.0800 
    134 H134        4.2070  -15.9479  -51.7752 H         1 UNK         0.0800 
    135 H135        3.7212  -16.1432  -53.4397 H         1 UNK         0.0800 
    136 H136        1.7415  -17.7375  -53.9681 H         1 UNK         0.1150 
    137 H137        1.4719  -21.1365  -51.3663 H         1 UNK         0.1150 
    138 H138        3.8350  -17.7446  -50.2290 H         1 UNK         0.1150 
    139 H139        2.7258  -21.2304  -49.3367 H         1 UNK         0.0800 
    140 H140        4.1752  -20.2620  -49.3090 H         1 UNK         0.0800 
    141 H141        0.3958  -19.4244  -49.0672 H         1 UNK         0.0800 
    142 H142        0.1918  -18.7243  -47.4821 H         1 UNK         0.0800 
    143 H143        0.8536  -21.6674  -47.9254 H         1 UNK         0.0600 
    144 H144        0.6532  -20.1804  -45.5062 H         1 UNK         0.3000 
    145 H145        0.1086  -23.0788  -43.4184 H         1 UNK         0.0600 
    146 H146        2.0638  -22.0407  -42.3219 H         1 UNK         0.0600 
    147 H147        2.5572  -22.7952  -43.8300 H         1 UNK         0.0600 
    148 H148        2.3791  -21.0474  -43.7427 H         1 UNK         0.0600 
    149 H149        0.2025  -20.3331  -42.7325 H         1 UNK         0.3000 
    150 H150       -3.3255  -19.6731  -43.0594 H         1 UNK         0.0600 
    151 H151       -2.9113  -20.7605  -40.8447 H         1 UNK         0.0600 
    152 H152       -2.9360  -19.0084  -40.7115 H         1 UNK         0.0600 
    153 H153       -1.4007  -19.8722  -40.6833 H         1 UNK         0.0600 
    154 H154       -1.2229  -17.9547  -42.2710 H         1 UNK         0.3000 
    155 H155       -0.4085  -16.6707  -45.5368 H         1 UNK         0.0600 
    156 H156       -1.7414  -15.5771  -42.9990 H         1 UNK         0.0600 
    157 H157       -2.3151  -15.3781  -44.6496 H         1 UNK         0.0600 
    158 H158       -0.8152  -14.6160  -44.1401 H         1 UNK         0.0600 
    159 H159        0.7873  -16.1099  -43.0542 H         1 UNK         0.3000 
    160 H160        3.2628  -18.7125  -43.0354 H         1 UNK         0.0600 
    161 H161        3.3382  -15.6681  -43.3914 H         1 UNK         0.0600 
    162 H162        4.1383  -16.8494  -44.4125 H         1 UNK         0.0600 
    163 H163        4.6442  -16.6562  -42.7408 H         1 UNK         0.0600 
    164 H164        2.5427  -16.6241  -41.1919 H         1 UNK         0.3000 
    165 H165        0.3654  -18.5888  -39.1621 H         1 UNK         0.0600 
    166 H166        2.0261  -17.9446  -37.4380 H         1 UNK         0.0600 
    167 H167        2.6735  -19.2275  -38.4476 H         1 UNK         0.0600 
    168 H168        3.2196  -17.5712  -38.6819 H         1 UNK         0.0600 
    169 H169        1.3886  -15.9220  -38.9326 H         1 UNK         0.3000 
    170 H170       -1.1627  -14.2908  -40.8058 H         1 UNK         0.0600 
    171 H171       -2.1532  -14.6937  -38.5460 H         1 UNK         0.0600 
    172 H172       -0.5935  -14.3811  -37.7937 H         1 UNK         0.0600 
    173 H173       -1.4371  -13.0941  -38.6559 H         1 UNK         0.0600 
    174 H174        1.0203  -13.2455  -39.3287 H         1 UNK         0.3000 
    175 H175        2.6177  -12.0573  -40.7707 H         1 UNK         0.0600 
    176 H176        4.1072  -14.7621  -40.6838 H         1 UNK         0.0600 
    177 H177        4.8158  -13.2010  -40.2813 H         1 UNK         0.0600 
    178 H178        3.5462  -13.8708  -39.2726 H         1 UNK         0.0600 
    179 H179        2.8186  -13.5808  -43.1696 H         1 UNK         0.3000 
    180 H180        4.4570  -11.0874  -44.9408 H         1 UNK         0.0600 
    181 H181        5.5923  -13.9142  -44.5725 H         1 UNK         0.0600 
    182 H182        6.5047  -12.4187  -44.4022 H         1 UNK         0.0600 
    183 H183        5.8514  -12.8688  -45.9698 H         1 UNK         0.0600 
    184 H184        3.4384  -13.6232  -45.7645 H         1 UNK         0.3000 
    185 H185        0.9898  -14.0839  -45.7508 H         1 UNK         0.0600 
    186 H186       -0.7558  -12.3995  -45.0989 H         1 UNK         0.0600 
    187 H187       -0.5126  -11.5569  -46.6226 H         1 UNK         0.0600 
    188 H188       -1.1462  -13.2027  -46.6110 H         1 UNK         0.0600 
    189 H189        0.9465  -12.5551  -48.2458 H         1 UNK         0.3000 
    190 H190       -2.0085  -20.1919  -46.3088 H         1 UNK         0.3000 
    191 H191       -3.8832  -20.8368  -48.3346 H         1 UNK         0.0600 
    192 H192       -4.2857  -20.5567  -45.3137 H         1 UNK         0.0600 
    193 H193       -5.5713  -20.5777  -46.5155 H         1 UNK         0.0600 
    194 H194       -4.4026  -19.2664  -46.5083 H         1 UNK         0.0600 
    195 H195       -2.7438  -22.7537  -45.5150 H         1 UNK         0.3000 
    196 H196       -4.3769  -25.0364  -45.9598 H         1 UNK         0.0600 
    197 H197       -2.7425  -26.1740  -44.4553 H         1 UNK         0.0600 
    198 H198       -3.2281  -24.6116  -43.8139 H         1 UNK         0.0600 
    199 H199       -1.6527  -24.7986  -44.5777 H         1 UNK         0.0600 
    200 H200       -1.0198  -24.3025  -47.0492 H         1 UNK         0.3000 
    201 H201       -0.5744  -26.6744  -48.5284 H         1 UNK         0.0600 
    202 H202        1.2260  -25.0910  -47.8562 H         1 UNK         0.0600 
    203 H203        0.5831  -23.8671  -48.9497 H         1 UNK         0.0600 
    204 H204        1.2544  -25.3597  -49.5929 H         1 UNK         0.0600 
    205 H205       -2.1519  -23.6357  -49.4440 H         1 UNK         0.3000 
    206 H206       -2.6463  -24.3274  -52.2046 H         1 UNK         0.0600 
    207 H207       -2.4080  -21.9902  -51.4481 H         1 UNK         0.0600 
    208 H208       -4.0215  -22.2112  -52.1010 H         1 UNK         0.0600 
    209 H209       -3.7767  -22.1598  -50.3624 H         1 UNK         0.0600 
    210 H210       -3.8711  -25.8797  -49.6180 H         1 UNK         0.3000 
    211 H211       -5.5661  -27.2148  -49.1900 H         1 UNK         0.0600 
    212 H212       -6.3395  -26.9488  -52.1438 H         1 UNK         0.0600 
    213 H213       -6.8741  -28.2040  -51.0374 H         1 UNK         0.0600 
    214 H214       -5.1785  -28.0973  -51.4830 H         1 UNK         0.0600 
    215 H215       -5.9240  -24.8729  -48.2009 H         1 UNK         0.3000 
    216 H216       -7.3203  -23.5342  -47.1532 H         1 UNK         0.0600 
    217 H217       -9.7296  -23.9347  -46.9865 H         1 UNK         0.0600 
    218 H218       -8.8850  -25.4681  -46.8467 H         1 UNK         0.0600 
    219 H219       -9.7041  -25.0412  -48.3490 H         1 UNK         0.0600 
    220 H220       -6.0604  -22.7001  -49.2808 H         1 UNK         0.3000 
    221 H221       -5.8175  -21.1081  -50.8164 H         1 UNK         0.0600 
    222 H222       -8.3142  -19.8337  -49.5983 H         1 UNK         0.0600 
    223 H223       -6.6785  -19.6898  -48.9549 H         1 UNK         0.0600 
    224 H224       -7.0664  -19.0157  -50.5283 H         1 UNK         0.0600 
    225 H225       -7.1125  -23.4272  -51.7807 H         1 UNK         0.3000 
    226 H226       -9.1508  -22.6044  -53.7277 H         1 UNK         0.0600 
    227 H227       -9.2823  -24.8454  -52.6668 H         1 UNK         0.0600 
    228 H228       -9.0365  -24.9961  -54.4009 H         1 UNK         0.0600 
    229 H229       -7.6918  -25.2640  -53.2981 H         1 UNK         0.0600 
    230 H230       -5.6698  -23.3691  -53.6026 H         1 UNK         0.3000 
    231 H231       -5.1872  -23.1785  -56.4344 H         1 UNK         0.0600 
    232 H232       -3.6735  -24.3565  -54.7616 H         1 UNK         0.0600 
    233 H233       -3.1826  -22.7742  -54.1526 H         1 UNK         0.0600 
    234 H234       -2.8302  -23.2244  -55.8080 H         1 UNK         0.0600 
    235 H235       -4.2666  -21.4865  -57.6207 H         1 UNK         0.3000 
    236 H236       -5.1989  -18.8371  -56.9299 H         1 UNK         0.0600 
    237 H237       -4.5248  -18.3378  -59.2691 H         1 UNK         0.0600 
    238 H238       -3.7549  -19.9149  -59.4050 H         1 UNK         0.0600 
    239 H239       -5.5011  -19.7937  -59.1907 H         1 UNK         0.0600 
    240 H240       -3.5621  -19.0553  -54.9694 H         1 UNK         0.3000 
    241 H241       -0.8572  -18.1525  -55.5042 H         1 UNK         0.0600 
    242 H242       -3.0613  -14.7677  -55.3314 H         1 UNK         0.3800 
    243 H243       -3.8279  -16.3236  -55.5086 H         1 UNK         0.3800 
    244 H244       -0.7201  -17.8348  -53.0031 H         1 UNK         0.0800 
    245 H245       -2.4111  -18.2118  -52.8801 H         1 UNK         0.0800 
    246 H246        0.7790  -19.8036  -54.7917 H         1 UNK         0.0800 
    247 H247        0.9431  -21.2710  -53.8699 H         1 UNK         0.0800 
@<TRIPOS>BOND
     1    1    2 1    
     2    1  127 1    
     3    1  128 1    
     4    1  129 1    
     5    2    3 2    
     6    2    4 am   BACKBONE|DICT|INTERRES
     7    4    5 1    
     8    4  130 1    
     9    5    6 1    
    10    5   65 1    
    11    5  131 1    
    12    6    7 1    
    13    6  132 1    
    14    6  133 1    
    15    7    8 1    
    16    8    9 1    
    17    8  134 1    
    18    8  135 1    
    19    9   10 ar   
    20    9   14 ar   
    21   10   11 ar   
    22   10  136 1    
    23   11   12 ar   
    24   11  126 1    
    25   12   13 ar   
    26   12  137 1    
    27   13   14 ar   
    28   13   15 1    
    29   14  138 1    
    30   15   16 1    
    31   15  139 1    
    32   15  140 1    
    33   16   17 1    
    34   17   18 1    
    35   17  141 1    
    36   17  142 1    
    37   18   19 1    
    38   18   67 1    
    39   18  143 1    
    40   19   20 am   BACKBONE|DICT|INTERRES
    41   19  144 1    
    42   20   21 2    
    43   20   22 1    
    44   22   23 1    
    45   22   24 1    
    46   22  145 1    
    47   23  146 1    
    48   23  147 1    
    49   23  148 1    
    50   24   25 am   BACKBONE|DICT|INTERRES
    51   24  149 1    
    52   25   26 2    
    53   25   27 1    
    54   27   28 1    
    55   27   29 1    
    56   27  150 1    
    57   28  151 1    
    58   28  152 1    
    59   28  153 1    
    60   29   30 am   BACKBONE|DICT|INTERRES
    61   29  154 1    
    62   30   31 2    
    63   30   32 1    
    64   32   33 1    
    65   32   34 1    
    66   32  155 1    
    67   33  156 1    
    68   33  157 1    
    69   33  158 1    
    70   34   35 am   BACKBONE|DICT|INTERRES
    71   34  159 1    
    72   35   36 2    
    73   35   37 1    
    74   37   38 1    
    75   37   39 1    
    76   37  160 1    
    77   38  161 1    
    78   38  162 1    
    79   38  163 1    
    80   39   40 am   BACKBONE|DICT|INTERRES
    81   39  164 1    
    82   40   41 2    
    83   40   42 1    
    84   42   43 1    
    85   42   44 1    
    86   42  165 1    
    87   43  166 1    
    88   43  167 1    
    89   43  168 1    
    90   44   45 am   BACKBONE|DICT|INTERRES
    91   44  169 1    
    92   45   46 2    
    93   45   47 1    
    94   47   48 1    
    95   47   49 1    
    96   47  170 1    
    97   48  171 1    
    98   48  172 1    
    99   48  173 1    
   100   49   50 am   BACKBONE|DICT|INTERRES
   101   49  174 1    
   102   50   51 2    
   103   50   52 1    
   104   52   53 1    
   105   52   54 1    
   106   52  175 1    
   107   53  176 1    
   108   53  177 1    
   109   53  178 1    
   110   54   55 am   BACKBONE|DICT|INTERRES
   111   54  179 1    
   112   55   56 2    
   113   55   57 1    
   114   57   58 1    
   115   57   59 1    
   116   57  180 1    
   117   58  181 1    
   118   58  182 1    
   119   58  183 1    
   120   59   60 am   BACKBONE|DICT|INTERRES
   121   59  184 1    
   122   60   61 2    
   123   60   62 1    
   124   62   63 1    
   125   62   64 1    
   126   62  185 1    
   127   63  186 1    
   128   63  187 1    
   129   63  188 1    
   130   64   65 am   BACKBONE|DICT|INTERRES
   131   64  189 1    
   132   65   66 2    
   133   67   68 2    
   134   67   69 am   BACKBONE|DICT|INTERRES
   135   69   70 1    
   136   69  190 1    
   137   70   71 1    
   138   70   72 1    
   139   70  191 1    
   140   71  192 1    
   141   71  193 1    
   142   71  194 1    
   143   72   73 2    
   144   72   74 am   BACKBONE|DICT|INTERRES
   145   74   75 1    
   146   74  195 1    
   147   75   76 1    
   148   75   77 1    
   149   75  196 1    
   150   76  197 1    
   151   76  198 1    
   152   76  199 1    
   153   77   78 2    
   154   77   79 am   BACKBONE|DICT|INTERRES
   155   79   80 1    
   156   79  200 1    
   157   80   81 1    
   158   80   82 1    
   159   80  201 1    
   160   81  202 1    
   161   81  203 1    
   162   81  204 1    
   163   82   83 2    
   164   82   84 am   BACKBONE|DICT|INTERRES
   165   84   85 1    
   166   84  205 1    
   167   85   86 1    
   168   85   87 1    
   169   85  206 1    
   170   86  207 1    
   171   86  208 1    
   172   86  209 1    
   173   87   88 2    
   174   87   89 am   BACKBONE|DICT|INTERRES
   175   89   90 1    
   176   89  210 1    
   177   90   91 1    
   178   90   92 1    
   179   90  211 1    
   180   91  212 1    
   181   91  213 1    
   182   91  214 1    
   183   92   93 2    
   184   92   94 am   BACKBONE|DICT|INTERRES
   185   94   95 1    
   186   94  215 1    
   187   95   96 1    
   188   95   97 1    
   189   95  216 1    
   190   96  217 1    
   191   96  218 1    
   192   96  219 1    
   193   97   98 2    
   194   97   99 am   BACKBONE|DICT|INTERRES
   195   99  100 1    
   196   99  220 1    
   197  100  101 1    
   198  100  102 1    
   199  100  221 1    
   200  101  222 1    
   201  101  223 1    
   202  101  224 1    
   203  102  103 2    
   204  102  104 am   BACKBONE|DICT|INTERRES
   205  104  105 1    
   206  104  225 1    
   207  105  106 1    
   208  105  107 1    
   209  105  226 1    
   210  106  227 1    
   211  106  228 1    
   212  106  229 1    
   213  107  108 2    
   214  107  109 am   BACKBONE|DICT|INTERRES
   215  109  110 1    
   216  109  230 1    
   217  110  111 1    
   218  110  112 1    
   219  110  231 1    
   220  111  232 1    
   221  111  233 1    
   222  111  234 1    
   223  112  113 2    
   224  112  114 am   BACKBONE|DICT|INTERRES
   225  114  115 1    
   226  114  235 1    
   227  115  116 1    
   228  115  117 1    
   229  115  236 1    
   230  116  237 1    
   231  116  238 1    
   232  116  239 1    
   233  117  118 2    
   234  117  119 am   BACKBONE|DICT|INTERRES
   235  119  120 1    
   236  119  240 1    
   237  120  121 1    
   238  120  124 1    
   239  120  241 1    
   240  121  122 am   BACKBONE|DICT|INTERRES
   241  121  123 2    
   242  122  242 1    
   243  122  243 1    
   244  124  125 1    
   245  124  244 1    
   246  124  245 1    
   247  125  126 1    
   248  126  246 1    
   249  126  247 1    
@<TRIPOS>SUBSTRUCTURE
     1 UNK         1 GROUP             0       ****    0 ROOT    
