@<TRIPOS>MOLECULE
3R540
247   249    1
SMALL
USER_CHARGES


@<TRIPOS>ATOM
      1 CA         -0.9874  -14.3291  -53.5652 C.3       0 UNK        -0.1800 
      2 C          -0.6715  -14.0283  -52.1068 C.2       0 UNK         0.5000 
      3 O          -0.3398  -12.8889  -51.7778 O.2       0 UNK        -0.5000 
      4 N          -0.7737  -15.0360  -51.2334 N.am      1 UNK        -0.5000 
      5 CA         -0.6053  -14.8917  -49.7870 C.3       1 UNK         0.1400 
      6 C6         -0.2341  -16.2259  -49.0933 C.3       23 UNK        -0.0398 
      7 S7          1.3776  -16.9149  -49.5974 S.3       23 UNK        -0.2404 
      8 C8          0.8442  -18.1151  -50.8537 C.3       23 UNK        -0.0205 
      9 C9          1.8423  -19.2407  -51.0514 C.ar      23 UNK        -0.0193 
     10 C10         2.6297  -19.2979  -52.2025 C.ar      23 UNK        -0.1150 
     11 C11         3.4911  -20.3770  -52.4133 C.ar      23 UNK        -0.0193 
     12 C12         3.5609  -21.4006  -51.4617 C.ar      23 UNK        -0.1150 
     13 C13         2.7824  -21.3549  -50.3001 C.ar      23 UNK        -0.0193 
     14 C14         1.9343  -20.2613  -50.1024 C.ar      23 UNK        -0.1150 
     15 C15         2.8416  -22.5137  -49.3039 C.3       23 UNK        -0.0205 
     16 S16         2.8057  -22.0037  -47.5489 S.3       23 UNK        -0.2404 
     17 C17         1.0257  -22.0749  -47.1311 C.3       23 UNK        -0.0398 
     18 CA          0.7451  -23.0149  -45.9336 C.3       11 UNK         0.1400 
     19 N           1.3890  -22.5419  -44.7107 N.am      11 UNK        -0.5000 
     20 C           1.9680  -23.3146  -43.7858 C.2       10 UNK         0.5000 
     21 O           2.0517  -24.5412  -43.8752 O.2       10 UNK        -0.5000 
     22 CA          2.5439  -22.5792  -42.5565 C.3       10 UNK         0.1400 
     23 CB          3.5022  -23.4458  -41.7132 C.3       10 UNK        -0.1800 
     24 N           3.1590  -21.2971  -42.9120 N.am      10 UNK        -0.5000 
     25 C           4.2303  -21.0801  -43.6897 C.2       9 UNK         0.5000 
     26 O           4.9393  -21.9741  -44.1531 O.2       9 UNK        -0.5000 
     27 CA          4.5663  -19.6100  -44.0180 C.3       9 UNK         0.1400 
     28 CB          4.1803  -19.2841  -45.4691 C.3       9 UNK        -0.1800 
     29 N           3.9061  -18.6493  -43.1313 N.am      9 UNK        -0.5000 
     30 C           4.2637  -18.4064  -41.8634 C.2       8 UNK         0.5000 
     31 O           5.2354  -18.9279  -41.3149 O.2       8 UNK        -0.5000 
     32 CA          3.3667  -17.4418  -41.0646 C.3       8 UNK         0.1400 
     33 CB          3.7509  -15.9817  -41.3472 C.3       8 UNK        -0.1800 
     34 N           1.9384  -17.6352  -41.3294 N.am      8 UNK        -0.5000 
     35 C           1.2484  -18.7403  -41.0102 C.2       7 UNK         0.5000 
     36 O           1.7405  -19.7113  -40.4355 O.2       7 UNK        -0.5000 
     37 CA         -0.2305  -18.7912  -41.4351 C.3       7 UNK         0.1400 
     38 CB         -1.1102  -18.0091  -40.4485 C.3       7 UNK        -0.1800 
     39 N          -0.4515  -18.2949  -42.7929 N.am      7 UNK        -0.5000 
     40 C           0.0491  -18.8603  -43.9016 C.2       6 UNK         0.5000 
     41 O           0.7376  -19.8798  -43.9043 O.2       6 UNK        -0.5000 
     42 CA         -0.2156  -18.1267  -45.2266 C.3       6 UNK         0.1400 
     43 CB         -1.6631  -18.3480  -45.6882 C.3       6 UNK        -0.1800 
     44 N           0.0451  -16.6929  -45.1227 N.am      6 UNK        -0.5000 
     45 C           1.2227  -16.1403  -44.8000 C.2       5 UNK         0.5000 
     46 O           2.2541  -16.7810  -44.6043 O.2       5 UNK        -0.5000 
     47 CA          1.2308  -14.6158  -44.6050 C.3       5 UNK         0.1400 
     48 CB          1.3180  -13.8885  -45.9552 C.3       5 UNK        -0.1800 
     49 N           0.0537  -14.1551  -43.8667 N.am      5 UNK        -0.5000 
     50 C          -0.1752  -14.4135  -42.5711 C.2       4 UNK         0.5000 
     51 O           0.5972  -15.0489  -41.8541 O.2       4 UNK        -0.5000 
     52 CA         -1.5063  -13.9038  -41.9886 C.3       4 UNK         0.1400 
     53 CB         -1.3917  -12.4255  -41.5881 C.3       4 UNK        -0.1800 
     54 N          -2.6260  -14.0703  -42.9164 N.am      4 UNK        -0.5000 
     55 C          -3.1359  -15.2563  -43.2772 C.2       3 UNK         0.5000 
     56 O          -2.7361  -16.3342  -42.8373 O.2       3 UNK        -0.5000 
     57 CA         -4.2390  -15.2344  -44.3550 C.3       3 UNK         0.1400 
     58 CB         -5.6170  -14.9977  -43.7205 C.3       3 UNK        -0.1800 
     59 N          -4.0104  -14.2441  -45.4154 N.am      3 UNK        -0.5000 
     60 C          -2.9286  -14.2280  -46.2043 C.2       2 UNK         0.5000 
     61 O          -2.0023  -15.0338  -46.0908 O.2       2 UNK        -0.5000 
     62 CA         -2.8342  -13.1048  -47.2564 C.3       2 UNK         0.1400 
     63 CB         -2.4806  -11.7700  -46.5815 C.3       2 UNK        -0.1800 
     64 N          -1.7948  -13.4187  -48.2380 N.am      2 UNK        -0.5000 
     65 C          -1.9158  -14.3666  -49.1741 C.2       1 UNK         0.5000 
     66 O          -2.9893  -14.8829  -49.4948 O.2       1 UNK        -0.5000 
     67 C          -0.7658  -23.1347  -45.6595 C.2       11 UNK         0.5000 
     68 O          -1.3609  -22.2127  -45.0967 O.2       11 UNK        -0.5000 
     69 N          -1.3562  -24.2715  -46.0485 N.am      12 UNK        -0.5000 
     70 CA         -2.7794  -24.5738  -45.8812 C.3       12 UNK         0.1400 
     71 CB         -2.9943  -26.0680  -46.1722 C.3       12 UNK        -0.1800 
     72 C          -3.6755  -23.7251  -46.8015 C.2       12 UNK         0.5000 
     73 O          -3.2119  -23.2403  -47.8336 O.2       12 UNK        -0.5000 
     74 N          -4.9682  -23.6312  -46.4617 N.am      13 UNK        -0.5000 
     75 CA         -5.9931  -22.8932  -47.2151 C.3       13 UNK         0.1400 
     76 CB         -7.2887  -22.8599  -46.3900 C.3       13 UNK        -0.1800 
     77 C          -6.2711  -23.4296  -48.6384 C.2       13 UNK         0.5000 
     78 O          -6.9108  -22.7392  -49.4302 O.2       13 UNK        -0.5000 
     79 N          -5.7879  -24.6413  -48.9419 N.am      14 UNK        -0.5000 
     80 CA         -5.8007  -25.2403  -50.2767 C.3       14 UNK         0.1400 
     81 CB         -5.8406  -26.7690  -50.1216 C.3       14 UNK        -0.1800 
     82 C          -4.5869  -24.8210  -51.1347 C.2       14 UNK         0.5000 
     83 O          -4.6020  -25.0595  -52.3425 O.2       14 UNK        -0.5000 
     84 N          -3.5580  -24.2315  -50.5102 N.am      15 UNK        -0.5000 
     85 CA         -2.2884  -23.8471  -51.1313 C.3       15 UNK         0.1400 
     86 CB         -1.1662  -24.6237  -50.4185 C.3       15 UNK        -0.1800 
     87 C          -2.0158  -22.3337  -51.0384 C.2       15 UNK         0.5000 
     88 O          -1.0428  -21.8614  -51.6290 O.2       15 UNK        -0.5000 
     89 N          -2.8393  -21.6077  -50.2776 N.am      16 UNK        -0.5000 
     90 CA         -2.6454  -20.2197  -49.8866 C.3       16 UNK         0.1400 
     91 CB         -1.6167  -20.1776  -48.7467 C.3       16 UNK        -0.1800 
     92 C          -3.9851  -19.6336  -49.4240 C.2       16 UNK         0.5000 
     93 O          -4.9783  -20.3609  -49.3719 O.2       16 UNK        -0.5000 
     94 N          -3.9878  -18.3399  -49.0705 N.am      17 UNK        -0.5000 
     95 CA         -5.0989  -17.5954  -48.4654 C.3       17 UNK         0.1400 
     96 CB         -5.3664  -18.0996  -47.0296 C.3       17 UNK        -0.1800 
     97 C          -6.3505  -17.6025  -49.3639 C.2       17 UNK         0.5000 
     98 O          -6.4054  -16.8312  -50.3209 O.2       17 UNK        -0.5000 
     99 N          -7.3024  -18.5028  -49.0826 N.am      18 UNK        -0.5000 
    100 CA        -8.4964  -18.7555  -49.8922 C.3       18 UNK         0.1400 
    101 CB        -9.3920  -19.7659  -49.1595 C.3       18 UNK        -0.1800 
    102 C         -8.1749  -19.2506  -51.3175 C.2       18 UNK         0.5000 
    103 O         -8.9026  -18.9141  -52.2521 O.2       18 UNK        -0.5000 
    104 N         -7.0773  -20.0052  -51.4632 N.am      19 UNK        -0.5000 
    105 CA        -6.5443  -20.4646  -52.7477 C.3       19 UNK         0.1400 
    106 CB        -5.9121  -21.8491  -52.5492 C.3       19 UNK        -0.1800 
    107 C         -5.5245  -19.4817  -53.3596 C.2       19 UNK         0.5000 
    108 O         -5.0408  -19.7369  -54.4621 O.2       19 UNK        -0.5000 
    109 N         -5.2137  -18.3890  -52.6457 N.am      20 UNK        -0.5000 
    110 CA        -4.2484  -17.3302  -52.9532 C.3       20 UNK         0.1400 
    111 CB        -4.6154  -16.5735  -54.2454 C.3       20 UNK        -0.1800 
    112 C         -2.7893  -17.8177  -52.9561 C.2       20 UNK         0.5000 
    113 O         -2.0394  -17.4587  -52.0487 O.2       20 UNK        -0.5000 
    114 N         -2.4134  -18.6111  -53.9623 N.am      21 UNK        -0.5000 
    115 CA        -1.0797  -19.1526  -54.2174 C.3       21 UNK         0.1400 
    116 CB        -0.1266  -18.0103  -54.6258 C.3       21 UNK        -0.1800 
    117 C         -1.2032  -20.1765  -55.3665 C.2       21 UNK         0.5000 
    118 O         -2.1636  -20.0857  -56.1335 O.2       21 UNK        -0.5000 
    119 N         -0.2758  -21.1206  -55.5654 N.am      22 UNK        -0.5000 
    120 CA         0.8976  -21.4899  -54.7661 C.3       22 UNK         0.1400 
    121 C          0.8227  -23.0267  -54.5679 C.2       22 UNK         0.5000 
    122 N          0.5317  -23.4927  -53.3642 N.am      22 UNK        -0.7600 
    123 O          1.0199  -23.7981  -55.5044 O.2       22 UNK        -0.5000 
    124 C124        2.2110  -21.0272  -55.4676 C.3       23 UNK        -0.0398 
    125 S125        3.7713  -21.7314  -54.8161 S.3       23 UNK        -0.2404 
    126 C126        4.3449  -20.4404  -53.6698 C.3       23 UNK        -0.0205 
    127 H127       -1.5039  -15.2800  -53.6804 H         1 UNK         0.0600 
    128 H128       -0.0678  -14.3658  -54.1489 H         1 UNK         0.0600 
    129 H129       -1.6264  -13.5501  -53.9810 H         1 UNK         0.0600 
    130 H130       -1.1261  -15.9388  -51.5444 H         1 UNK         0.3000 
    131 H131        0.1943  -14.1737  -49.5907 H         1 UNK         0.0600 
    132 H132       -1.0177  -16.9660  -49.2539 H         1 UNK         0.0800 
    133 H133       -0.1832  -16.0854  -48.0121 H         1 UNK         0.0800 
    134 H134        0.6772  -17.5817  -51.7874 H         1 UNK         0.0800 
    135 H135       -0.1111  -18.5584  -50.5792 H         1 UNK         0.0800 
    136 H136        2.5631  -18.5094  -52.9385 H         1 UNK         0.1150 
    137 H137        4.2171  -22.2417  -51.6369 H         1 UNK         0.1150 
    138 H138        1.3389  -20.1980  -49.2073 H         1 UNK         0.1150 
    139 H139        2.0292  -23.2100  -49.5145 H         1 UNK         0.0800 
    140 H140        3.7644  -23.0754  -49.4559 H         1 UNK         0.0800 
    141 H141        0.4648  -22.4088  -48.0049 H         1 UNK         0.0800 
    142 H142        0.6848  -21.0617  -46.9107 H         1 UNK         0.0800 
    143 H143        1.1311  -24.0040  -46.1900 H         1 UNK         0.0600 
    144 H144        1.2744  -21.5514  -44.5060 H         1 UNK         0.3000 
    145 H145        1.6878  -22.3329  -41.9267 H         1 UNK         0.0600 
    146 H146        3.8850  -22.8895  -40.8575 H         1 UNK         0.0600 
    147 H147        2.9901  -24.3265  -41.3243 H         1 UNK         0.0600 
    148 H148        4.3547  -23.7960  -42.2956 H         1 UNK         0.0600 
    149 H149        2.6359  -20.4810  -42.6225 H         1 UNK         0.3000 
    150 H150        5.6467  -19.4887  -43.9174 H         1 UNK         0.0600 
    151 H151        4.6909  -19.9467  -46.1687 H         1 UNK         0.0600 
    152 H152        4.4538  -18.2622  -45.7318 H         1 UNK         0.0600 
    153 H153        3.1074  -19.3960  -45.6329 H         1 UNK         0.0600 
    154 H154        3.1328  -18.1242  -43.5320 H         1 UNK         0.3000 
    155 H155        3.5370  -17.6356  -40.0035 H         1 UNK         0.0600 
    156 H156        4.8078  -15.8082  -41.1409 H         1 UNK         0.0600 
    157 H157        3.1806  -15.2960  -40.7205 H         1 UNK         0.0600 
    158 H158        3.5705  -15.7120  -42.3880 H         1 UNK         0.0600 
    159 H159        1.4477  -16.8572  -41.7594 H         1 UNK         0.3000 
    160 H160       -0.5445  -19.8368  -41.4119 H         1 UNK         0.0600 
    161 H161       -0.8757  -16.9443  -40.4551 H         1 UNK         0.0600 
    162 H162       -0.9714  -18.3707  -39.4289 H         1 UNK         0.0600 
    163 H163       -2.1671  -18.1192  -40.6915 H         1 UNK         0.0600 
    164 H164       -1.0404  -17.4735  -42.8849 H         1 UNK         0.3000 
    165 H165        0.4572  -18.5356  -45.9833 H         1 UNK         0.0600 
    166 H166       -1.8585  -17.8491  -46.6368 H         1 UNK         0.0600 
    167 H167       -1.8725  -19.4100  -45.8179 H         1 UNK         0.0600 
    168 H168       -2.3798  -17.9642  -44.9628 H         1 UNK         0.0600 
    169 H169       -0.7440  -16.0761  -45.3055 H         1 UNK         0.3000 
    170 H170        2.1186  -14.3577  -44.0238 H         1 UNK         0.0600 
    171 H171        2.2111  -14.1927  -46.5028 H         1 UNK         0.0600 
    172 H172        0.4593  -14.1063  -46.5878 H         1 UNK         0.0600 
    173 H173        1.3714  -12.8083  -45.8193 H         1 UNK         0.0600 
    174 H174       -0.6596  -13.6804  -44.3981 H         1 UNK         0.3000 
    175 H175       -1.7194  -14.4849  -41.0887 H         1 UNK         0.0600 
    176 H176       -0.5725  -12.2751  -40.8835 H         1 UNK         0.0600 
    177 H177       -1.2043  -11.7855  -42.4512 H         1 UNK         0.0600 
    178 H178       -2.3037  -12.0770  -41.1031 H         1 UNK         0.0600 
    179 H179       -3.0121  -13.2331  -43.3268 H         1 UNK         0.3000 
    180 H180       -4.2491  -16.2196  -44.8232 H         1 UNK         0.0600 
    181 H181       -5.8181  -15.7319  -42.9391 H         1 UNK         0.0600 
    182 H182       -5.6883  -14.0080  -43.2678 H         1 UNK         0.0600 
    183 H183       -6.4123  -15.0877  -44.4607 H         1 UNK         0.0600 
    184 H184       -4.7298  -13.5477  -45.5472 H         1 UNK         0.3000 
    185 H185       -3.7969  -13.0111  -47.7631 H         1 UNK         0.0600 
    186 H186       -3.2477  -11.4734  -45.8651 H         1 UNK         0.0600 
    187 H187       -1.5330  -11.8263  -46.0438 H         1 UNK         0.0600 
    188 H188       -2.4003  -10.9681  -47.3157 H         1 UNK         0.0600 
    189 H189       -0.8772  -13.0510  -48.0372 H         1 UNK         0.3000 
    190 H190       -0.8067  -24.9746  -46.5195 H         1 UNK         0.3000 
    191 H191       -3.0560  -24.3702  -44.8446 H         1 UNK         0.0600 
    192 H192       -2.7351  -26.3191  -47.2019 H         1 UNK         0.0600 
    193 H193       -4.0344  -26.3568  -46.0157 H         1 UNK         0.0600 
    194 H194       -2.3872  -26.6891  -45.5132 H         1 UNK         0.0600 
    195 H195       -5.2819  -24.0810  -45.6135 H         1 UNK         0.3000 
    196 H196       -5.6392  -21.8669  -47.3252 H         1 UNK         0.0600 
    197 H197       -8.0626  -22.2833  -46.8988 H         1 UNK         0.0600 
    198 H198       -7.1266  -22.3933  -45.4183 H         1 UNK         0.0600 
    199 H199       -7.6834  -23.8626  -46.2219 H         1 UNK         0.0600 
    200 H200       -5.3026  -25.1527  -48.2206 H         1 UNK         0.3000 
    201 H201       -6.7028  -24.9277  -50.8069 H         1 UNK         0.0600 
    202 H202       -5.8854  -27.2605  -51.0943 H         1 UNK         0.0600 
    203 H203       -4.9568  -27.1447  -49.6042 H         1 UNK         0.0600 
    204 H204       -6.7194  -27.0852  -49.5592 H         1 UNK         0.0600 
    205 H205       -3.6230  -24.0401  -49.5147 H         1 UNK         0.3000 
    206 H206       -2.2772  -24.1094  -52.1910 H         1 UNK         0.0600 
    207 H207       -1.2980  -25.6993  -50.5356 H         1 UNK         0.0600 
    208 H208       -0.1842  -24.3722  -50.8187 H         1 UNK         0.0600 
    209 H209       -1.1448  -24.4043  -49.3502 H         1 UNK         0.0600 
    210 H210       -3.6302  -22.0517  -49.8289 H         1 UNK         0.3000 
    211 H211       -2.2847  -19.6557  -50.7447 H         1 UNK         0.0600 
    212 H212       -1.3245  -19.1593  -48.5002 H         1 UNK         0.0600 
    213 H213       -0.7173  -20.7128  -49.0313 H         1 UNK         0.0600 
    214 H214       -2.0029  -20.6500  -47.8425 H         1 UNK         0.0600 
    215 H215       -3.1497  -17.7977  -49.2198 H         1 UNK         0.3000 
    216 H216       -4.7778  -16.5558  -48.3904 H         1 UNK         0.0600 
    217 H217       -6.1679  -17.5305  -46.5568 H         1 UNK         0.0600 
    218 H218       -4.4792  -17.9816  -46.4096 H         1 UNK         0.0600 
    219 H219       -5.6429  -19.1538  -46.9985 H         1 UNK         0.0600 
    220 H220       -7.1394  -19.1379  -48.3151 H         1 UNK         0.3000 
    221 H221       -9.0424  -17.8144  -49.9840 H         1 UNK         0.0600 
    222 H222       -8.8856  -20.7216  -49.0172 H         1 UNK         0.0600 
    223 H223       -9.6891  -19.3933  -48.1791 H         1 UNK         0.0600 
    224 H224      -10.3052  -19.9595  -49.7238 H         1 UNK         0.0600 
    225 H225       -6.5370  -20.2510  -50.6374 H         1 UNK         0.3000 
    226 H226       -7.3587  -20.5708  -53.4671 H         1 UNK         0.0600 
    227 H227       -6.6515  -22.5699  -52.2005 H         1 UNK         0.0600 
    228 H228       -5.4973  -22.2373  -53.4802 H         1 UNK         0.0600 
    229 H229       -5.1064  -21.8178  -51.8176 H         1 UNK         0.0600 
    230 H230       -5.7077  -18.2550  -51.7722 H         1 UNK         0.3000 
    231 H231       -4.3288  -16.6139  -52.1337 H         1 UNK         0.0600 
    232 H232       -5.6201  -16.1560  -54.1805 H         1 UNK         0.0600 
    233 H233       -4.5767  -17.2115  -55.1283 H         1 UNK         0.0600 
    234 H234       -3.9300  -15.7425  -54.4157 H         1 UNK         0.0600 
    235 H235       -3.1203  -18.9276  -54.6224 H         1 UNK         0.3000 
    236 H236       -0.7360  -19.6369  -53.3032 H         1 UNK         0.0600 
    237 H237       -0.0862  -17.2202  -53.8795 H         1 UNK         0.0600 
    238 H238        0.8909  -18.3704  -54.7547 H         1 UNK         0.0600 
    239 H239       -0.4338  -17.5526  -55.5670 H         1 UNK         0.0600 
    240 H240       -0.4369  -21.7607  -56.3301 H         1 UNK         0.3000 
    241 H241        0.8613  -21.0264  -53.7810 H         1 UNK         0.0600 
    242 H242        0.2528  -22.8606  -52.6192 H         1 UNK         0.3800 
    243 H243        0.4944  -24.4889  -53.2232 H         1 UNK         0.3800 
    244 H244        2.1710  -21.3002  -56.5234 H         1 UNK         0.0800 
    245 H245        2.2863  -19.9416  -55.4567 H         1 UNK         0.0800 
    246 H246        5.3759  -20.6566  -53.3862 H         1 UNK         0.0800 
    247 H247        4.3666  -19.4771  -54.1818 H         1 UNK         0.0800 
@<TRIPOS>BOND
     1    1    2 1    
     2    1  127 1    
     3    1  128 1    
     4    1  129 1    
     5    2    3 2    
     6    2    4 am   BACKBONE|DICT|INTERRES
     7    4    5 1    
     8    4  130 1    
     9    5    6 1    
    10    5   65 1    
    11    5  131 1    
    12    6    7 1    
    13    6  132 1    
    14    6  133 1    
    15    7    8 1    
    16    8    9 1    
    17    8  134 1    
    18    8  135 1    
    19    9   10 ar   
    20    9   14 ar   
    21   10   11 ar   
    22   10  136 1    
    23   11   12 ar   
    24   11  126 1    
    25   12   13 ar   
    26   12  137 1    
    27   13   14 ar   
    28   13   15 1    
    29   14  138 1    
    30   15   16 1    
    31   15  139 1    
    32   15  140 1    
    33   16   17 1    
    34   17   18 1    
    35   17  141 1    
    36   17  142 1    
    37   18   19 1    
    38   18   67 1    
    39   18  143 1    
    40   19   20 am   BACKBONE|DICT|INTERRES
    41   19  144 1    
    42   20   21 2    
    43   20   22 1    
    44   22   23 1    
    45   22   24 1    
    46   22  145 1    
    47   23  146 1    
    48   23  147 1    
    49   23  148 1    
    50   24   25 am   BACKBONE|DICT|INTERRES
    51   24  149 1    
    52   25   26 2    
    53   25   27 1    
    54   27   28 1    
    55   27   29 1    
    56   27  150 1    
    57   28  151 1    
    58   28  152 1    
    59   28  153 1    
    60   29   30 am   BACKBONE|DICT|INTERRES
    61   29  154 1    
    62   30   31 2    
    63   30   32 1    
    64   32   33 1    
    65   32   34 1    
    66   32  155 1    
    67   33  156 1    
    68   33  157 1    
    69   33  158 1    
    70   34   35 am   BACKBONE|DICT|INTERRES
    71   34  159 1    
    72   35   36 2    
    73   35   37 1    
    74   37   38 1    
    75   37   39 1    
    76   37  160 1    
    77   38  161 1    
    78   38  162 1    
    79   38  163 1    
    80   39   40 am   BACKBONE|DICT|INTERRES
    81   39  164 1    
    82   40   41 2    
    83   40   42 1    
    84   42   43 1    
    85   42   44 1    
    86   42  165 1    
    87   43  166 1    
    88   43  167 1    
    89   43  168 1    
    90   44   45 am   BACKBONE|DICT|INTERRES
    91   44  169 1    
    92   45   46 2    
    93   45   47 1    
    94   47   48 1    
    95   47   49 1    
    96   47  170 1    
    97   48  171 1    
    98   48  172 1    
    99   48  173 1    
   100   49   50 am   BACKBONE|DICT|INTERRES
   101   49  174 1    
   102   50   51 2    
   103   50   52 1    
   104   52   53 1    
   105   52   54 1    
   106   52  175 1    
   107   53  176 1    
   108   53  177 1    
   109   53  178 1    
   110   54   55 am   BACKBONE|DICT|INTERRES
   111   54  179 1    
   112   55   56 2    
   113   55   57 1    
   114   57   58 1    
   115   57   59 1    
   116   57  180 1    
   117   58  181 1    
   118   58  182 1    
   119   58  183 1    
   120   59   60 am   BACKBONE|DICT|INTERRES
   121   59  184 1    
   122   60   61 2    
   123   60   62 1    
   124   62   63 1    
   125   62   64 1    
   126   62  185 1    
   127   63  186 1    
   128   63  187 1    
   129   63  188 1    
   130   64   65 am   BACKBONE|DICT|INTERRES
   131   64  189 1    
   132   65   66 2    
   133   67   68 2    
   134   67   69 am   BACKBONE|DICT|INTERRES
   135   69   70 1    
   136   69  190 1    
   137   70   71 1    
   138   70   72 1    
   139   70  191 1    
   140   71  192 1    
   141   71  193 1    
   142   71  194 1    
   143   72   73 2    
   144   72   74 am   BACKBONE|DICT|INTERRES
   145   74   75 1    
   146   74  195 1    
   147   75   76 1    
   148   75   77 1    
   149   75  196 1    
   150   76  197 1    
   151   76  198 1    
   152   76  199 1    
   153   77   78 2    
   154   77   79 am   BACKBONE|DICT|INTERRES
   155   79   80 1    
   156   79  200 1    
   157   80   81 1    
   158   80   82 1    
   159   80  201 1    
   160   81  202 1    
   161   81  203 1    
   162   81  204 1    
   163   82   83 2    
   164   82   84 am   BACKBONE|DICT|INTERRES
   165   84   85 1    
   166   84  205 1    
   167   85   86 1    
   168   85   87 1    
   169   85  206 1    
   170   86  207 1    
   171   86  208 1    
   172   86  209 1    
   173   87   88 2    
   174   87   89 am   BACKBONE|DICT|INTERRES
   175   89   90 1    
   176   89  210 1    
   177   90   91 1    
   178   90   92 1    
   179   90  211 1    
   180   91  212 1    
   181   91  213 1    
   182   91  214 1    
   183   92   93 2    
   184   92   94 am   BACKBONE|DICT|INTERRES
   185   94   95 1    
   186   94  215 1    
   187   95   96 1    
   188   95   97 1    
   189   95  216 1    
   190   96  217 1    
   191   96  218 1    
   192   96  219 1    
   193   97   98 2    
   194   97   99 am   BACKBONE|DICT|INTERRES
   195   99  100 1    
   196   99  220 1    
   197  100  101 1    
   198  100  102 1    
   199  100  221 1    
   200  101  222 1    
   201  101  223 1    
   202  101  224 1    
   203  102  103 2    
   204  102  104 am   BACKBONE|DICT|INTERRES
   205  104  105 1    
   206  104  225 1    
   207  105  106 1    
   208  105  107 1    
   209  105  226 1    
   210  106  227 1    
   211  106  228 1    
   212  106  229 1    
   213  107  108 2    
   214  107  109 am   BACKBONE|DICT|INTERRES
   215  109  110 1    
   216  109  230 1    
   217  110  111 1    
   218  110  112 1    
   219  110  231 1    
   220  111  232 1    
   221  111  233 1    
   222  111  234 1    
   223  112  113 2    
   224  112  114 am   BACKBONE|DICT|INTERRES
   225  114  115 1    
   226  114  235 1    
   227  115  116 1    
   228  115  117 1    
   229  115  236 1    
   230  116  237 1    
   231  116  238 1    
   232  116  239 1    
   233  117  118 2    
   234  117  119 am   BACKBONE|DICT|INTERRES
   235  119  120 1    
   236  119  240 1    
   237  120  121 1    
   238  120  124 1    
   239  120  241 1    
   240  121  122 am   BACKBONE|DICT|INTERRES
   241  121  123 2    
   242  122  242 1    
   243  122  243 1    
   244  124  125 1    
   245  124  244 1    
   246  124  245 1    
   247  125  126 1    
   248  126  246 1    
   249  126  247 1    
@<TRIPOS>SUBSTRUCTURE
     1 UNK         1 GROUP             0       ****    0 ROOT    
