@<TRIPOS>MOLECULE
3R540
247   249    1
SMALL
USER_CHARGES


@<TRIPOS>ATOM
      1 CA          5.8645  -17.6454  -47.8309 C.3       0 UNK        -0.1800 
      2 C           4.4969  -17.2530  -47.2930 C.2       0 UNK         0.5000 
      3 O           3.8055  -18.0848  -46.7095 O.2       0 UNK        -0.5000 
      4 N           4.0968  -15.9922  -47.4916 N.am      1 UNK        -0.5000 
      5 CA          2.8127  -15.4546  -47.0276 C.3       1 UNK         0.1400 
      6 C6          2.3962  -14.2124  -47.8584 C.3       23 UNK        -0.0398 
      7 S7          0.5909  -14.0881  -48.0984 S.3       23 UNK        -0.2404 
      8 C8          0.4307  -14.2937  -49.9062 C.3       23 UNK        -0.0205 
      9 C9          0.2404  -15.7454  -50.3347 C.ar      23 UNK        -0.0193 
     10 C10        -0.9251  -16.1239  -51.0063 C.ar      23 UNK        -0.1150 
     11 C11        -1.1060  -17.4412  -51.4328 C.ar      23 UNK        -0.0193 
     12 C12        -0.1137  -18.3907  -51.1722 C.ar      23 UNK        -0.1150 
     13 C13         1.0573  -18.0370  -50.4863 C.ar      23 UNK        -0.0193 
     14 C14         1.2273  -16.7062  -50.0914 C.ar      23 UNK        -0.1150 
     15 C15         2.1571  -19.0387  -50.1172 C.3       23 UNK        -0.0205 
     16 S16         2.0003  -20.7246  -50.8082 S.3       23 UNK        -0.2404 
     17 C17         0.6304  -21.4188  -49.8202 C.3       23 UNK        -0.0398 
     18 CA          1.1002  -22.4363  -48.7546 C.3       11 UNK         0.1400 
     19 N           2.0296  -21.8343  -47.7991 N.am      11 UNK        -0.5000 
     20 C           2.9708  -22.4945  -47.1180 C.2       10 UNK         0.5000 
     21 O           3.1828  -23.7015  -47.2368 O.2       10 UNK        -0.5000 
     22 CA          3.8160  -21.6657  -46.1345 C.3       10 UNK         0.1400 
     23 CB          5.0911  -21.1619  -46.8264 C.3       10 UNK        -0.1800 
     24 N           3.0914  -20.5244  -45.5686 N.am      10 UNK        -0.5000 
     25 C           2.1265  -20.6304  -44.6472 C.2       9 UNK         0.5000 
     26 O           1.7197  -21.7091  -44.2130 O.2       9 UNK        -0.5000 
     27 CA          1.5195  -19.3193  -44.1030 C.3       9 UNK         0.1400 
     28 CB          2.5761  -18.5189  -43.3284 C.3       9 UNK        -0.1800 
     29 N           0.8295  -18.4158  -45.0373 N.am      9 UNK        -0.5000 
     30 C           0.2025  -18.7049  -46.1863 C.2       8 UNK         0.5000 
     31 O           0.3347  -19.7596  -46.8017 O.2       8 UNK        -0.5000 
     32 CA         -0.8101  -17.6608  -46.6863 C.3       8 UNK         0.1400 
     33 CB         -1.6697  -18.1830  -47.8574 C.3       8 UNK        -0.1800 
     34 N          -1.6781  -17.2903  -45.5735 N.am      8 UNK        -0.5000 
     35 C          -2.5083  -16.2466  -45.5278 C.2       7 UNK         0.5000 
     36 O          -2.5795  -15.3866  -46.4044 O.2       7 UNK        -0.5000 
     37 CA         -3.4233  -16.1410  -44.2934 C.3       7 UNK         0.1400 
     38 CB         -4.6113  -17.1167  -44.3991 C.3       7 UNK        -0.1800 
     39 N          -2.7336  -16.2717  -43.0031 N.am      7 UNK        -0.5000 
     40 C          -2.1178  -17.3346  -42.4618 C.2       6 UNK         0.5000 
     41 O          -2.0082  -18.4252  -43.0244 O.2       6 UNK        -0.5000 
     42 CA         -1.4852  -17.1076  -41.0760 C.3       6 UNK         0.1400 
     43 CB         -0.4751  -18.1989  -40.6807 C.3       6 UNK        -0.1800 
     44 N          -0.8277  -15.8019  -41.0567 N.am      6 UNK        -0.5000 
     45 C          -1.0883  -14.8099  -40.1974 C.2       5 UNK         0.5000 
     46 O          -1.8263  -14.9220  -39.2181 O.2       5 UNK        -0.5000 
     47 CA         -0.4460  -13.4445  -40.5141 C.3       5 UNK         0.1400 
     48 CB          0.8714  -13.2822  -39.7422 C.3       5 UNK        -0.1800 
     49 N          -0.2066  -13.2250  -41.9472 N.am      5 UNK        -0.5000 
     50 C          -1.1725  -13.1327  -42.8778 C.2       4 UNK         0.5000 
     51 O          -2.3695  -13.2547  -42.6124 O.2       4 UNK        -0.5000 
     52 CA         -0.7436  -12.9218  -44.3466 C.3       4 UNK         0.1400 
     53 CB         -1.7824  -12.1346  -45.1713 C.3       4 UNK        -0.1800 
     54 N           0.5967  -12.3521  -44.4927 N.am      4 UNK        -0.5000 
     55 C           1.0244  -11.1366  -44.1171 C.2       3 UNK         0.5000 
     56 O           0.2894  -10.2650  -43.6510 O.2       3 UNK        -0.5000 
     57 CA          2.5397  -10.8640  -44.2753 C.3       3 UNK         0.1400 
     58 CB          3.0706   -9.8608  -43.2300 C.3       3 UNK        -0.1800 
     59 N           3.3621  -12.0842  -44.2822 N.am      3 UNK        -0.5000 
     60 C           3.4407  -13.0086  -43.3113 C.2       2 UNK         0.5000 
     61 O           2.8319  -12.9288  -42.2442 O.2       2 UNK        -0.5000 
     62 CA          4.2753  -14.2640  -43.6401 C.3       2 UNK         0.1400 
     63 CB          4.0967  -15.3831  -42.5961 C.3       2 UNK        -0.1800 
     64 N           4.0101  -14.7637  -44.9973 N.am      2 UNK        -0.5000 
     65 C           2.8265  -15.1330  -45.5177 C.2       1 UNK         0.5000 
     66 O           1.7758  -15.1883  -44.8765 O.2       1 UNK        -0.5000 
     67 C          -0.1097  -23.0407  -48.0152 C.2       11 UNK         0.5000 
     68 O          -0.6188  -24.0854  -48.4237 O.2       11 UNK        -0.5000 
     69 N          -0.5392  -22.3849  -46.9263 N.am      12 UNK        -0.5000 
     70 CA         -1.6694  -22.7482  -46.0673 C.3       12 UNK         0.1400 
     71 CB         -1.8867  -21.6467  -45.0189 C.3       12 UNK        -0.1800 
     72 C          -1.5362  -24.1285  -45.3979 C.2       12 UNK         0.5000 
     73 O          -2.5543  -24.7309  -45.0579 O.2       12 UNK        -0.5000 
     74 N          -0.3037  -24.6454  -45.2975 N.am      13 UNK        -0.5000 
     75 CA          0.0084  -26.0264  -44.9185 C.3       13 UNK         0.1400 
     76 CB          1.5341  -26.1788  -44.8269 C.3       13 UNK        -0.1800 
     77 C          -0.5839  -27.0814  -45.8814 C.2       13 UNK         0.5000 
     78 O          -0.8367  -28.2096  -45.4582 O.2       13 UNK        -0.5000 
     79 N          -0.8223  -26.6875  -47.1400 N.am      14 UNK        -0.5000 
     80 CA         -1.5058  -27.4627  -48.1758 C.3       14 UNK         0.1400 
     81 CB         -0.5600  -27.6039  -49.3817 C.3       14 UNK        -0.1800 
     82 C          -2.8427  -26.7949  -48.5681 C.2       14 UNK         0.5000 
     83 O          -3.3185  -26.9893  -49.6875 O.2       14 UNK        -0.5000 
     84 N          -3.4103  -25.9889  -47.6550 N.am      15 UNK        -0.5000 
     85 CA         -4.6475  -25.2030  -47.7735 C.3       15 UNK         0.1400 
     86 CB         -5.8671  -26.1211  -47.9955 C.3       15 UNK        -0.1800 
     87 C          -4.5923  -24.0577  -48.8087 C.2       15 UNK         0.5000 
     88 O          -5.6277  -23.4521  -49.0889 O.2       15 UNK        -0.5000 
     89 N          -3.4008  -23.7780  -49.3606 N.am      16 UNK        -0.5000 
     90 CA         -3.0709  -22.7270  -50.3311 C.3       16 UNK         0.1400 
     91 CB         -3.0956  -21.3471  -49.6399 C.3       16 UNK        -0.1800 
     92 C          -3.9177  -22.7442  -51.6211 C.2       16 UNK         0.5000 
     93 O          -4.0779  -21.6988  -52.2521 O.2       16 UNK        -0.5000 
     94 N          -4.4887  -23.9086  -51.9671 N.am      17 UNK        -0.5000 
     95 CA         -5.4958  -24.1040  -53.0178 C.3       17 UNK         0.1400 
     96 CB         -4.8522  -23.9736  -54.4104 C.3       17 UNK        -0.1800 
     97 C          -6.7116  -23.1704  -52.8189 C.2       17 UNK         0.5000 
     98 O          -7.0746  -22.4099  -53.7200 O.2       17 UNK        -0.5000 
     99 N          -7.2436  -23.1844  -51.5859 N.am      18 UNK        -0.5000 
    100 CA        -8.3114  -22.3284  -51.0500 C.3       18 UNK         0.1400 
    101 CB        -9.6350  -22.5645  -51.8072 C.3       18 UNK        -0.1800 
    102 C         -7.9301  -20.8323  -50.9823 C.2       18 UNK         0.5000 
    103 O         -8.8153  -19.9800  -50.8994 O.2       18 UNK        -0.5000 
    104 N         -6.6208  -20.5446  -51.0507 N.am      19 UNK        -0.5000 
    105 CA        -5.9862  -19.2310  -51.2015 C.3       19 UNK         0.1400 
    106 CB        -6.2393  -18.3425  -49.9667 C.3       19 UNK        -0.1800 
    107 C         -6.3351  -18.5307  -52.5342 C.2       19 UNK         0.5000 
    108 O         -6.1401  -17.3200  -52.6503 O.2       19 UNK        -0.5000 
    109 N         -6.8448  -19.2935  -53.5123 N.am      20 UNK        -0.5000 
    110 CA        -7.2779  -18.7958  -54.8126 C.3       20 UNK         0.1400 
    111 CB        -8.5429  -19.5517  -55.2541 C.3       20 UNK        -0.1800 
    112 C         -6.1498  -18.9342  -55.8424 C.2       20 UNK         0.5000 
    113 O         -5.7225  -17.9292  -56.4117 O.2       20 UNK        -0.5000 
    114 N         -5.6901  -20.1737  -56.0653 N.am      21 UNK        -0.5000 
    115 CA        -4.6466  -20.4815  -57.0470 C.3       21 UNK         0.1400 
    116 CB        -4.8967  -21.8767  -57.6393 C.3       21 UNK        -0.1800 
    117 C         -3.2249  -20.3748  -56.4657 C.2       21 UNK         0.5000 
    118 O         -2.2810  -20.1935  -57.2357 O.2       21 UNK        -0.5000 
    119 N         -3.0923  -20.4876  -55.1357 N.am      22 UNK        -0.5000 
    120 CA        -1.8292  -20.3851  -54.3793 C.3       22 UNK         0.1400 
    121 C         -0.8089  -21.5361  -54.6384 C.2       22 UNK         0.5000 
    122 N         -1.2163  -22.6665  -55.2027 N.am      22 UNK        -0.7600 
    123 O          0.3637  -21.4228  -54.2942 O.2       22 UNK        -0.5000 
    124 C124       -1.1806  -18.9722  -54.4560 C.3       23 UNK        -0.0398 
    125 S125       -2.3066  -17.6249  -53.9451 S.3       23 UNK        -0.2404 
    126 C126       -2.3930  -17.8429  -52.1383 C.3       23 UNK        -0.0205 
    127 H127        6.4093  -16.7852  -48.2202 H         1 UNK         0.0600 
    128 H128        5.7549  -18.3725  -48.6353 H         1 UNK         0.0600 
    129 H129        6.4626  -18.0972  -47.0397 H         1 UNK         0.0600 
    130 H130        4.7013  -15.3530  -47.9885 H         1 UNK         0.3000 
    131 H131        2.0653  -16.2361  -47.1760 H         1 UNK         0.0600 
    132 H132        2.8684  -14.2437  -48.8406 H         1 UNK         0.0800 
    133 H133        2.7536  -13.2832  -47.4106 H         1 UNK         0.0800 
    134 H134       -0.4247  -13.6971  -50.2267 H         1 UNK         0.0800 
    135 H135        1.2919  -13.8691  -50.4229 H         1 UNK         0.0800 
    136 H136       -1.6955  -15.3917  -51.2034 H         1 UNK         0.1150 
    137 H137       -0.2763  -19.4067  -51.4967 H         1 UNK         0.1150 
    138 H138        2.1357  -16.4217  -49.5840 H         1 UNK         0.1150 
    139 H139        3.1146  -18.6362  -50.4508 H         1 UNK         0.0800 
    140 H140        2.2192  -19.1077  -49.0300 H         1 UNK         0.0800 
    141 H141       -0.0454  -21.8992  -50.5267 H         1 UNK         0.0800 
    142 H142        0.0643  -20.6102  -49.3567 H         1 UNK         0.0800 
    143 H143        1.6068  -23.2539  -49.2721 H         1 UNK         0.0600 
    144 H144        1.8602  -20.8624  -47.5659 H         1 UNK         0.3000 
    145 H145        4.1122  -22.3233  -45.3145 H         1 UNK         0.0600 
    146 H146        5.7112  -20.5827  -46.1421 H         1 UNK         0.0600 
    147 H147        4.8561  -20.5313  -47.6844 H         1 UNK         0.0600 
    148 H148        5.6942  -21.9955  -47.1883 H         1 UNK         0.0600 
    149 H149        3.3442  -19.5989  -45.9158 H         1 UNK         0.3000 
    150 H150        0.7554  -19.6228  -43.3853 H         1 UNK         0.0600 
    151 H151        3.0986  -19.1456  -42.6046 H         1 UNK         0.0600 
    152 H152        2.1168  -17.7011  -42.7768 H         1 UNK         0.0600 
    153 H153        3.3236  -18.0908  -43.9968 H         1 UNK         0.0600 
    154 H154        0.6885  -17.4811  -44.6804 H         1 UNK         0.3000 
    155 H155       -0.2495  -16.7860  -47.0168 H         1 UNK         0.0600 
    156 H156       -1.0470  -18.5745  -48.6572 H         1 UNK         0.0600 
    157 H157       -2.2820  -17.3918  -48.2896 H         1 UNK         0.0600 
    158 H158       -2.3330  -18.9882  -47.5402 H         1 UNK         0.0600 
    159 H159       -1.6882  -17.9295  -44.7802 H         1 UNK         0.3000 
    160 H160       -3.8350  -15.1303  -44.2997 H         1 UNK         0.0600 
    161 H161       -4.2879  -18.1580  -44.4089 H         1 UNK         0.0600 
    162 H162       -5.1739  -16.9442  -45.3174 H         1 UNK         0.0600 
    163 H163       -5.3020  -16.9879  -43.5659 H         1 UNK         0.0600 
    164 H164       -2.7146  -15.4116  -42.4672 H         1 UNK         0.3000 
    165 H165       -2.3077  -17.1339  -40.3585 H         1 UNK         0.0600 
    166 H166       -0.0733  -18.0177  -39.6838 H         1 UNK         0.0600 
    167 H167       -0.9442  -19.1835  -40.6671 H         1 UNK         0.0600 
    168 H168        0.3623  -18.2420  -41.3741 H         1 UNK         0.0600 
    169 H169       -0.2105  -15.6024  -41.8313 H         1 UNK         0.3000 
    170 H170       -1.1368  -12.6708  -40.1726 H         1 UNK         0.0600 
    171 H171        0.7119  -13.3889  -38.6685 H         1 UNK         0.0600 
    172 H172        1.6066  -14.0306  -40.0410 H         1 UNK         0.0600 
    173 H173        1.3082  -12.2973  -39.9095 H         1 UNK         0.0600 
    174 H174        0.7628  -13.1127  -42.2262 H         1 UNK         0.3000 
    175 H175       -0.6816  -13.9206  -44.7797 H         1 UNK         0.0600 
    176 H176       -2.7377  -12.6599  -45.1985 H         1 UNK         0.0600 
    177 H177       -1.9672  -11.1434  -44.7570 H         1 UNK         0.0600 
    178 H178       -1.4542  -12.0147  -46.2038 H         1 UNK         0.0600 
    179 H179        1.2904  -13.0113  -44.8199 H         1 UNK         0.3000 
    180 H180        2.6602  -10.4091  -45.2595 H         1 UNK         0.0600 
    181 H181        2.9145  -10.2168  -42.2112 H         1 UNK         0.0600 
    182 H182        2.5676   -8.8973  -43.3195 H         1 UNK         0.0600 
    183 H183        4.1373   -9.6805  -43.3626 H         1 UNK         0.0600 
    184 H184        3.8933  -12.2444  -45.1263 H         1 UNK         0.3000 
    185 H185        5.3213  -13.9552  -43.6192 H         1 UNK         0.0600 
    186 H186        4.4569  -15.0626  -41.6179 H         1 UNK         0.0600 
    187 H187        3.0486  -15.6557  -42.4795 H         1 UNK         0.0600 
    188 H188        4.6555  -16.2772  -42.8715 H         1 UNK         0.0600 
    189 H189        4.8101  -14.7789  -45.6138 H         1 UNK         0.3000 
    190 H190       -0.0874  -21.4986  -46.7088 H         1 UNK         0.3000 
    191 H191       -2.5577  -22.7877  -46.6995 H         1 UNK         0.0600 
    192 H192       -2.1055  -20.6893  -45.4915 H         1 UNK         0.0600 
    193 H193       -2.7293  -21.8835  -44.3681 H         1 UNK         0.0600 
    194 H194       -1.0100  -21.5147  -44.3847 H         1 UNK         0.0600 
    195 H195        0.4736  -24.0682  -45.5860 H         1 UNK         0.3000 
    196 H196       -0.4179  -26.2061  -43.9296 H         1 UNK         0.0600 
    197 H197        1.8089  -27.1873  -44.5149 H         1 UNK         0.0600 
    198 H198        1.9571  -25.4867  -44.0984 H         1 UNK         0.0600 
    199 H199        2.0147  -25.9889  -45.7877 H         1 UNK         0.0600 
    200 H200       -0.5906  -25.7345  -47.4062 H         1 UNK         0.3000 
    201 H201       -1.7478  -28.4625  -47.8108 H         1 UNK         0.0600 
    202 H202        0.3813  -28.0699  -49.0901 H         1 UNK         0.0600 
    203 H203       -0.3301  -26.6344  -49.8257 H         1 UNK         0.0600 
    204 H204       -1.0013  -28.2280  -50.1596 H         1 UNK         0.0600 
    205 H205       -2.9368  -25.8856  -46.7644 H         1 UNK         0.3000 
    206 H206       -4.7804  -24.7160  -46.8067 H         1 UNK         0.0600 
    207 H207       -5.9036  -26.9151  -47.2496 H         1 UNK         0.0600 
    208 H208       -6.7993  -25.5608  -47.9144 H         1 UNK         0.0600 
    209 H209       -5.8537  -26.5862  -48.9814 H         1 UNK         0.0600 
    210 H210       -2.6066  -24.3287  -49.0552 H         1 UNK         0.3000 
    211 H211       -2.0509  -22.9299  -50.6535 H         1 UNK         0.0600 
    212 H212       -4.1076  -21.0572  -49.3560 H         1 UNK         0.0600 
    213 H213       -2.6997  -20.5703  -50.2930 H         1 UNK         0.0600 
    214 H214       -2.4870  -21.3398  -48.7377 H         1 UNK         0.0600 
    215 H215       -4.2955  -24.7127  -51.3856 H         1 UNK         0.3000 
    216 H216       -5.8670  -25.1247  -52.9165 H         1 UNK         0.0600 
    217 H217       -5.5767  -24.1981  -55.1938 H         1 UNK         0.0600 
    218 H218       -4.0208  -24.6686  -54.5267 H         1 UNK         0.0600 
    219 H219       -4.4740  -22.9674  -54.5844 H         1 UNK         0.0600 
    220 H220       -6.7871  -23.7588  -50.8865 H         1 UNK         0.3000 
    221 H221       -8.4596  -22.6460  -50.0169 H         1 UNK         0.0600 
    222 H222       -9.5910  -22.1868  -52.8292 H         1 UNK         0.0600 
    223 H223       -9.8810  -23.6253  -51.8509 H         1 UNK         0.0600 
    224 H224      -10.4652  -22.0611  -51.3106 H         1 UNK         0.0600 
    225 H225       -5.9862  -21.3263  -51.1461 H         1 UNK         0.3000 
    226 H226       -4.9144  -19.4200  -51.2425 H         1 UNK         0.0600 
    227 H227       -5.9771  -18.8642  -49.0462 H         1 UNK         0.0600 
    228 H228       -5.6336  -17.4364  -50.0068 H         1 UNK         0.0600 
    229 H229       -7.2824  -18.0342  -49.8946 H         1 UNK         0.0600 
    230 H230       -6.9479  -20.2888  -53.3521 H         1 UNK         0.3000 
    231 H231       -7.5384  -17.7376  -54.7387 H         1 UNK         0.0600 
    232 H232       -8.3761  -20.6265  -55.3311 H         1 UNK         0.0600 
    233 H233       -8.8857  -19.2017  -56.2285 H         1 UNK         0.0600 
    234 H234       -9.3577  -19.3943  -54.5471 H         1 UNK         0.0600 
    235 H235       -6.0948  -20.9493  -55.5579 H         1 UNK         0.3000 
    236 H236       -4.7087  -19.7679  -57.8716 H         1 UNK         0.0600 
    237 H237       -5.8835  -21.9381  -58.0985 H         1 UNK         0.0600 
    238 H238       -4.1646  -22.1067  -58.4145 H         1 UNK         0.0600 
    239 H239       -4.8289  -22.6592  -56.8870 H         1 UNK         0.0600 
    240 H240       -3.9183  -20.6414  -54.5751 H         1 UNK         0.3000 
    241 H241       -2.1057  -20.5396  -53.3394 H         1 UNK         0.0600 
    242 H242       -0.5520  -23.4078  -55.3596 H         1 UNK         0.3800 
    243 H243       -2.1734  -22.7788  -55.4920 H         1 UNK         0.3800 
    244 H244       -0.8517  -18.7658  -55.4750 H         1 UNK         0.0800 
    245 H245       -0.2785  -18.9191  -53.8472 H         1 UNK         0.0800 
    246 H246       -3.2188  -17.2387  -51.7592 H         1 UNK         0.0800 
    247 H247       -2.6505  -18.8736  -51.9010 H         1 UNK         0.0800 
@<TRIPOS>BOND
     1    1    2 1    
     2    1  127 1    
     3    1  128 1    
     4    1  129 1    
     5    2    3 2    
     6    2    4 am   BACKBONE|DICT|INTERRES
     7    4    5 1    
     8    4  130 1    
     9    5    6 1    
    10    5   65 1    
    11    5  131 1    
    12    6    7 1    
    13    6  132 1    
    14    6  133 1    
    15    7    8 1    
    16    8    9 1    
    17    8  134 1    
    18    8  135 1    
    19    9   10 ar   
    20    9   14 ar   
    21   10   11 ar   
    22   10  136 1    
    23   11   12 ar   
    24   11  126 1    
    25   12   13 ar   
    26   12  137 1    
    27   13   14 ar   
    28   13   15 1    
    29   14  138 1    
    30   15   16 1    
    31   15  139 1    
    32   15  140 1    
    33   16   17 1    
    34   17   18 1    
    35   17  141 1    
    36   17  142 1    
    37   18   19 1    
    38   18   67 1    
    39   18  143 1    
    40   19   20 am   BACKBONE|DICT|INTERRES
    41   19  144 1    
    42   20   21 2    
    43   20   22 1    
    44   22   23 1    
    45   22   24 1    
    46   22  145 1    
    47   23  146 1    
    48   23  147 1    
    49   23  148 1    
    50   24   25 am   BACKBONE|DICT|INTERRES
    51   24  149 1    
    52   25   26 2    
    53   25   27 1    
    54   27   28 1    
    55   27   29 1    
    56   27  150 1    
    57   28  151 1    
    58   28  152 1    
    59   28  153 1    
    60   29   30 am   BACKBONE|DICT|INTERRES
    61   29  154 1    
    62   30   31 2    
    63   30   32 1    
    64   32   33 1    
    65   32   34 1    
    66   32  155 1    
    67   33  156 1    
    68   33  157 1    
    69   33  158 1    
    70   34   35 am   BACKBONE|DICT|INTERRES
    71   34  159 1    
    72   35   36 2    
    73   35   37 1    
    74   37   38 1    
    75   37   39 1    
    76   37  160 1    
    77   38  161 1    
    78   38  162 1    
    79   38  163 1    
    80   39   40 am   BACKBONE|DICT|INTERRES
    81   39  164 1    
    82   40   41 2    
    83   40   42 1    
    84   42   43 1    
    85   42   44 1    
    86   42  165 1    
    87   43  166 1    
    88   43  167 1    
    89   43  168 1    
    90   44   45 am   BACKBONE|DICT|INTERRES
    91   44  169 1    
    92   45   46 2    
    93   45   47 1    
    94   47   48 1    
    95   47   49 1    
    96   47  170 1    
    97   48  171 1    
    98   48  172 1    
    99   48  173 1    
   100   49   50 am   BACKBONE|DICT|INTERRES
   101   49  174 1    
   102   50   51 2    
   103   50   52 1    
   104   52   53 1    
   105   52   54 1    
   106   52  175 1    
   107   53  176 1    
   108   53  177 1    
   109   53  178 1    
   110   54   55 am   BACKBONE|DICT|INTERRES
   111   54  179 1    
   112   55   56 2    
   113   55   57 1    
   114   57   58 1    
   115   57   59 1    
   116   57  180 1    
   117   58  181 1    
   118   58  182 1    
   119   58  183 1    
   120   59   60 am   BACKBONE|DICT|INTERRES
   121   59  184 1    
   122   60   61 2    
   123   60   62 1    
   124   62   63 1    
   125   62   64 1    
   126   62  185 1    
   127   63  186 1    
   128   63  187 1    
   129   63  188 1    
   130   64   65 am   BACKBONE|DICT|INTERRES
   131   64  189 1    
   132   65   66 2    
   133   67   68 2    
   134   67   69 am   BACKBONE|DICT|INTERRES
   135   69   70 1    
   136   69  190 1    
   137   70   71 1    
   138   70   72 1    
   139   70  191 1    
   140   71  192 1    
   141   71  193 1    
   142   71  194 1    
   143   72   73 2    
   144   72   74 am   BACKBONE|DICT|INTERRES
   145   74   75 1    
   146   74  195 1    
   147   75   76 1    
   148   75   77 1    
   149   75  196 1    
   150   76  197 1    
   151   76  198 1    
   152   76  199 1    
   153   77   78 2    
   154   77   79 am   BACKBONE|DICT|INTERRES
   155   79   80 1    
   156   79  200 1    
   157   80   81 1    
   158   80   82 1    
   159   80  201 1    
   160   81  202 1    
   161   81  203 1    
   162   81  204 1    
   163   82   83 2    
   164   82   84 am   BACKBONE|DICT|INTERRES
   165   84   85 1    
   166   84  205 1    
   167   85   86 1    
   168   85   87 1    
   169   85  206 1    
   170   86  207 1    
   171   86  208 1    
   172   86  209 1    
   173   87   88 2    
   174   87   89 am   BACKBONE|DICT|INTERRES
   175   89   90 1    
   176   89  210 1    
   177   90   91 1    
   178   90   92 1    
   179   90  211 1    
   180   91  212 1    
   181   91  213 1    
   182   91  214 1    
   183   92   93 2    
   184   92   94 am   BACKBONE|DICT|INTERRES
   185   94   95 1    
   186   94  215 1    
   187   95   96 1    
   188   95   97 1    
   189   95  216 1    
   190   96  217 1    
   191   96  218 1    
   192   96  219 1    
   193   97   98 2    
   194   97   99 am   BACKBONE|DICT|INTERRES
   195   99  100 1    
   196   99  220 1    
   197  100  101 1    
   198  100  102 1    
   199  100  221 1    
   200  101  222 1    
   201  101  223 1    
   202  101  224 1    
   203  102  103 2    
   204  102  104 am   BACKBONE|DICT|INTERRES
   205  104  105 1    
   206  104  225 1    
   207  105  106 1    
   208  105  107 1    
   209  105  226 1    
   210  106  227 1    
   211  106  228 1    
   212  106  229 1    
   213  107  108 2    
   214  107  109 am   BACKBONE|DICT|INTERRES
   215  109  110 1    
   216  109  230 1    
   217  110  111 1    
   218  110  112 1    
   219  110  231 1    
   220  111  232 1    
   221  111  233 1    
   222  111  234 1    
   223  112  113 2    
   224  112  114 am   BACKBONE|DICT|INTERRES
   225  114  115 1    
   226  114  235 1    
   227  115  116 1    
   228  115  117 1    
   229  115  236 1    
   230  116  237 1    
   231  116  238 1    
   232  116  239 1    
   233  117  118 2    
   234  117  119 am   BACKBONE|DICT|INTERRES
   235  119  120 1    
   236  119  240 1    
   237  120  121 1    
   238  120  124 1    
   239  120  241 1    
   240  121  122 am   BACKBONE|DICT|INTERRES
   241  121  123 2    
   242  122  242 1    
   243  122  243 1    
   244  124  125 1    
   245  124  244 1    
   246  124  245 1    
   247  125  126 1    
   248  126  246 1    
   249  126  247 1    
@<TRIPOS>SUBSTRUCTURE
     1 UNK         1 GROUP             0       ****    0 ROOT    
