@<TRIPOS>MOLECULE
3R540
247   249    1
SMALL
USER_CHARGES


@<TRIPOS>ATOM
      1 CA          3.1704  -12.2747  -47.2948 C.3       0 UNK        -0.1800 
      2 C           2.2557  -13.4206  -46.8890 C.2       0 UNK         0.5000 
      3 O           1.8092  -13.4748  -45.7440 O.2       0 UNK        -0.5000 
      4 N           1.9594  -14.3311  -47.8234 N.am      1 UNK        -0.5000 
      5 CA          1.1233  -15.5264  -47.6477 C.3       1 UNK         0.1400 
      6 C6          1.5187  -16.6419  -48.6525 C.3       23 UNK        -0.0398 
      7 S7          1.5092  -16.1301  -50.4104 S.3       23 UNK        -0.2404 
      8 C8          2.9510  -17.0272  -51.0757 C.3       23 UNK        -0.0205 
      9 C9          2.5768  -18.3334  -51.7696 C.ar      23 UNK        -0.0193 
     10 C10         2.8350  -18.4912  -53.1354 C.ar      23 UNK        -0.1150 
     11 C11         2.5748  -19.7039  -53.7804 C.ar      23 UNK        -0.0193 
     12 C12         2.0315  -20.7626  -53.0451 C.ar      23 UNK        -0.1150 
     13 C13         1.7438  -20.6163  -51.6848 C.ar      23 UNK        -0.0193 
     14 C14         2.0280  -19.4013  -51.0506 C.ar      23 UNK        -0.1150 
     15 C15         1.1221  -21.7713  -50.9110 C.3       23 UNK        -0.0205 
     16 S16         2.2677  -22.4594  -49.6742 S.3       23 UNK        -0.2404 
     17 C17         1.3630  -23.9531  -49.1126 C.3       23 UNK        -0.0398 
     18 CA          0.7518  -23.8662  -47.6807 C.3       11 UNK         0.1400 
     19 N           1.6818  -23.3813  -46.6521 N.am      11 UNK        -0.5000 
     20 C           2.8032  -24.0320  -46.3040 C.2       10 UNK         0.5000 
     21 O           3.1131  -25.1356  -46.7555 O.2       10 UNK        -0.5000 
     22 CA          3.7620  -23.3557  -45.3026 C.3       10 UNK         0.1400 
     23 CB          4.8387  -22.5607  -46.0574 C.3       10 UNK        -0.1800 
     24 N           3.1040  -22.4635  -44.3531 N.am      10 UNK        -0.5000 
     25 C           2.2866  -22.8487  -43.3642 C.2       9 UNK         0.5000 
     26 O           2.0401  -24.0265  -43.1031 O.2       9 UNK        -0.5000 
     27 CA          1.6194  -21.7313  -42.5315 C.3       9 UNK         0.1400 
     28 CB          2.3136  -21.5878  -41.1687 C.3       9 UNK        -0.1800 
     29 N           1.5840  -20.4139  -43.1773 N.am      9 UNK        -0.5000 
     30 C           1.0277  -20.1406  -44.3652 C.2       8 UNK         0.5000 
     31 O           0.5132  -20.9972  -45.0837 O.2       8 UNK        -0.5000 
     32 CA          1.0719  -18.6866  -44.8579 C.3       8 UNK         0.1400 
     33 CB         -0.3161  -18.0419  -44.7536 C.3       8 UNK        -0.1800 
     34 N           2.0490  -17.8600  -44.1505 N.am      8 UNK        -0.5000 
     35 C           3.3674  -17.8785  -44.3968 C.2       7 UNK         0.5000 
     36 O           3.8880  -18.6249  -45.2260 O.2       7 UNK        -0.5000 
     37 CA          4.2563  -16.9027  -43.6005 C.3       7 UNK         0.1400 
     38 CB          4.6459  -15.7039  -44.4786 C.3       7 UNK        -0.1800 
     39 N           3.6207  -16.4034  -42.3804 N.am      7 UNK        -0.5000 
     40 C           3.4705  -17.1107  -41.2522 C.2       6 UNK         0.5000 
     41 O           3.8842  -18.2608  -41.1053 O.2       6 UNK        -0.5000 
     42 CA          2.6819  -16.4280  -40.1162 C.3       6 UNK         0.1400 
     43 CB          3.6218  -15.5990  -39.2280 C.3       6 UNK        -0.1800 
     44 N           1.5906  -15.5731  -40.6004 N.am      6 UNK        -0.5000 
     45 C           0.5367  -16.0225  -41.2943 C.2       5 UNK         0.5000 
     46 O           0.3924  -17.2060  -41.6071 O.2       5 UNK        -0.5000 
     47 CA         -0.4838  -14.9697  -41.7672 C.3       5 UNK         0.1400 
     48 CB          0.0143  -14.2884  -43.0500 C.3       5 UNK        -0.1800 
     49 N          -1.7970  -15.5653  -42.0233 N.am      5 UNK        -0.5000 
     50 C          -2.6258  -15.9942  -41.0600 C.2       4 UNK         0.5000 
     51 O          -2.4000  -15.8293  -39.8590 O.2       4 UNK        -0.5000 
     52 CA         -3.9013  -16.7525  -41.4948 C.3       4 UNK         0.1400 
     53 CB         -5.0617  -16.5965  -40.4887 C.3       4 UNK        -0.1800 
     54 N          -4.3526  -16.4573  -42.8594 N.am      4 UNK        -0.5000 
     55 C          -4.7870  -15.2841  -43.3409 C.2       3 UNK         0.5000 
     56 O          -4.8698  -14.2445  -42.6837 O.2       3 UNK        -0.5000 
     57 CA         -5.1725  -15.2780  -44.8346 C.3       3 UNK         0.1400 
     58 CB         -6.5992  -14.7393  -45.0322 C.3       3 UNK        -0.1800 
     59 N          -4.2467  -14.4973  -45.6587 N.am      3 UNK        -0.5000 
     60 C          -2.9182  -14.6632  -45.7108 C.2       2 UNK         0.5000 
     61 O          -2.3094  -15.4972  -45.0375 O.2       2 UNK        -0.5000 
     62 CA         -2.1539  -13.7228  -46.6639 C.3       2 UNK         0.1400 
     63 CB         -2.1247  -12.2874  -46.1140 C.3       2 UNK        -0.1800 
     64 N          -0.7760  -14.1576  -46.8885 N.am      2 UNK        -0.5000 
     65 C          -0.3970  -15.2137  -47.6186 C.2       1 UNK         0.5000 
     66 O          -1.1926  -15.9175  -48.2419 O.2       1 UNK        -0.5000 
     67 C          -0.5563  -23.0605  -47.6895 C.2       11 UNK         0.5000 
     68 O          -1.6399  -23.6433  -47.6387 O.2       11 UNK        -0.5000 
     69 N          -0.4391  -21.7310  -47.7723 N.am      12 UNK        -0.5000 
     70 CA         -1.5389  -20.7863  -47.9748 C.3       12 UNK         0.1400 
     71 CB         -0.9471  -19.3981  -48.1985 C.3       12 UNK        -0.1800 
     72 C          -2.6100  -20.7610  -46.8725 C.2       12 UNK         0.5000 
     73 O          -3.7482  -20.3916  -47.1573 O.2       12 UNK        -0.5000 
     74 N          -2.2509  -21.1846  -45.6561 N.am      13 UNK        -0.5000 
     75 CA         -3.1748  -21.3885  -44.5406 C.3       13 UNK         0.1400 
     76 CB         -2.3680  -21.6916  -43.2694 C.3       13 UNK        -0.1800 
     77 C          -4.2105  -22.4994  -44.8144 C.2       13 UNK         0.5000 
     78 O          -5.3320  -22.4133  -44.3134 O.2       13 UNK        -0.5000 
     79 N          -3.8282  -23.4997  -45.6211 N.am      14 UNK        -0.5000 
     80 CA         -4.7132  -24.5509  -46.1193 C.3       14 UNK         0.1400 
     81 CB         -3.9454  -25.8812  -46.1681 C.3       14 UNK        -0.1800 
     82 C          -5.2646  -24.1931  -47.5105 C.2       14 UNK         0.5000 
     83 O          -6.4472  -24.4147  -47.7689 O.2       14 UNK        -0.5000 
     84 N          -4.4101  -23.6289  -48.3768 N.am      15 UNK        -0.5000 
     85 CA         -4.7066  -23.2981  -49.7745 C.3       15 UNK         0.1400 
     86 CB         -3.4138  -23.4027  -50.6036 C.3       15 UNK        -0.1800 
     87 C          -5.4260  -21.9453  -49.9818 C.2       15 UNK         0.5000 
     88 O          -5.3459  -21.3867  -51.0774 O.2       15 UNK        -0.5000 
     89 N          -6.1249  -21.4542  -48.9484 N.am      16 UNK        -0.5000 
     90 CA         -7.0334  -20.3016  -48.9454 C.3       16 UNK         0.1400 
     91 CB         -8.2904  -20.6230  -49.7817 C.3       16 UNK        -0.1800 
     92 C          -6.3590  -18.9824  -49.3732 C.2       16 UNK         0.5000 
     93 O          -6.7714  -18.3656  -50.3553 O.2       16 UNK        -0.5000 
     94 N          -5.3043  -18.5909  -48.6443 N.am      17 UNK        -0.5000 
     95 CA         -4.4557  -17.4156  -48.8959 C.3       17 UNK         0.1400 
     96 CB         -5.2516  -16.1037  -48.7386 C.3       17 UNK        -0.1800 
     97 C          -3.7142  -17.5213  -50.2463 C.2       17 UNK         0.5000 
     98 O          -3.5605  -16.5293  -50.9598 O.2       17 UNK        -0.5000 
     99 N          -3.3119  -18.7595  -50.5689 N.am      18 UNK        -0.5000 
    100 CA        -2.6401  -19.2194  -51.7862 C.3       18 UNK         0.1400 
    101 CB        -1.3313  -18.4460  -52.0493 C.3       18 UNK        -0.1800 
    102 C         -3.5370  -19.2420  -53.0377 C.2       18 UNK         0.5000 
    103 O         -3.0321  -19.5773  -54.1094 O.2       18 UNK        -0.5000 
    104 N         -4.8380  -18.9401  -52.9140 N.am      19 UNK        -0.5000 
    105 CA        -5.7924  -18.9061  -54.0266 C.3       19 UNK         0.1400 
    106 CB        -7.1420  -18.3651  -53.5347 C.3       19 UNK        -0.1800 
    107 C         -5.9848  -20.2661  -54.7236 C.2       19 UNK         0.5000 
    108 O         -6.2068  -20.2949  -55.9344 O.2       19 UNK        -0.5000 
    109 N         -5.8723  -21.3621  -53.9615 N.am      20 UNK        -0.5000 
    110 CA        -5.9463  -22.7283  -54.4810 C.3       20 UNK         0.1400 
    111 CB        -6.5333  -23.6416  -53.3935 C.3       20 UNK        -0.1800 
    112 C         -4.5805  -23.2634  -54.9581 C.2       20 UNK         0.5000 
    113 O         -4.5502  -24.2925  -55.6344 O.2       20 UNK        -0.5000 
    114 N         -3.4831  -22.5878  -54.5889 N.am      21 UNK        -0.5000 
    115 CA        -2.1138  -22.9984  -54.8974 C.3       21 UNK         0.1400 
    116 CB        -1.2168  -22.7717  -53.6678 C.3       21 UNK        -0.1800 
    117 C         -1.5621  -22.2513  -56.1206 C.2       21 UNK         0.5000 
    118 O         -1.1782  -22.8920  -57.1002 O.2       21 UNK        -0.5000 
    119 N         -1.5186  -20.9179  -56.0283 N.am      22 UNK        -0.5000 
    120 CA        -0.8981  -20.0099  -57.0065 C.3       22 UNK         0.1400 
    121 C         -1.8335  -18.8516  -57.4528 C.2       22 UNK         0.5000 
    122 N         -2.9165  -18.5511  -56.7477 N.am      22 UNK        -0.7600 
    123 O         -1.5792  -18.2204  -58.4751 O.2       22 UNK        -0.5000 
    124 C124        0.4522  -19.4477  -56.4852 C.3       23 UNK        -0.0398 
    125 S125        1.7123  -20.7464  -56.2548 S.3       23 UNK        -0.2404 
    126 C126        2.9593  -19.8767  -55.2481 C.3       23 UNK        -0.0205 
    127 H127        3.4809  -12.3534  -48.3370 H         1 UNK         0.0600 
    128 H128        4.0649  -12.2724  -46.6720 H         1 UNK         0.0600 
    129 H129        2.6584  -11.3217  -47.1624 H         1 UNK         0.0600 
    130 H130        2.3205  -14.2088  -48.7593 H         1 UNK         0.3000 
    131 H131        1.3428  -15.9253  -46.6549 H         1 UNK         0.0600 
    132 H132        2.5148  -16.9982  -48.3890 H         1 UNK         0.0800 
    133 H133        0.8726  -17.5067  -48.5452 H         1 UNK         0.0800 
    134 H134        3.6818  -17.2304  -50.2927 H         1 UNK         0.0800 
    135 H135        3.4551  -16.3622  -51.7785 H         1 UNK         0.0800 
    136 H136        3.2739  -17.6758  -53.6931 H         1 UNK         0.1150 
    137 H137        1.8407  -21.7069  -53.5339 H         1 UNK         0.1150 
    138 H138        1.8330  -19.2921  -49.9942 H         1 UNK         0.1150 
    139 H139        0.2075  -21.4286  -50.4290 H         1 UNK         0.0800 
    140 H140        0.8277  -22.5674  -51.5955 H         1 UNK         0.0800 
    141 H141        2.0722  -24.7803  -49.1487 H         1 UNK         0.0800 
    142 H142        0.5968  -24.2196  -49.8432 H         1 UNK         0.0800 
    143 H143        0.4667  -24.8793  -47.3887 H         1 UNK         0.0600 
    144 H144        1.4355  -22.5174  -46.1809 H         1 UNK         0.3000 
    145 H145        4.2570  -24.1465  -44.7352 H         1 UNK         0.0600 
    146 H146        5.5764  -22.1437  -45.3715 H         1 UNK         0.0600 
    147 H147        5.3746  -23.1983  -46.7618 H         1 UNK         0.0600 
    148 H148        4.4048  -21.7366  -46.6258 H         1 UNK         0.0600 
    149 H149        3.2457  -21.4733  -44.4910 H         1 UNK         0.3000 
    150 H150        0.5862  -22.0370  -42.3581 H         1 UNK         0.0600 
    151 H151        2.3334  -22.5388  -40.6349 H         1 UNK         0.0600 
    152 H152        1.7926  -20.8706  -40.5338 H         1 UNK         0.0600 
    153 H153        3.3449  -21.2495  -41.2784 H         1 UNK         0.0600 
    154 H154        1.9888  -19.6483  -42.6569 H         1 UNK         0.3000 
    155 H155        1.3568  -18.7122  -45.9106 H         1 UNK         0.0600 
    156 H156       -1.0584  -18.5827  -45.3381 H         1 UNK         0.0600 
    157 H157       -0.2918  -17.0216  -45.1289 H         1 UNK         0.0600 
    158 H158       -0.6852  -18.0185  -43.7298 H         1 UNK         0.0600 
    159 H159        1.6912  -17.2781  -43.4043 H         1 UNK         0.3000 
    160 H160        5.1682  -17.4375  -43.3265 H         1 UNK         0.0600 
    161 H161        5.3369  -15.0407  -43.9580 H         1 UNK         0.0600 
    162 H162        5.1392  -16.0311  -45.3949 H         1 UNK         0.0600 
    163 H163        3.7725  -15.1191  -44.7673 H         1 UNK         0.0600 
    164 H164        3.2494  -15.4653  -42.4130 H         1 UNK         0.3000 
    165 H165        2.2411  -17.2171  -39.5032 H         1 UNK         0.0600 
    166 H166        3.0905  -15.1826  -38.3720 H         1 UNK         0.0600 
    167 H167        4.4328  -16.2147  -38.8367 H         1 UNK         0.0600 
    168 H168        4.0731  -14.7727  -39.7786 H         1 UNK         0.0600 
    169 H169        1.6563  -14.5890  -40.3827 H         1 UNK         0.3000 
    170 H170       -0.5909  -14.2117  -40.9885 H         1 UNK         0.0600 
    171 H171        0.9674  -13.7838  -42.8877 H         1 UNK         0.0600 
    172 H172        0.1586  -15.0039  -43.8600 H         1 UNK         0.0600 
    173 H173       -0.6940  -13.5354  -43.3929 H         1 UNK         0.0600 
    174 H174       -2.0382  -15.7298  -42.9951 H         1 UNK         0.3000 
    175 H175       -3.6207  -17.8067  -41.5007 H         1 UNK         0.0600 
    176 H176       -5.9408  -17.1550  -40.8102 H         1 UNK         0.0600 
    177 H177       -4.7824  -16.9755  -39.5050 H         1 UNK         0.0600 
    178 H178       -5.3531  -15.5532  -40.3647 H         1 UNK         0.0600 
    179 H179       -4.2793  -17.2295  -43.5065 H         1 UNK         0.3000 
    180 H180       -5.1496  -16.3044  -45.2068 H         1 UNK         0.0600 
    181 H181       -6.6810  -13.6950  -44.7280 H         1 UNK         0.0600 
    182 H182       -7.3162  -15.3099  -44.4404 H         1 UNK         0.0600 
    183 H183       -6.9123  -14.8088  -46.0737 H         1 UNK         0.0600 
    184 H184       -4.6636  -13.7635  -46.2118 H         1 UNK         0.3000 
    185 H185       -2.6729  -13.7199  -47.6245 H         1 UNK         0.0600 
    186 H186       -3.1323  -11.8964  -45.9684 H         1 UNK         0.0600 
    187 H187       -1.6106  -12.2332  -45.1543 H         1 UNK         0.0600 
    188 H188       -1.6151  -11.6134  -46.8030 H         1 UNK         0.0600 
    189 H189       -0.0543  -13.6812  -46.3579 H         1 UNK         0.3000 
    190 H190        0.4909  -21.3389  -47.7850 H         1 UNK         0.3000 
    191 H191       -2.0542  -21.0710  -48.8910 H         1 UNK         0.0600 
    192 H192       -0.2469  -19.1396  -47.4109 H         1 UNK         0.0600 
    193 H193       -1.7123  -18.6246  -48.2219 H         1 UNK         0.0600 
    194 H194       -0.4130  -19.3597  -49.1451 H         1 UNK         0.0600 
    195 H195       -1.2700  -21.3952  -45.4911 H         1 UNK         0.3000 
    196 H196       -3.7238  -20.4577  -44.3839 H         1 UNK         0.0600 
    197 H197       -3.0273  -21.8586  -42.4167 H         1 UNK         0.0600 
    198 H198       -1.7119  -20.8596  -43.0132 H         1 UNK         0.0600 
    199 H199       -1.7505  -22.5827  -43.3893 H         1 UNK         0.0600 
    200 H200       -2.8972  -23.4734  -46.0204 H         1 UNK         0.3000 
    201 H201       -5.5612  -24.6794  -45.4433 H         1 UNK         0.0600 
    202 H202       -3.5849  -26.1626  -45.1786 H         1 UNK         0.0600 
    203 H203       -3.0842  -25.8305  -46.8353 H         1 UNK         0.0600 
    204 H204       -4.5875  -26.6888  -46.5220 H         1 UNK         0.0600 
    205 H205       -3.4416  -23.5202  -48.0888 H         1 UNK         0.3000 
    206 H206       -5.3896  -24.0583  -50.1582 H         1 UNK         0.0600 
    207 H207       -2.9433  -24.3779  -50.4775 H         1 UNK         0.0600 
    208 H208       -3.6198  -23.2831  -51.6672 H         1 UNK         0.0600 
    209 H209       -2.6847  -22.6445  -50.3266 H         1 UNK         0.0600 
    210 H210       -6.0871  -21.9783  -48.0861 H         1 UNK         0.3000 
    211 H211       -7.3534  -20.1616  -47.9119 H         1 UNK         0.0600 
    212 H212       -8.0500  -20.7734  -50.8349 H         1 UNK         0.0600 
    213 H213       -9.0163  -19.8111  -49.7248 H         1 UNK         0.0600 
    214 H214       -8.7838  -21.5251  -49.4198 H         1 UNK         0.0600 
    215 H215       -4.9726  -19.2164  -47.9119 H         1 UNK         0.3000 
    216 H216       -3.6902  -17.4192  -48.1193 H         1 UNK         0.0600 
    217 H217       -4.5833  -15.2422  -48.7535 H         1 UNK         0.0600 
    218 H218       -5.7897  -16.0835  -47.7923 H         1 UNK         0.0600 
    219 H219       -5.9775  -15.9667  -49.5404 H         1 UNK         0.0600 
    220 H220       -3.5851  -19.4928  -49.9312 H         1 UNK         0.3000 
    221 H221       -2.3715  -20.2586  -51.5926 H         1 UNK         0.0600 
    222 H222       -1.5228  -17.4368  -52.4145 H         1 UNK         0.0600 
    223 H223       -0.7247  -18.3581  -51.1504 H         1 UNK         0.0600 
    224 H224       -0.7229  -18.9502  -52.8014 H         1 UNK         0.0600 
    225 H225       -5.2073  -18.7247  -51.9963 H         1 UNK         0.3000 
    226 H226       -5.4007  -18.2089  -54.7698 H         1 UNK         0.0600 
    227 H227       -7.8412  -18.2485  -54.3635 H         1 UNK         0.0600 
    228 H228       -7.6027  -19.0382  -52.8107 H         1 UNK         0.0600 
    229 H229       -7.0297  -17.3888  -53.0629 H         1 UNK         0.0600 
    230 H230       -5.6953  -21.2573  -52.9646 H         1 UNK         0.3000 
    231 H231       -6.6248  -22.7547  -55.3363 H         1 UNK         0.0600 
    232 H232       -7.4934  -23.2676  -53.0373 H         1 UNK         0.0600 
    233 H233       -5.8668  -23.7256  -52.5369 H         1 UNK         0.0600 
    234 H234       -6.6983  -24.6490  -53.7776 H         1 UNK         0.0600 
    235 H235       -3.6000  -21.7052  -54.1111 H         1 UNK         0.3000 
    236 H236       -2.0851  -24.0665  -55.1236 H         1 UNK         0.0600 
    237 H237       -0.1809  -23.0240  -53.8969 H         1 UNK         0.0600 
    238 H238       -1.2340  -21.7357  -53.3286 H         1 UNK         0.0600 
    239 H239       -1.5220  -23.4045  -52.8357 H         1 UNK         0.0600 
    240 H240       -1.9201  -20.4688  -55.2101 H         1 UNK         0.3000 
    241 H241       -0.6911  -20.5646  -57.9235 H         1 UNK         0.0600 
    242 H242       -3.1015  -19.0099  -55.8616 H         1 UNK         0.3800 
    243 H243       -3.5163  -17.8061  -57.0628 H         1 UNK         0.3800 
    244 H244        0.8629  -18.7152  -57.1826 H         1 UNK         0.0800 
    245 H245        0.3017  -18.9239  -55.5393 H         1 UNK         0.0800 
    246 H246        3.8890  -20.4453  -55.2879 H         1 UNK         0.0800 
    247 H247        3.1717  -18.9115  -55.7106 H         1 UNK         0.0800 
@<TRIPOS>BOND
     1    1    2 1    
     2    1  127 1    
     3    1  128 1    
     4    1  129 1    
     5    2    3 2    
     6    2    4 am   BACKBONE|DICT|INTERRES
     7    4    5 1    
     8    4  130 1    
     9    5    6 1    
    10    5   65 1    
    11    5  131 1    
    12    6    7 1    
    13    6  132 1    
    14    6  133 1    
    15    7    8 1    
    16    8    9 1    
    17    8  134 1    
    18    8  135 1    
    19    9   10 ar   
    20    9   14 ar   
    21   10   11 ar   
    22   10  136 1    
    23   11   12 ar   
    24   11  126 1    
    25   12   13 ar   
    26   12  137 1    
    27   13   14 ar   
    28   13   15 1    
    29   14  138 1    
    30   15   16 1    
    31   15  139 1    
    32   15  140 1    
    33   16   17 1    
    34   17   18 1    
    35   17  141 1    
    36   17  142 1    
    37   18   19 1    
    38   18   67 1    
    39   18  143 1    
    40   19   20 am   BACKBONE|DICT|INTERRES
    41   19  144 1    
    42   20   21 2    
    43   20   22 1    
    44   22   23 1    
    45   22   24 1    
    46   22  145 1    
    47   23  146 1    
    48   23  147 1    
    49   23  148 1    
    50   24   25 am   BACKBONE|DICT|INTERRES
    51   24  149 1    
    52   25   26 2    
    53   25   27 1    
    54   27   28 1    
    55   27   29 1    
    56   27  150 1    
    57   28  151 1    
    58   28  152 1    
    59   28  153 1    
    60   29   30 am   BACKBONE|DICT|INTERRES
    61   29  154 1    
    62   30   31 2    
    63   30   32 1    
    64   32   33 1    
    65   32   34 1    
    66   32  155 1    
    67   33  156 1    
    68   33  157 1    
    69   33  158 1    
    70   34   35 am   BACKBONE|DICT|INTERRES
    71   34  159 1    
    72   35   36 2    
    73   35   37 1    
    74   37   38 1    
    75   37   39 1    
    76   37  160 1    
    77   38  161 1    
    78   38  162 1    
    79   38  163 1    
    80   39   40 am   BACKBONE|DICT|INTERRES
    81   39  164 1    
    82   40   41 2    
    83   40   42 1    
    84   42   43 1    
    85   42   44 1    
    86   42  165 1    
    87   43  166 1    
    88   43  167 1    
    89   43  168 1    
    90   44   45 am   BACKBONE|DICT|INTERRES
    91   44  169 1    
    92   45   46 2    
    93   45   47 1    
    94   47   48 1    
    95   47   49 1    
    96   47  170 1    
    97   48  171 1    
    98   48  172 1    
    99   48  173 1    
   100   49   50 am   BACKBONE|DICT|INTERRES
   101   49  174 1    
   102   50   51 2    
   103   50   52 1    
   104   52   53 1    
   105   52   54 1    
   106   52  175 1    
   107   53  176 1    
   108   53  177 1    
   109   53  178 1    
   110   54   55 am   BACKBONE|DICT|INTERRES
   111   54  179 1    
   112   55   56 2    
   113   55   57 1    
   114   57   58 1    
   115   57   59 1    
   116   57  180 1    
   117   58  181 1    
   118   58  182 1    
   119   58  183 1    
   120   59   60 am   BACKBONE|DICT|INTERRES
   121   59  184 1    
   122   60   61 2    
   123   60   62 1    
   124   62   63 1    
   125   62   64 1    
   126   62  185 1    
   127   63  186 1    
   128   63  187 1    
   129   63  188 1    
   130   64   65 am   BACKBONE|DICT|INTERRES
   131   64  189 1    
   132   65   66 2    
   133   67   68 2    
   134   67   69 am   BACKBONE|DICT|INTERRES
   135   69   70 1    
   136   69  190 1    
   137   70   71 1    
   138   70   72 1    
   139   70  191 1    
   140   71  192 1    
   141   71  193 1    
   142   71  194 1    
   143   72   73 2    
   144   72   74 am   BACKBONE|DICT|INTERRES
   145   74   75 1    
   146   74  195 1    
   147   75   76 1    
   148   75   77 1    
   149   75  196 1    
   150   76  197 1    
   151   76  198 1    
   152   76  199 1    
   153   77   78 2    
   154   77   79 am   BACKBONE|DICT|INTERRES
   155   79   80 1    
   156   79  200 1    
   157   80   81 1    
   158   80   82 1    
   159   80  201 1    
   160   81  202 1    
   161   81  203 1    
   162   81  204 1    
   163   82   83 2    
   164   82   84 am   BACKBONE|DICT|INTERRES
   165   84   85 1    
   166   84  205 1    
   167   85   86 1    
   168   85   87 1    
   169   85  206 1    
   170   86  207 1    
   171   86  208 1    
   172   86  209 1    
   173   87   88 2    
   174   87   89 am   BACKBONE|DICT|INTERRES
   175   89   90 1    
   176   89  210 1    
   177   90   91 1    
   178   90   92 1    
   179   90  211 1    
   180   91  212 1    
   181   91  213 1    
   182   91  214 1    
   183   92   93 2    
   184   92   94 am   BACKBONE|DICT|INTERRES
   185   94   95 1    
   186   94  215 1    
   187   95   96 1    
   188   95   97 1    
   189   95  216 1    
   190   96  217 1    
   191   96  218 1    
   192   96  219 1    
   193   97   98 2    
   194   97   99 am   BACKBONE|DICT|INTERRES
   195   99  100 1    
   196   99  220 1    
   197  100  101 1    
   198  100  102 1    
   199  100  221 1    
   200  101  222 1    
   201  101  223 1    
   202  101  224 1    
   203  102  103 2    
   204  102  104 am   BACKBONE|DICT|INTERRES
   205  104  105 1    
   206  104  225 1    
   207  105  106 1    
   208  105  107 1    
   209  105  226 1    
   210  106  227 1    
   211  106  228 1    
   212  106  229 1    
   213  107  108 2    
   214  107  109 am   BACKBONE|DICT|INTERRES
   215  109  110 1    
   216  109  230 1    
   217  110  111 1    
   218  110  112 1    
   219  110  231 1    
   220  111  232 1    
   221  111  233 1    
   222  111  234 1    
   223  112  113 2    
   224  112  114 am   BACKBONE|DICT|INTERRES
   225  114  115 1    
   226  114  235 1    
   227  115  116 1    
   228  115  117 1    
   229  115  236 1    
   230  116  237 1    
   231  116  238 1    
   232  116  239 1    
   233  117  118 2    
   234  117  119 am   BACKBONE|DICT|INTERRES
   235  119  120 1    
   236  119  240 1    
   237  120  121 1    
   238  120  124 1    
   239  120  241 1    
   240  121  122 am   BACKBONE|DICT|INTERRES
   241  121  123 2    
   242  122  242 1    
   243  122  243 1    
   244  124  125 1    
   245  124  244 1    
   246  124  245 1    
   247  125  126 1    
   248  126  246 1    
   249  126  247 1    
@<TRIPOS>SUBSTRUCTURE
     1 UNK         1 GROUP             0       ****    0 ROOT    
