@<TRIPOS>MOLECULE
3R540
247   249    1
SMALL
USER_CHARGES


@<TRIPOS>ATOM
      1 CA          6.0127  -14.0898  -45.8731 C.3       0 UNK        -0.1800 
      2 C           4.5597  -14.2725  -46.2857 C.2       0 UNK         0.5000 
      3 O           3.8442  -15.0520  -45.6617 O.2       0 UNK        -0.5000 
      4 N           4.1216  -13.5496  -47.3243 N.am      1 UNK        -0.5000 
      5 CA          2.7536  -13.5817  -47.8639 C.3       1 UNK         0.1400 
      6 C6          2.7607  -13.3984  -49.4062 C.3       23 UNK        -0.0398 
      7 S7          1.4478  -14.3587  -50.2363 S.3       23 UNK        -0.2404 
      8 C8          2.3830  -15.8371  -50.7278 C.3       23 UNK        -0.0205 
      9 C9          1.5071  -16.8341  -51.4687 C.ar      23 UNK        -0.0193 
     10 C10         1.3090  -16.7049  -52.8471 C.ar      23 UNK        -0.1150 
     11 C11         0.5463  -17.6447  -53.5463 C.ar      23 UNK        -0.0193 
     12 C12        -0.0140  -18.7215  -52.8553 C.ar      23 UNK        -0.1150 
     13 C13         0.1664  -18.8570  -51.4762 C.ar      23 UNK        -0.0193 
     14 C14         0.9214  -17.9043  -50.7854 C.ar      23 UNK        -0.1150 
     15 C15        -0.4461  -20.0391  -50.7419 C.3       23 UNK        -0.0205 
     16 S16         0.8225  -21.2482  -50.2538 S.3       23 UNK        -0.2404 
     17 C17         0.9412  -20.9378  -48.4575 C.3       23 UNK        -0.0398 
     18 CA          0.2775  -22.0577  -47.6225 C.3       11 UNK         0.1400 
     19 N           0.6637  -21.9948  -46.2130 N.am      11 UNK        -0.5000 
     20 C           0.4116  -22.9603  -45.3177 C.2       10 UNK         0.5000 
     21 O          -0.1436  -24.0237  -45.5950 O.2       10 UNK        -0.5000 
     22 CA          0.8009  -22.6690  -43.8589 C.3       10 UNK         0.1400 
     23 CB          2.3115  -22.8520  -43.6508 C.3       10 UNK        -0.1800 
     24 N           0.3978  -21.3293  -43.4296 N.am      10 UNK        -0.5000 
     25 C          -0.8734  -20.9074  -43.3615 C.2       9 UNK         0.5000 
     26 O          -1.8449  -21.6184  -43.6199 O.2       9 UNK        -0.5000 
     27 CA         -1.0985  -19.4327  -42.9846 C.3       9 UNK         0.1400 
     28 CB         -0.9479  -19.2235  -41.4704 C.3       9 UNK        -0.1800 
     29 N          -0.2036  -18.5209  -43.6963 N.am      9 UNK        -0.5000 
     30 C          -0.1715  -18.3586  -45.0266 C.2       8 UNK         0.5000 
     31 O          -0.9023  -18.9586  -45.8124 O.2       8 UNK        -0.5000 
     32 CA          0.8937  -17.3984  -45.5774 C.3       8 UNK         0.1400 
     33 CB          0.4762  -15.9392  -45.3366 C.3       8 UNK        -0.1800 
     34 N           2.2116  -17.6528  -44.9953 N.am      8 UNK        -0.5000 
     35 C           2.8939  -18.8000  -45.1290 C.2       7 UNK         0.5000 
     36 O           2.5056  -19.7543  -45.8038 O.2       7 UNK        -0.5000 
     37 CA          4.2013  -18.9280  -44.3273 C.3       7 UNK         0.1400 
     38 CB          5.3745  -18.2531  -45.0521 C.3       7 UNK        -0.1800 
     39 N           4.0789  -18.3888  -42.9721 N.am      7 UNK        -0.5000 
     40 C           3.3180  -18.9375  -42.0146 C.2       6 UNK         0.5000 
     41 O           2.6544  -19.9622  -42.1696 O.2       6 UNK        -0.5000 
     42 CA          3.2568  -18.1941  -40.6686 C.3       6 UNK         0.1400 
     43 CB          4.4806  -18.5333  -39.8045 C.3       6 UNK        -0.1800 
     44 N           3.1441  -16.7397  -40.8082 N.am      6 UNK        -0.5000 
     45 C           2.1192  -16.1152  -41.4020 C.2       5 UNK         0.5000 
     46 O           1.1942  -16.7047  -41.9655 O.2       5 UNK        -0.5000 
     47 CA          2.1453  -14.5766  -41.3819 C.3       5 UNK         0.1400 
     48 CB          2.9052  -14.0387  -42.6012 C.3       5 UNK        -0.1800 
     49 N           0.7872  -14.0304  -41.3748 N.am      5 UNK        -0.5000 
     50 C          -0.0326  -14.0843  -40.3139 C.2       4 UNK         0.5000 
     51 O           0.3325  -14.4825  -39.2056 O.2       4 UNK        -0.5000 
     52 CA         -1.5063  -13.6619  -40.5146 C.3       4 UNK         0.1400 
     53 CB         -2.1122  -13.0018  -39.2574 C.3       4 UNK        -0.1800 
     54 N          -1.7531  -12.8437  -41.7074 N.am      4 UNK        -0.5000 
     55 C          -1.2982  -11.6085  -41.9560 C.2       3 UNK         0.5000 
     56 O          -0.5900  -10.9542  -41.1876 O.2       3 UNK        -0.5000 
     57 CA         -1.6941  -11.0126  -43.3203 C.3       3 UNK         0.1400 
     58 CB         -2.5857   -9.7737  -43.1415 C.3       3 UNK        -0.1800 
     59 N          -0.5245  -10.6544  -44.1225 N.am      3 UNK        -0.5000 
     60 C           0.4319  -11.5080  -44.5101 C.2       2 UNK         0.5000 
     61 O           0.4286  -12.7101  -44.2323 O.2       2 UNK        -0.5000 
     62 CA          1.5897  -10.8952  -45.3230 C.3       2 UNK         0.1400 
     63 CB          2.5888  -10.1844  -44.3960 C.3       2 UNK        -0.1800 
     64 N           2.3162  -11.8831  -46.1211 N.am      2 UNK        -0.5000 
     65 C           1.8154  -12.5679  -47.1594 C.2       1 UNK         0.5000 
     66 O           0.6702  -12.4008  -47.5817 O.2       1 UNK        -0.5000 
     67 C          -1.2560  -22.0925  -47.7914 C.2       11 UNK         0.5000 
     68 O          -1.7562  -22.9213  -48.5493 O.2       11 UNK        -0.5000 
     69 N          -1.9829  -21.2395  -47.0556 N.am      12 UNK        -0.5000 
     70 CA         -3.4456  -21.2014  -47.0488 C.3       12 UNK         0.1400 
     71 CB         -3.9397  -20.0104  -46.2164 C.3       12 UNK        -0.1800 
     72 C          -4.0832  -22.5143  -46.5613 C.2       12 UNK         0.5000 
     73 O          -5.0722  -22.9544  -47.1467 O.2       12 UNK        -0.5000 
     74 N          -3.4938  -23.1362  -45.5325 N.am      13 UNK        -0.5000 
     75 CA         -3.8997  -24.4491  -45.0336 C.3       13 UNK         0.1400 
     76 CB         -3.1897  -24.7358  -43.7016 C.3       13 UNK        -0.1800 
     77 C          -3.6368  -25.5749  -46.0522 C.2       13 UNK         0.5000 
     78 O          -4.5055  -26.4240  -46.2548 O.2       13 UNK        -0.5000 
     79 N          -2.4520  -25.5570  -46.6775 N.am      14 UNK        -0.5000 
     80 CA         -2.0118  -26.5599  -47.6466 C.3       14 UNK         0.1400 
     81 CB         -0.4972  -26.4222  -47.8662 C.3       14 UNK        -0.1800 
     82 C          -2.7582  -26.4865  -48.9911 C.2       14 UNK         0.5000 
     83 O          -3.1638  -27.5244  -49.5153 O.2       14 UNK        -0.5000 
     84 N          -2.9117  -25.2711  -49.5306 N.am      15 UNK        -0.5000 
     85 CA         -3.4212  -25.0087  -50.8778 C.3       15 UNK         0.1400 
     86 CB         -2.4794  -24.0148  -51.5808 C.3       15 UNK        -0.1800 
     87 C          -4.8895  -24.5410  -50.8959 C.2       15 UNK         0.5000 
     88 O          -5.3050  -23.9180  -51.8738 O.2       15 UNK        -0.5000 
     89 N          -5.6506  -24.8635  -49.8388 N.am      16 UNK        -0.5000 
     90 CA         -7.1026  -24.6859  -49.7002 C.3       16 UNK         0.1400 
     91 CB         -7.8466  -25.6313  -50.6666 C.3       16 UNK        -0.1800 
     92 C          -7.5452  -23.2171  -49.8552 C.2       16 UNK         0.5000 
     93 O          -8.1777  -22.8535  -50.8477 O.2       16 UNK        -0.5000 
     94 N          -7.1486  -22.3896  -48.8797 N.am      17 UNK        -0.5000 
     95 CA         -7.3107  -20.9306  -48.8310 C.3       17 UNK         0.1400 
     96 CB         -8.7993  -20.5242  -48.8110 C.3       17 UNK        -0.1800 
     97 C          -6.4978  -20.2202  -49.9331 C.2       17 UNK         0.5000 
     98 O          -6.9036  -19.1673  -50.4251 O.2       17 UNK        -0.5000 
     99 N          -5.3670  -20.8416  -50.3015 N.am      18 UNK        -0.5000 
    100 CA        -4.4073  -20.4675  -51.3448 C.3       18 UNK         0.1400 
    101 CB        -3.8369  -19.0540  -51.1096 C.3       18 UNK        -0.1800 
    102 C         -4.9232  -20.6445  -52.7866 C.2       18 UNK         0.5000 
    103 O         -4.1648  -20.3817  -53.7197 O.2       18 UNK        -0.5000 
    104 N         -6.1669  -21.1101  -52.9661 N.am      19 UNK        -0.5000 
    105 CA        -6.8416  -21.2380  -54.2582 C.3       19 UNK         0.1400 
    106 CB        -8.3036  -21.6457  -54.0268 C.3       19 UNK        -0.1800 
    107 C         -6.1591  -22.2155  -55.2309 C.2       19 UNK         0.5000 
    108 O         -6.1606  -21.9628  -56.4360 O.2       19 UNK        -0.5000 
    109 N         -5.5634  -23.2933  -54.7036 N.am      20 UNK        -0.5000 
    110 CA        -4.8552  -24.2969  -55.5009 C.3       20 UNK         0.1400 
    111 CB        -4.7462  -25.5995  -54.6933 C.3       20 UNK        -0.1800 
    112 C         -3.4613  -23.8320  -55.9690 C.2       20 UNK         0.5000 
    113 O         -2.9204  -24.4219  -56.9053 O.2       20 UNK        -0.5000 
    114 N         -2.9002  -22.8084  -55.3110 N.am      21 UNK        -0.5000 
    115 CA        -1.5561  -22.2914  -55.5683 C.3       21 UNK         0.1400 
    116 CB        -0.8036  -22.1832  -54.2330 C.3       21 UNK        -0.1800 
    117 C         -1.5783  -20.9343  -56.2910 C.2       21 UNK         0.5000 
    118 O         -0.7464  -20.7128  -57.1716 O.2       21 UNK        -0.5000 
    119 N         -2.5099  -20.0538  -55.9068 N.am      22 UNK        -0.5000 
    120 CA        -2.6367  -18.6717  -56.3979 C.3       22 UNK         0.1400 
    121 C         -3.9327  -18.4115  -57.2193 C.2       22 UNK         0.5000 
    122 N         -4.8023  -19.3904  -57.4353 N.am      22 UNK        -0.7600 
    123 O         -4.1482  -17.2992  -57.6929 O.2       22 UNK        -0.5000 
    124 C124       -2.4624  -17.6545  -55.2279 C.3       23 UNK        -0.0398 
    125 S125       -1.0786  -16.4952  -55.4984 S.3       23 UNK        -0.2404 
    126 C126        0.3620  -17.5181  -55.0519 C.3       23 UNK        -0.0205 
    127 H127        6.5175  -13.3403  -46.4830 H         1 UNK         0.0600 
    128 H128        6.5515  -15.0318  -45.9752 H         1 UNK         0.0600 
    129 H129        6.0685  -13.7754  -44.8309 H         1 UNK         0.0600 
    130 H130        4.7581  -12.9138  -47.7847 H         1 UNK         0.3000 
    131 H131        2.3437  -14.5712  -47.6534 H         1 UNK         0.0600 
    132 H132        2.6625  -12.3478  -49.6862 H         1 UNK         0.0800 
    133 H133        3.7180  -13.7141  -49.8236 H         1 UNK         0.0800 
    134 H134        2.8167  -16.3021  -49.8408 H         1 UNK         0.0800 
    135 H135        3.2203  -15.5446  -51.3635 H         1 UNK         0.0800 
    136 H136        1.7577  -15.8766  -53.3775 H         1 UNK         0.1150 
    137 H137       -0.5904  -19.4557  -53.3966 H         1 UNK         0.1150 
    138 H138        1.0716  -18.0089  -49.7202 H         1 UNK         0.1150 
    139 H139       -1.0090  -19.6867  -49.8769 H         1 UNK         0.0800 
    140 H140       -1.1684  -20.5491  -51.3787 H         1 UNK         0.0800 
    141 H141        0.5388  -19.9578  -48.1963 H         1 UNK         0.0800 
    142 H142        2.0048  -20.8903  -48.2204 H         1 UNK         0.0800 
    143 H143        0.6574  -23.0102  -47.9989 H         1 UNK         0.0600 
    144 H144        1.1507  -21.1550  -45.9124 H         1 UNK         0.3000 
    145 H145        0.2812  -23.3920  -43.2267 H         1 UNK         0.0600 
    146 H146        2.5795  -22.7428  -42.5998 H         1 UNK         0.0600 
    147 H147        2.6327  -23.8453  -43.9667 H         1 UNK         0.0600 
    148 H148        2.8882  -22.1222  -44.2200 H         1 UNK         0.0600 
    149 H149        1.1442  -20.6952  -43.1584 H         1 UNK         0.3000 
    150 H150       -2.1219  -19.1729  -43.2622 H         1 UNK         0.0600 
    151 H151       -1.6192  -19.8804  -40.9159 H         1 UNK         0.0600 
    152 H152       -1.1886  -18.1981  -41.1891 H         1 UNK         0.0600 
    153 H153        0.0686  -19.4306  -41.1344 H         1 UNK         0.0600 
    154 H154        0.4200  -17.9577  -43.1220 H         1 UNK         0.3000 
    155 H155        0.9698  -17.5581  -46.6549 H         1 UNK         0.0600 
    156 H156       -0.4729  -15.7197  -45.8266 H         1 UNK         0.0600 
    157 H157        1.2106  -15.2418  -45.7326 H         1 UNK         0.0600 
    158 H158        0.3533  -15.7167  -44.2768 H         1 UNK         0.0600 
    159 H159        2.6158  -16.9066  -44.4481 H         1 UNK         0.3000 
    160 H160        4.4297  -19.9930  -44.2466 H         1 UNK         0.0600 
    161 H161        5.2580  -17.1711  -45.0893 H         1 UNK         0.0600 
    162 H162        5.4591  -18.6111  -46.0790 H         1 UNK         0.0600 
    163 H163        6.3197  -18.4690  -44.5539 H         1 UNK         0.0600 
    164 H164        4.5785  -17.5361  -42.7680 H         1 UNK         0.3000 
    165 H165        2.3653  -18.5440  -40.1436 H         1 UNK         0.0600 
    166 H166        4.3962  -18.0928  -38.8108 H         1 UNK         0.0600 
    167 H167        4.5782  -19.6118  -39.6727 H         1 UNK         0.0600 
    168 H168        5.4061  -18.1725  -40.2548 H         1 UNK         0.0600 
    169 H169        3.8718  -16.1885  -40.3764 H         1 UNK         0.3000 
    170 H170        2.6603  -14.2434  -40.4784 H         1 UNK         0.0600 
    171 H171        3.9293  -14.4127  -42.6283 H         1 UNK         0.0600 
    172 H172        2.4241  -14.3352  -43.5331 H         1 UNK         0.0600 
    173 H173        2.9559  -12.9511  -42.5819 H         1 UNK         0.0600 
    174 H174        0.4284  -13.7029  -42.2639 H         1 UNK         0.3000 
    175 H175       -2.0507  -14.5924  -40.6818 H         1 UNK         0.0600 
    176 H176       -3.1543  -12.7263  -39.4191 H         1 UNK         0.0600 
    177 H177       -2.0885  -13.6834  -38.4063 H         1 UNK         0.0600 
    178 H178       -1.5677  -12.1027  -38.9682 H         1 UNK         0.0600 
    179 H179       -2.3007  -13.2966  -42.4260 H         1 UNK         0.3000 
    180 H180       -2.2609  -11.7576  -43.8827 H         1 UNK         0.0600 
    181 H181       -2.0604   -8.9704  -42.6232 H         1 UNK         0.0600 
    182 H182       -3.4747  -10.0147  -42.5571 H         1 UNK         0.0600 
    183 H183       -2.9248   -9.3882  -44.1032 H         1 UNK         0.0600 
    184 H184       -0.4318   -9.6779  -44.3605 H         1 UNK         0.3000 
    185 H185        1.1679  -10.1581  -46.0093 H         1 UNK         0.0600 
    186 H186        2.0948   -9.4210  -43.7936 H         1 UNK         0.0600 
    187 H187        3.0692  -10.8814  -43.7097 H         1 UNK         0.0600 
    188 H188        3.3714   -9.6860  -44.9685 H         1 UNK         0.0600 
    189 H189        3.2518  -12.1076  -45.8191 H         1 UNK         0.3000 
    190 H190       -1.5100  -20.5498  -46.4745 H         1 UNK         0.3000 
    191 H191       -3.7667  -21.0447  -48.0788 H         1 UNK         0.0600 
    192 H192       -3.5997  -20.0746  -45.1825 H         1 UNK         0.0600 
    193 H193       -5.0292  -19.9653  -46.2022 H         1 UNK         0.0600 
    194 H194       -3.5811  -19.0672  -46.6288 H         1 UNK         0.0600 
    195 H195       -2.7169  -22.6834  -45.0604 H         1 UNK         0.3000 
    196 H196       -4.9744  -24.4188  -44.8421 H         1 UNK         0.0600 
    197 H197       -3.4877  -25.7051  -43.3002 H         1 UNK         0.0600 
    198 H198       -3.4388  -23.9828  -42.9537 H         1 UNK         0.0600 
    199 H199       -2.1054  -24.7455  -43.8151 H         1 UNK         0.0600 
    200 H200       -1.7771  -24.8404  -46.4278 H         1 UNK         0.3000 
    201 H201       -2.1989  -27.5468  -47.2180 H         1 UNK         0.0600 
    202 H202        0.0503  -26.5680  -46.9349 H         1 UNK         0.0600 
    203 H203       -0.2351  -25.4379  -48.2563 H         1 UNK         0.0600 
    204 H204       -0.1344  -27.1657  -48.5769 H         1 UNK         0.0600 
    205 H205       -2.5411  -24.4611  -49.0340 H         1 UNK         0.3000 
    206 H206       -3.3995  -25.9301  -51.4626 H         1 UNK         0.0600 
    207 H207       -1.4686  -24.4171  -51.6473 H         1 UNK         0.0600 
    208 H208       -2.8068  -23.8017  -52.5978 H         1 UNK         0.0600 
    209 H209       -2.4188  -23.0682  -51.0485 H         1 UNK         0.0600 
    210 H210       -5.1918  -25.3292  -49.0681 H         1 UNK         0.3000 
    211 H211       -7.3587  -24.9872  -48.6833 H         1 UNK         0.0600 
    212 H212       -7.6346  -25.3971  -51.7106 H         1 UNK         0.0600 
    213 H213       -8.9259  -25.5582  -50.5287 H         1 UNK         0.0600 
    214 H214       -7.5664  -26.6704  -50.4940 H         1 UNK         0.0600 
    215 H215       -6.5570  -22.7739  -48.1430 H         1 UNK         0.3000 
    216 H216       -6.8741  -20.6119  -47.8837 H         1 UNK         0.0600 
    217 H217       -8.9085  -19.4586  -48.6062 H         1 UNK         0.0600 
    218 H218       -9.3441  -21.0604  -48.0341 H         1 UNK         0.0600 
    219 H219       -9.2902  -20.7223  -49.7641 H         1 UNK         0.0600 
    220 H220       -5.1853  -21.7309  -49.8584 H         1 UNK         0.3000 
    221 H221       -3.5798  -21.1665  -51.2427 H         1 UNK         0.0600 
    222 H222       -4.5880  -18.2795  -51.2639 H         1 UNK         0.0600 
    223 H223       -3.4474  -18.9478  -50.0972 H         1 UNK         0.0600 
    224 H224       -3.0176  -18.8423  -51.7974 H         1 UNK         0.0600 
    225 H225       -6.7024  -21.3805  -52.1522 H         1 UNK         0.3000 
    226 H226       -6.8338  -20.2521  -54.7275 H         1 UNK         0.0600 
    227 H227       -8.8529  -21.6827  -54.9683 H         1 UNK         0.0600 
    228 H228       -8.3754  -22.6316  -53.5658 H         1 UNK         0.0600 
    229 H229       -8.8153  -20.9346  -53.3779 H         1 UNK         0.0600 
    230 H230       -5.5851  -23.4337  -53.6953 H         1 UNK         0.3000 
    231 H231       -5.4470  -24.5082  -56.3941 H         1 UNK         0.0600 
    232 H232       -5.7231  -25.9312  -54.3408 H         1 UNK         0.0600 
    233 H233       -4.0981  -25.4821  -53.8261 H         1 UNK         0.0600 
    234 H234       -4.3300  -26.4018  -55.3036 H         1 UNK         0.0600 
    235 H235       -3.4385  -22.3482  -54.5896 H         1 UNK         0.3000 
    236 H236       -0.9959  -22.9819  -56.2024 H         1 UNK         0.0600 
    237 H237        0.1598  -21.6866  -54.3569 H         1 UNK         0.0600 
    238 H238       -1.3774  -21.6233  -53.4953 H         1 UNK         0.0600 
    239 H239       -0.6049  -23.1708  -53.8174 H         1 UNK         0.0600 
    240 H240       -3.1520  -20.2969  -55.1543 H         1 UNK         0.3000 
    241 H241       -1.8442  -18.4953  -57.1267 H         1 UNK         0.0600 
    242 H242       -4.6632  -20.3168  -57.0597 H         1 UNK         0.3800 
    243 H243       -5.6294  -19.2005  -57.9784 H         1 UNK         0.3800 
    244 H244       -3.3620  -17.0561  -55.0729 H         1 UNK         0.0800 
    245 H245       -2.3162  -18.1612  -54.2749 H         1 UNK         0.0800 
    246 H246        0.2707  -18.5046  -55.5087 H         1 UNK         0.0800 
    247 H247        1.2545  -17.0688  -55.4896 H         1 UNK         0.0800 
@<TRIPOS>BOND
     1    1    2 1    
     2    1  127 1    
     3    1  128 1    
     4    1  129 1    
     5    2    3 2    
     6    2    4 am   BACKBONE|DICT|INTERRES
     7    4    5 1    
     8    4  130 1    
     9    5    6 1    
    10    5   65 1    
    11    5  131 1    
    12    6    7 1    
    13    6  132 1    
    14    6  133 1    
    15    7    8 1    
    16    8    9 1    
    17    8  134 1    
    18    8  135 1    
    19    9   10 ar   
    20    9   14 ar   
    21   10   11 ar   
    22   10  136 1    
    23   11   12 ar   
    24   11  126 1    
    25   12   13 ar   
    26   12  137 1    
    27   13   14 ar   
    28   13   15 1    
    29   14  138 1    
    30   15   16 1    
    31   15  139 1    
    32   15  140 1    
    33   16   17 1    
    34   17   18 1    
    35   17  141 1    
    36   17  142 1    
    37   18   19 1    
    38   18   67 1    
    39   18  143 1    
    40   19   20 am   BACKBONE|DICT|INTERRES
    41   19  144 1    
    42   20   21 2    
    43   20   22 1    
    44   22   23 1    
    45   22   24 1    
    46   22  145 1    
    47   23  146 1    
    48   23  147 1    
    49   23  148 1    
    50   24   25 am   BACKBONE|DICT|INTERRES
    51   24  149 1    
    52   25   26 2    
    53   25   27 1    
    54   27   28 1    
    55   27   29 1    
    56   27  150 1    
    57   28  151 1    
    58   28  152 1    
    59   28  153 1    
    60   29   30 am   BACKBONE|DICT|INTERRES
    61   29  154 1    
    62   30   31 2    
    63   30   32 1    
    64   32   33 1    
    65   32   34 1    
    66   32  155 1    
    67   33  156 1    
    68   33  157 1    
    69   33  158 1    
    70   34   35 am   BACKBONE|DICT|INTERRES
    71   34  159 1    
    72   35   36 2    
    73   35   37 1    
    74   37   38 1    
    75   37   39 1    
    76   37  160 1    
    77   38  161 1    
    78   38  162 1    
    79   38  163 1    
    80   39   40 am   BACKBONE|DICT|INTERRES
    81   39  164 1    
    82   40   41 2    
    83   40   42 1    
    84   42   43 1    
    85   42   44 1    
    86   42  165 1    
    87   43  166 1    
    88   43  167 1    
    89   43  168 1    
    90   44   45 am   BACKBONE|DICT|INTERRES
    91   44  169 1    
    92   45   46 2    
    93   45   47 1    
    94   47   48 1    
    95   47   49 1    
    96   47  170 1    
    97   48  171 1    
    98   48  172 1    
    99   48  173 1    
   100   49   50 am   BACKBONE|DICT|INTERRES
   101   49  174 1    
   102   50   51 2    
   103   50   52 1    
   104   52   53 1    
   105   52   54 1    
   106   52  175 1    
   107   53  176 1    
   108   53  177 1    
   109   53  178 1    
   110   54   55 am   BACKBONE|DICT|INTERRES
   111   54  179 1    
   112   55   56 2    
   113   55   57 1    
   114   57   58 1    
   115   57   59 1    
   116   57  180 1    
   117   58  181 1    
   118   58  182 1    
   119   58  183 1    
   120   59   60 am   BACKBONE|DICT|INTERRES
   121   59  184 1    
   122   60   61 2    
   123   60   62 1    
   124   62   63 1    
   125   62   64 1    
   126   62  185 1    
   127   63  186 1    
   128   63  187 1    
   129   63  188 1    
   130   64   65 am   BACKBONE|DICT|INTERRES
   131   64  189 1    
   132   65   66 2    
   133   67   68 2    
   134   67   69 am   BACKBONE|DICT|INTERRES
   135   69   70 1    
   136   69  190 1    
   137   70   71 1    
   138   70   72 1    
   139   70  191 1    
   140   71  192 1    
   141   71  193 1    
   142   71  194 1    
   143   72   73 2    
   144   72   74 am   BACKBONE|DICT|INTERRES
   145   74   75 1    
   146   74  195 1    
   147   75   76 1    
   148   75   77 1    
   149   75  196 1    
   150   76  197 1    
   151   76  198 1    
   152   76  199 1    
   153   77   78 2    
   154   77   79 am   BACKBONE|DICT|INTERRES
   155   79   80 1    
   156   79  200 1    
   157   80   81 1    
   158   80   82 1    
   159   80  201 1    
   160   81  202 1    
   161   81  203 1    
   162   81  204 1    
   163   82   83 2    
   164   82   84 am   BACKBONE|DICT|INTERRES
   165   84   85 1    
   166   84  205 1    
   167   85   86 1    
   168   85   87 1    
   169   85  206 1    
   170   86  207 1    
   171   86  208 1    
   172   86  209 1    
   173   87   88 2    
   174   87   89 am   BACKBONE|DICT|INTERRES
   175   89   90 1    
   176   89  210 1    
   177   90   91 1    
   178   90   92 1    
   179   90  211 1    
   180   91  212 1    
   181   91  213 1    
   182   91  214 1    
   183   92   93 2    
   184   92   94 am   BACKBONE|DICT|INTERRES
   185   94   95 1    
   186   94  215 1    
   187   95   96 1    
   188   95   97 1    
   189   95  216 1    
   190   96  217 1    
   191   96  218 1    
   192   96  219 1    
   193   97   98 2    
   194   97   99 am   BACKBONE|DICT|INTERRES
   195   99  100 1    
   196   99  220 1    
   197  100  101 1    
   198  100  102 1    
   199  100  221 1    
   200  101  222 1    
   201  101  223 1    
   202  101  224 1    
   203  102  103 2    
   204  102  104 am   BACKBONE|DICT|INTERRES
   205  104  105 1    
   206  104  225 1    
   207  105  106 1    
   208  105  107 1    
   209  105  226 1    
   210  106  227 1    
   211  106  228 1    
   212  106  229 1    
   213  107  108 2    
   214  107  109 am   BACKBONE|DICT|INTERRES
   215  109  110 1    
   216  109  230 1    
   217  110  111 1    
   218  110  112 1    
   219  110  231 1    
   220  111  232 1    
   221  111  233 1    
   222  111  234 1    
   223  112  113 2    
   224  112  114 am   BACKBONE|DICT|INTERRES
   225  114  115 1    
   226  114  235 1    
   227  115  116 1    
   228  115  117 1    
   229  115  236 1    
   230  116  237 1    
   231  116  238 1    
   232  116  239 1    
   233  117  118 2    
   234  117  119 am   BACKBONE|DICT|INTERRES
   235  119  120 1    
   236  119  240 1    
   237  120  121 1    
   238  120  124 1    
   239  120  241 1    
   240  121  122 am   BACKBONE|DICT|INTERRES
   241  121  123 2    
   242  122  242 1    
   243  122  243 1    
   244  124  125 1    
   245  124  244 1    
   246  124  245 1    
   247  125  126 1    
   248  126  246 1    
   249  126  247 1    
@<TRIPOS>SUBSTRUCTURE
     1 UNK         1 GROUP             0       ****    0 ROOT    
