@<TRIPOS>MOLECULE
3R540
247   249    1
SMALL
USER_CHARGES


@<TRIPOS>ATOM
      1 CA         -0.0473  -12.1187  -47.2880 C.3       0 UNK        -0.1800 
      2 C           1.2528  -12.7024  -47.8214 C.2       0 UNK         0.5000 
      3 O           1.3567  -13.9202  -47.9524 O.2       0 UNK        -0.5000 
      4 N           2.2353  -11.8337  -48.1024 N.am      1 UNK        -0.5000 
      5 CA          3.5855  -12.0516  -48.6594 C.3       1 UNK         0.1400 
      6 C6          3.6005  -12.3912  -50.1784 C.3       23 UNK        -0.0398 
      7 S7          3.3545  -14.1437  -50.6388 S.3       23 UNK        -0.2404 
      8 C8          1.6836  -14.0925  -51.3539 C.3       23 UNK        -0.0205 
      9 C9          1.1957  -15.4874  -51.7088 C.ar      23 UNK        -0.0193 
     10 C10         1.1189  -15.8958  -53.0433 C.ar      23 UNK        -0.1150 
     11 C11         0.6490  -17.1721  -53.3690 C.ar      23 UNK        -0.0193 
     12 C12         0.2731  -18.0496  -52.3471 C.ar      23 UNK        -0.1150 
     13 C13         0.3587  -17.6555  -51.0093 C.ar      23 UNK        -0.0193 
     14 C14         0.8114  -16.3709  -50.6966 C.ar      23 UNK        -0.1150 
     15 C15        -0.0328  -18.6130  -49.8981 C.3       23 UNK        -0.0205 
     16 S16         1.3969  -19.6115  -49.3669 S.3       23 UNK        -0.2404 
     17 C17         1.0544  -19.8027  -47.5844 C.3       23 UNK        -0.0398 
     18 CA          0.3417  -21.1162  -47.1778 C.3       11 UNK         0.1400 
     19 N           0.1831  -21.1857  -45.7240 N.am      11 UNK        -0.5000 
     20 C          -0.2886  -22.2298  -45.0305 C.2       10 UNK         0.5000 
     21 O          -0.5864  -23.3108  -45.5362 O.2       10 UNK        -0.5000 
     22 CA         -0.5183  -22.0061  -43.5238 C.3       10 UNK         0.1400 
     23 CB          0.7939  -22.1503  -42.7396 C.3       10 UNK        -0.1800 
     24 N          -1.1293  -20.7053  -43.2370 N.am      10 UNK        -0.5000 
     25 C          -2.3525  -20.3417  -43.6510 C.2       9 UNK         0.5000 
     26 O          -3.1099  -21.0846  -44.2738 O.2       9 UNK        -0.5000 
     27 CA         -2.7898  -18.8948  -43.3655 C.3       9 UNK         0.1400 
     28 CB         -3.2825  -18.7496  -41.9182 C.3       9 UNK        -0.1800 
     29 N          -1.7267  -17.9255  -43.6288 N.am      9 UNK        -0.5000 
     30 C          -1.1983  -17.6825  -44.8369 C.2       8 UNK         0.5000 
     31 O          -1.5961  -18.2128  -45.8739 O.2       8 UNK        -0.5000 
     32 CA          0.0196  -16.7399  -44.8874 C.3       8 UNK         0.1400 
     33 CB         -0.4130  -15.2677  -44.8686 C.3       8 UNK        -0.1800 
     34 N           0.9638  -16.9961  -43.7980 N.am      8 UNK        -0.5000 
     35 C           1.6459  -18.1416  -43.6516 C.2       7 UNK         0.5000 
     36 O           1.5845  -19.0768  -44.4475 O.2       7 UNK        -0.5000 
     37 CA          2.5083  -18.2895  -42.3889 C.3       7 UNK         0.1400 
     38 CB          3.8998  -17.6871  -42.6063 C.3       7 UNK        -0.1800 
     39 N           1.8769  -17.6721  -41.2250 N.am      7 UNK        -0.5000 
     40 C           0.8113  -18.1885  -40.5977 C.2       6 UNK         0.5000 
     41 O           0.2731  -19.2477  -40.9233 O.2       6 UNK        -0.5000 
     42 CA          0.2242  -17.3564  -39.4437 C.3       6 UNK         0.1400 
     43 CB          1.0584  -17.5300  -38.1656 C.3       6 UNK        -0.1800 
     44 N           0.1258  -15.9332  -39.7718 N.am      6 UNK        -0.5000 
     45 C          -0.6631  -15.4336  -40.7331 C.2       5 UNK         0.5000 
     46 O          -1.4060  -16.1206  -41.4314 O.2       5 UNK        -0.5000 
     47 CA         -0.5928  -13.9173  -40.9827 C.3       5 UNK         0.1400 
     48 CB         -1.6147  -13.1829  -40.1024 C.3       5 UNK        -0.1800 
     49 N           0.7321  -13.3290  -40.7749 N.am      5 UNK        -0.5000 
     50 C           1.8539  -13.6724  -41.4230 C.2       4 UNK         0.5000 
     51 O           1.9180  -14.6036  -42.2315 O.2       4 UNK        -0.5000 
     52 CA          3.0818  -12.7863  -41.1279 C.3       4 UNK         0.1400 
     53 CB          3.3636  -12.6461  -39.6151 C.3       4 UNK        -0.1800 
     54 N           4.2808  -13.1999  -41.8613 N.am      4 UNK        -0.5000 
     55 C           5.0514  -14.2755  -41.6623 C.2       3 UNK         0.5000 
     56 O           4.8753  -15.0961  -40.7596 O.2       3 UNK        -0.5000 
     57 CA          6.2160  -14.4551  -42.6630 C.3       3 UNK         0.1400 
     58 CB          7.2634  -15.4679  -42.1659 C.3       3 UNK        -0.1800 
     59 N           5.7637  -14.8720  -43.9931 N.am      3 UNK        -0.5000 
     60 C           5.0704  -14.1279  -44.8649 C.2       2 UNK         0.5000 
     61 O           4.7422  -12.9572  -44.6490 O.2       2 UNK        -0.5000 
     62 CA          4.6850  -14.8255  -46.1876 C.3       2 UNK         0.1400 
     63 CB          3.7602  -16.0273  -45.9361 C.3       2 UNK        -0.1800 
     64 N           3.9987  -13.9290  -47.1113 N.am      2 UNK        -0.5000 
     65 C           4.5418  -12.9346  -47.8178 C.2       1 UNK         0.5000 
     66 O           5.7492  -12.6854  -47.8188 O.2       1 UNK        -0.5000 
     67 C          -1.0086  -21.3137  -47.9001 C.2       11 UNK         0.5000 
     68 O          -1.0944  -22.1437  -48.8049 O.2       11 UNK        -0.5000 
     69 N          -2.0475  -20.5856  -47.4640 N.am      12 UNK        -0.5000 
     70 CA         -3.4094  -20.7065  -47.9847 C.3       12 UNK         0.1400 
     71 CB         -4.3049  -19.6187  -47.3760 C.3       12 UNK        -0.1800 
     72 C          -4.0100  -22.1046  -47.7584 C.2       12 UNK         0.5000 
     73 O          -4.6061  -22.6564  -48.6825 O.2       12 UNK        -0.5000 
     74 N          -3.8101  -22.6713  -46.5602 N.am      13 UNK        -0.5000 
     75 CA         -4.2239  -24.0285  -46.1997 C.3       13 UNK         0.1400 
     76 CB         -3.9873  -24.2664  -44.7012 C.3       13 UNK        -0.1800 
     77 C          -3.5269  -25.1091  -47.0463 C.2       13 UNK         0.5000 
     78 O          -4.1985  -26.0212  -47.5294 O.2       13 UNK        -0.5000 
     79 N          -2.2117  -24.9596  -47.2634 N.am      14 UNK        -0.5000 
     80 CA         -1.4073  -25.8114  -48.1456 C.3       14 UNK         0.1400 
     81 CB          0.0786  -25.4532  -47.9938 C.3       14 UNK        -0.1800 
     82 C          -1.8426  -25.7289  -49.6223 C.2       14 UNK         0.5000 
     83 O          -1.7778  -26.7318  -50.3330 O.2       14 UNK        -0.5000 
     84 N          -2.3360  -24.5549  -50.0368 N.am      15 UNK        -0.5000 
     85 CA         -2.9612  -24.2954  -51.3336 C.3       15 UNK         0.1400 
     86 CB         -2.7538  -22.8157  -51.6987 C.3       15 UNK        -0.1800 
     87 C          -4.4548  -24.6937  -51.3857 C.2       15 UNK         0.5000 
     88 O          -5.1615  -24.2440  -52.2893 O.2       15 UNK        -0.5000 
     89 N          -4.9178  -25.5166  -50.4318 N.am      16 UNK        -0.5000 
     90 CA         -6.2674  -26.0780  -50.3123 C.3       16 UNK         0.1400 
     91 CB         -6.5672  -27.0311  -51.4887 C.3       16 UNK        -0.1800 
     92 C          -7.3451  -24.9949  -50.1097 C.2       16 UNK         0.5000 
     93 O          -8.3646  -24.9954  -50.7995 O.2       16 UNK        -0.5000 
     94 N          -7.0718  -24.0771  -49.1718 N.am      17 UNK        -0.5000 
     95 CA         -7.8387  -22.8652  -48.8588 C.3       17 UNK         0.1400 
     96 CB         -9.2641  -23.2001  -48.3710 C.3       17 UNK        -0.1800 
     97 C          -7.8012  -21.8568  -50.0252 C.2       17 UNK         0.5000 
     98 O          -8.8237  -21.2628  -50.3715 O.2       17 UNK        -0.5000 
     99 N          -6.6024  -21.7043  -50.6084 N.am      18 UNK        -0.5000 
    100 CA        -6.2669  -20.8692  -51.7664 C.3       18 UNK         0.1400 
    101 CB        -6.3535  -19.3743  -51.3987 C.3       18 UNK        -0.1800 
    102 C         -7.0651  -21.2327  -53.0385 C.2       18 UNK         0.5000 
    103 O         -7.4158  -20.3504  -53.8250 O.2       18 UNK        -0.5000 
    104 N         -7.3275  -22.5316  -53.2264 N.am      19 UNK        -0.5000 
    105 CA        -7.9529  -23.0853  -54.4264 C.3       19 UNK         0.1400 
    106 CB        -8.7549  -24.3383  -54.0474 C.3       19 UNK        -0.1800 
    107 C         -6.9075  -23.4212  -55.5046 C.2       19 UNK         0.5000 
    108 O         -7.2217  -23.3414  -56.6930 O.2       19 UNK        -0.5000 
    109 N         -5.6938  -23.7921  -55.0736 N.am      20 UNK        -0.5000 
    110 CA        -4.5435  -24.0776  -55.9250 C.3       20 UNK         0.1400 
    111 CB        -3.7408  -25.2387  -55.3040 C.3       20 UNK        -0.1800 
    112 C         -3.7284  -22.7861  -56.1381 C.2       20 UNK         0.5000 
    113 O         -4.2438  -21.8450  -56.7453 O.2       20 UNK        -0.5000 
    114 N         -2.4787  -22.7571  -55.6512 N.am      21 UNK        -0.5000 
    115 CA        -1.5337  -21.6416  -55.7468 C.3       21 UNK         0.1400 
    116 CB        -0.2251  -22.0345  -55.0411 C.3       21 UNK        -0.1800 
    117 C         -2.1064  -20.3353  -55.1650 C.2       21 UNK         0.5000 
    118 O         -2.2616  -20.2278  -53.9477 O.2       21 UNK        -0.5000 
    119 N         -2.4353  -19.3922  -56.0575 N.am      22 UNK        -0.5000 
    120 CA        -3.1196  -18.1203  -55.7597 C.3       22 UNK         0.1400 
    121 C         -4.5679  -18.2903  -55.2013 C.2       22 UNK         0.5000 
    122 N         -5.2252  -19.4226  -55.4190 N.am      22 UNK        -0.7600 
    123 O         -5.1156  -17.3802  -54.5848 O.2       22 UNK        -0.5000 
    124 C124       -2.2545  -17.1482  -54.9089 C.3       23 UNK        -0.0398 
    125 S125       -0.7044  -16.6671  -55.7490 S.3       23 UNK        -0.2404 
    126 C126        0.5547  -17.6053  -54.8246 C.3       23 UNK        -0.0205 
    127 H127       -0.8860  -12.4542  -47.8981 H         1 UNK         0.0600 
    128 H128       -0.0374  -11.0285  -47.2948 H         1 UNK         0.0600 
    129 H129       -0.2152  -12.4515  -46.2639 H         1 UNK         0.0600 
    130 H130        2.0428  -10.8601  -47.9120 H         1 UNK         0.3000 
    131 H131        4.0259  -11.0556  -48.5876 H         1 UNK         0.0600 
    132 H132        2.8728  -11.7703  -50.7024 H         1 UNK         0.0800 
    133 H133        4.5673  -12.0990  -50.5913 H         1 UNK         0.0800 
    134 H134        0.9904  -13.6392  -50.6451 H         1 UNK         0.0800 
    135 H135        1.6886  -13.4503  -52.2360 H         1 UNK         0.0800 
    136 H136        1.4132  -15.2183  -53.8327 H         1 UNK         0.1150 
    137 H137       -0.0849  -19.0406  -52.5907 H         1 UNK         0.1150 
    138 H138        0.8798  -16.0591  -49.6631 H         1 UNK         0.1150 
    139 H139       -0.4434  -18.0446  -49.0622 H         1 UNK         0.0800 
    140 H140       -0.8304  -19.2775  -50.2350 H         1 UNK         0.0800 
    141 H141        0.5017  -18.9363  -47.2255 H         1 UNK         0.0800 
    142 H142        2.0185  -19.7535  -47.0763 H         1 UNK         0.0800 
    143 H143        0.9861  -21.9486  -47.4678 H         1 UNK         0.0600 
    144 H144        0.4649  -20.3561  -45.2072 H         1 UNK         0.3000 
    145 H145       -1.2058  -22.7792  -43.1749 H         1 UNK         0.0600 
    146 H146        0.6268  -22.0420  -41.6678 H         1 UNK         0.0600 
    147 H147        1.2384  -23.1329  -42.9025 H         1 UNK         0.0600 
    148 H148        1.5294  -21.4046  -43.0404 H         1 UNK         0.0600 
    149 H149       -0.5815  -20.0516  -42.6889 H         1 UNK         0.3000 
    150 H150       -3.6239  -18.6634  -44.0311 H         1 UNK         0.0600 
    151 H151       -4.0767  -19.4650  -41.7014 H         1 UNK         0.0600 
    152 H152       -3.6854  -17.7527  -41.7387 H         1 UNK         0.0600 
    153 H153       -2.4802  -18.9195  -41.1995 H         1 UNK         0.0600 
    154 H154       -1.3863  -17.4002  -42.8277 H         1 UNK         0.3000 
    155 H155        0.5439  -16.9199  -45.8280 H         1 UNK         0.0600 
    156 H156       -0.9965  -15.0308  -43.9801 H         1 UNK         0.0600 
    157 H157        0.4501  -14.6019  -44.8944 H         1 UNK         0.0600 
    158 H158       -1.0296  -15.0349  -45.7376 H         1 UNK         0.0600 
    159 H159        1.1077  -16.2515  -43.1236 H         1 UNK         0.3000 
    160 H160        2.6325  -19.3554  -42.1870 H         1 UNK         0.0600 
    161 H161        4.5127  -17.7680  -41.7085 H         1 UNK         0.0600 
    162 H162        3.8328  -16.6340  -42.8763 H         1 UNK         0.0600 
    163 H163        4.4272  -18.2044  -43.4081 H         1 UNK         0.0600 
    164 H164        2.2317  -16.7701  -40.9385 H         1 UNK         0.3000 
    165 H165       -0.7838  -17.7278  -39.2465 H         1 UNK         0.0600 
    166 H166        0.6010  -17.0110  -37.3231 H         1 UNK         0.0600 
    167 H167        1.1387  -18.5830  -37.8926 H         1 UNK         0.0600 
    168 H168        2.0713  -17.1440  -38.2880 H         1 UNK         0.0600 
    169 H169        0.7122  -15.2981  -39.2510 H         1 UNK         0.3000 
    170 H170       -0.8627  -13.7448  -42.0256 H         1 UNK         0.0600 
    171 H171       -1.3768  -13.2801  -39.0423 H         1 UNK         0.0600 
    172 H172       -1.6526  -12.1203  -40.3429 H         1 UNK         0.0600 
    173 H173       -2.6185  -13.5834  -40.2516 H         1 UNK         0.0600 
    174 H174        0.7708  -12.5528  -40.1305 H         1 UNK         0.3000 
    175 H175        2.8393  -11.7944  -41.5115 H         1 UNK         0.0600 
    176 H176        4.2843  -12.0909  -39.4356 H         1 UNK         0.0600 
    177 H177        3.4569  -13.6156  -39.1250 H         1 UNK         0.0600 
    178 H178        2.5637  -12.1041  -39.1102 H         1 UNK         0.0600 
    179 H179        4.4547  -12.6878  -42.7212 H         1 UNK         0.3000 
    180 H180        6.7141  -13.4880  -42.7594 H         1 UNK         0.0600 
    181 H181        6.8476  -16.4731  -42.0859 H         1 UNK         0.0600 
    182 H182        7.6399  -15.1888  -41.1810 H         1 UNK         0.0600 
    183 H183        8.1202  -15.5118  -42.8384 H         1 UNK         0.0600 
    184 H184        5.9814  -15.8246  -44.2452 H         1 UNK         0.3000 
    185 H185        5.6002  -15.1773  -46.6677 H         1 UNK         0.0600 
    186 H186        4.2710  -16.8145  -45.3834 H         1 UNK         0.0600 
    187 H187        2.8799  -15.7323  -45.3651 H         1 UNK         0.0600 
    188 H188        3.4167  -16.4689  -46.8722 H         1 UNK         0.0600 
    189 H189        2.9962  -14.0641  -47.2192 H         1 UNK         0.3000 
    190 H190       -1.8971  -19.8900  -46.7378 H         1 UNK         0.3000 
    191 H191       -3.3649  -20.5383  -49.0627 H         1 UNK         0.0600 
    192 H192       -3.9224  -18.6231  -47.6017 H         1 UNK         0.0600 
    193 H193       -5.3175  -19.6775  -47.7773 H         1 UNK         0.0600 
    194 H194       -4.3739  -19.7116  -46.2921 H         1 UNK         0.0600 
    195 H195       -3.3542  -22.1272  -45.8316 H         1 UNK         0.3000 
    196 H196       -5.2971  -24.1050  -46.3857 H         1 UNK         0.0600 
    197 H197       -4.3135  -25.2649  -44.4077 H         1 UNK         0.0600 
    198 H198       -4.5449  -23.5510  -44.0965 H         1 UNK         0.0600 
    199 H199       -2.9334  -24.1747  -44.4390 H         1 UNK         0.0600 
    200 H200       -1.7194  -24.2057  -46.7904 H         1 UNK         0.3000 
    201 H201       -1.5418  -26.8451  -47.8208 H         1 UNK         0.0600 
    202 H202        0.4122  -25.5856  -46.9645 H         1 UNK         0.0600 
    203 H203        0.2751  -24.4193  -48.2780 H         1 UNK         0.0600 
    204 H204        0.7010  -26.0912  -48.6224 H         1 UNK         0.0600 
    205 H205       -2.2967  -23.7686  -49.3972 H         1 UNK         0.3000 
    206 H206       -2.4509  -24.8954  -52.0887 H         1 UNK         0.0600 
    207 H207       -1.6948  -22.5571  -51.7114 H         1 UNK         0.0600 
    208 H208       -3.1504  -22.5893  -52.6890 H         1 UNK         0.0600 
    209 H209       -3.2457  -22.1532  -50.9875 H         1 UNK         0.0600 
    210 H210       -4.2819  -25.7819  -49.6900 H         1 UNK         0.3000 
    211 H211       -6.2692  -26.6775  -49.4010 H         1 UNK         0.0600 
    212 H212       -6.5850  -26.5084  -52.4447 H         1 UNK         0.0600 
    213 H213       -7.5358  -27.5161  -51.3628 H         1 UNK         0.0600 
    214 H214       -5.8172  -27.8192  -51.5549 H         1 UNK         0.0600 
    215 H215       -6.1568  -24.1179  -48.7391 H         1 UNK         0.3000 
    216 H216       -7.3197  -22.3847  -48.0282 H         1 UNK         0.0600 
    217 H217       -9.7653  -22.3064  -47.9980 H         1 UNK         0.0600 
    218 H218       -9.2421  -23.9236  -47.5562 H         1 UNK         0.0600 
    219 H219       -9.8848  -23.6096  -49.1681 H         1 UNK         0.0600 
    220 H220       -5.8319  -22.2291  -50.2067 H         1 UNK         0.3000 
    221 H221       -5.2244  -21.0836  -52.0038 H         1 UNK         0.0600 
    222 H222       -7.3799  -19.0657  -51.1988 H         1 UNK         0.0600 
    223 H223       -5.7560  -19.1509  -50.5149 H         1 UNK         0.0600 
    224 H224       -5.9758  -18.7502  -52.2094 H         1 UNK         0.0600 
    225 H225       -6.9619  -23.1985  -52.5564 H         1 UNK         0.3000 
    226 H226       -8.6486  -22.3558  -54.8467 H         1 UNK         0.0600 
    227 H227       -9.5184  -24.1069  -53.3043 H         1 UNK         0.0600 
    228 H228       -9.2620  -24.7564  -54.9178 H         1 UNK         0.0600 
    229 H229       -8.1130  -25.1167  -53.6351 H         1 UNK         0.0600 
    230 H230       -5.5305  -23.8416  -54.0709 H         1 UNK         0.3000 
    231 H231       -4.8853  -24.4048  -56.9090 H         1 UNK         0.0600 
    232 H232       -3.3578  -24.9911  -54.3150 H         1 UNK         0.0600 
    233 H233       -2.8949  -25.5162  -55.9343 H         1 UNK         0.0600 
    234 H234       -4.3642  -26.1269  -55.1986 H         1 UNK         0.0600 
    235 H235       -2.1469  -23.5714  -55.1571 H         1 UNK         0.3000 
    236 H236       -1.3110  -21.4878  -56.8046 H         1 UNK         0.0600 
    237 H237        0.2249  -22.9134  -55.5030 H         1 UNK         0.0600 
    238 H238        0.5068  -21.2280  -55.0982 H         1 UNK         0.0600 
    239 H239       -0.3865  -22.2558  -53.9851 H         1 UNK         0.0600 
    240 H240       -2.3028  -19.5890  -57.0389 H         1 UNK         0.3000 
    241 H241       -3.2696  -17.6423  -56.7282 H         1 UNK         0.0600 
    242 H242       -4.7995  -20.1843  -55.9387 H         1 UNK         0.3800 
    243 H243       -6.1460  -19.5505  -55.0118 H         1 UNK         0.3800 
    244 H244       -2.7990  -16.2223  -54.7179 H         1 UNK         0.0800 
    245 H245       -2.0473  -17.5744  -53.9277 H         1 UNK         0.0800 
    246 H246        1.5242  -17.4568  -55.3018 H         1 UNK         0.0800 
    247 H247        0.3388  -18.6710  -54.9006 H         1 UNK         0.0800 
@<TRIPOS>BOND
     1    1    2 1    
     2    1  127 1    
     3    1  128 1    
     4    1  129 1    
     5    2    3 2    
     6    2    4 am   BACKBONE|DICT|INTERRES
     7    4    5 1    
     8    4  130 1    
     9    5    6 1    
    10    5   65 1    
    11    5  131 1    
    12    6    7 1    
    13    6  132 1    
    14    6  133 1    
    15    7    8 1    
    16    8    9 1    
    17    8  134 1    
    18    8  135 1    
    19    9   10 ar   
    20    9   14 ar   
    21   10   11 ar   
    22   10  136 1    
    23   11   12 ar   
    24   11  126 1    
    25   12   13 ar   
    26   12  137 1    
    27   13   14 ar   
    28   13   15 1    
    29   14  138 1    
    30   15   16 1    
    31   15  139 1    
    32   15  140 1    
    33   16   17 1    
    34   17   18 1    
    35   17  141 1    
    36   17  142 1    
    37   18   19 1    
    38   18   67 1    
    39   18  143 1    
    40   19   20 am   BACKBONE|DICT|INTERRES
    41   19  144 1    
    42   20   21 2    
    43   20   22 1    
    44   22   23 1    
    45   22   24 1    
    46   22  145 1    
    47   23  146 1    
    48   23  147 1    
    49   23  148 1    
    50   24   25 am   BACKBONE|DICT|INTERRES
    51   24  149 1    
    52   25   26 2    
    53   25   27 1    
    54   27   28 1    
    55   27   29 1    
    56   27  150 1    
    57   28  151 1    
    58   28  152 1    
    59   28  153 1    
    60   29   30 am   BACKBONE|DICT|INTERRES
    61   29  154 1    
    62   30   31 2    
    63   30   32 1    
    64   32   33 1    
    65   32   34 1    
    66   32  155 1    
    67   33  156 1    
    68   33  157 1    
    69   33  158 1    
    70   34   35 am   BACKBONE|DICT|INTERRES
    71   34  159 1    
    72   35   36 2    
    73   35   37 1    
    74   37   38 1    
    75   37   39 1    
    76   37  160 1    
    77   38  161 1    
    78   38  162 1    
    79   38  163 1    
    80   39   40 am   BACKBONE|DICT|INTERRES
    81   39  164 1    
    82   40   41 2    
    83   40   42 1    
    84   42   43 1    
    85   42   44 1    
    86   42  165 1    
    87   43  166 1    
    88   43  167 1    
    89   43  168 1    
    90   44   45 am   BACKBONE|DICT|INTERRES
    91   44  169 1    
    92   45   46 2    
    93   45   47 1    
    94   47   48 1    
    95   47   49 1    
    96   47  170 1    
    97   48  171 1    
    98   48  172 1    
    99   48  173 1    
   100   49   50 am   BACKBONE|DICT|INTERRES
   101   49  174 1    
   102   50   51 2    
   103   50   52 1    
   104   52   53 1    
   105   52   54 1    
   106   52  175 1    
   107   53  176 1    
   108   53  177 1    
   109   53  178 1    
   110   54   55 am   BACKBONE|DICT|INTERRES
   111   54  179 1    
   112   55   56 2    
   113   55   57 1    
   114   57   58 1    
   115   57   59 1    
   116   57  180 1    
   117   58  181 1    
   118   58  182 1    
   119   58  183 1    
   120   59   60 am   BACKBONE|DICT|INTERRES
   121   59  184 1    
   122   60   61 2    
   123   60   62 1    
   124   62   63 1    
   125   62   64 1    
   126   62  185 1    
   127   63  186 1    
   128   63  187 1    
   129   63  188 1    
   130   64   65 am   BACKBONE|DICT|INTERRES
   131   64  189 1    
   132   65   66 2    
   133   67   68 2    
   134   67   69 am   BACKBONE|DICT|INTERRES
   135   69   70 1    
   136   69  190 1    
   137   70   71 1    
   138   70   72 1    
   139   70  191 1    
   140   71  192 1    
   141   71  193 1    
   142   71  194 1    
   143   72   73 2    
   144   72   74 am   BACKBONE|DICT|INTERRES
   145   74   75 1    
   146   74  195 1    
   147   75   76 1    
   148   75   77 1    
   149   75  196 1    
   150   76  197 1    
   151   76  198 1    
   152   76  199 1    
   153   77   78 2    
   154   77   79 am   BACKBONE|DICT|INTERRES
   155   79   80 1    
   156   79  200 1    
   157   80   81 1    
   158   80   82 1    
   159   80  201 1    
   160   81  202 1    
   161   81  203 1    
   162   81  204 1    
   163   82   83 2    
   164   82   84 am   BACKBONE|DICT|INTERRES
   165   84   85 1    
   166   84  205 1    
   167   85   86 1    
   168   85   87 1    
   169   85  206 1    
   170   86  207 1    
   171   86  208 1    
   172   86  209 1    
   173   87   88 2    
   174   87   89 am   BACKBONE|DICT|INTERRES
   175   89   90 1    
   176   89  210 1    
   177   90   91 1    
   178   90   92 1    
   179   90  211 1    
   180   91  212 1    
   181   91  213 1    
   182   91  214 1    
   183   92   93 2    
   184   92   94 am   BACKBONE|DICT|INTERRES
   185   94   95 1    
   186   94  215 1    
   187   95   96 1    
   188   95   97 1    
   189   95  216 1    
   190   96  217 1    
   191   96  218 1    
   192   96  219 1    
   193   97   98 2    
   194   97   99 am   BACKBONE|DICT|INTERRES
   195   99  100 1    
   196   99  220 1    
   197  100  101 1    
   198  100  102 1    
   199  100  221 1    
   200  101  222 1    
   201  101  223 1    
   202  101  224 1    
   203  102  103 2    
   204  102  104 am   BACKBONE|DICT|INTERRES
   205  104  105 1    
   206  104  225 1    
   207  105  106 1    
   208  105  107 1    
   209  105  226 1    
   210  106  227 1    
   211  106  228 1    
   212  106  229 1    
   213  107  108 2    
   214  107  109 am   BACKBONE|DICT|INTERRES
   215  109  110 1    
   216  109  230 1    
   217  110  111 1    
   218  110  112 1    
   219  110  231 1    
   220  111  232 1    
   221  111  233 1    
   222  111  234 1    
   223  112  113 2    
   224  112  114 am   BACKBONE|DICT|INTERRES
   225  114  115 1    
   226  114  235 1    
   227  115  116 1    
   228  115  117 1    
   229  115  236 1    
   230  116  237 1    
   231  116  238 1    
   232  116  239 1    
   233  117  118 2    
   234  117  119 am   BACKBONE|DICT|INTERRES
   235  119  120 1    
   236  119  240 1    
   237  120  121 1    
   238  120  124 1    
   239  120  241 1    
   240  121  122 am   BACKBONE|DICT|INTERRES
   241  121  123 2    
   242  122  242 1    
   243  122  243 1    
   244  124  125 1    
   245  124  244 1    
   246  124  245 1    
   247  125  126 1    
   248  126  246 1    
   249  126  247 1    
@<TRIPOS>SUBSTRUCTURE
     1 UNK         1 GROUP             0       ****    0 ROOT    
