@<TRIPOS>MOLECULE
3R540
247   249    1
SMALL
USER_CHARGES


@<TRIPOS>ATOM
      1 CA         -0.5914   -6.7152  -49.0216 C.3       0 UNK        -0.1800 
      2 C          -0.3223   -8.1835  -48.7246 C.2       0 UNK         0.5000 
      3 O           0.6622   -8.7375  -49.2141 O.2       0 UNK        -0.5000 
      4 N          -1.1881   -8.8143  -47.9188 N.am      1 UNK        -0.5000 
      5 CA         -1.0899  -10.2251  -47.5212 C.3       1 UNK         0.1400 
      6 C6         -2.4096  -10.7251  -46.8776 C.3       23 UNK        -0.0398 
      7 S7         -2.5455  -12.5471  -46.8531 S.3       23 UNK        -0.2404 
      8 C8         -3.4746  -12.8310  -48.3868 C.3       23 UNK        -0.0205 
      9 C9         -3.3480  -14.2725  -48.8486 C.ar      23 UNK        -0.0193 
     10 C10        -2.3519  -14.6278  -49.7603 C.ar      23 UNK        -0.1150 
     11 C11        -2.2490  -15.9420  -50.2217 C.ar      23 UNK        -0.0193 
     12 C12        -3.1541  -16.9038  -49.7628 C.ar      23 UNK        -0.1150 
     13 C13        -4.1628  -16.5642  -48.8494 C.ar      23 UNK        -0.0193 
     14 C14        -4.2436  -15.2439  -48.3944 C.ar      23 UNK        -0.1150 
     15 C15        -5.2299  -17.5543  -48.3770 C.3       23 UNK        -0.0205 
     16 S16        -4.9393  -19.3070  -48.8015 S.3       23 UNK        -0.2404 
     17 C17        -4.5005  -20.0053  -47.1807 C.3       23 UNK        -0.0398 
     18 CA         -4.2530  -21.5275  -47.2791 C.3       11 UNK         0.1400 
     19 N          -3.0681  -21.8395  -48.0870 N.am      11 UNK        -0.5000 
     20 C          -2.5682  -23.0605  -48.3234 C.2       10 UNK         0.5000 
     21 O          -3.1350  -24.1025  -47.9979 O.2       10 UNK        -0.5000 
     22 CA         -1.1745  -23.1471  -48.9738 C.3       10 UNK         0.1400 
     23 CB         -1.2918  -23.5456  -50.4457 C.3       10 UNK        -0.1800 
     24 N          -0.3779  -21.9220  -48.8793 N.am      10 UNK        -0.5000 
     25 C          -0.0312  -21.2982  -47.7472 C.2       9 UNK         0.5000 
     26 O          -0.3063  -21.7215  -46.6199 O.2       9 UNK        -0.5000 
     27 CA          0.6387  -19.9298  -47.9299 C.3       9 UNK         0.1400 
     28 CB         -0.4168  -18.8797  -48.3189 C.3       9 UNK        -0.1800 
     29 N           1.2943  -19.4955  -46.7027 N.am      9 UNK        -0.5000 
     30 C           2.5416  -19.8238  -46.3451 C.2       8 UNK         0.5000 
     31 O           3.2902  -20.5151  -47.0368 O.2       8 UNK        -0.5000 
     32 CA          3.0578  -19.2669  -45.0039 C.3       8 UNK         0.1400 
     33 CB          4.0997  -18.1663  -45.2508 C.3       8 UNK        -0.1800 
     34 N           1.9833  -18.7284  -44.1649 N.am      8 UNK        -0.5000 
     35 C           1.2468  -19.4794  -43.3348 C.2       7 UNK         0.5000 
     36 O           1.4382  -20.6817  -43.1519 O.2       7 UNK        -0.5000 
     37 CA          0.1044  -18.7752  -42.5823 C.3       7 UNK         0.1400 
     38 CB          0.6365  -18.1036  -41.3073 C.3       7 UNK        -0.1800 
     39 N          -0.5993  -17.7748  -43.3817 N.am      7 UNK        -0.5000 
     40 C          -1.3220  -17.9872  -44.4884 C.2       6 UNK         0.5000 
     41 O          -1.4666  -19.0968  -44.9979 O.2       6 UNK        -0.5000 
     42 CA         -1.9752  -16.7606  -45.1682 C.3       6 UNK         0.1400 
     43 CB         -3.4692  -16.6573  -44.8110 C.3       6 UNK        -0.1800 
     44 N          -1.2786  -15.4850  -44.9403 N.am      6 UNK        -0.5000 
     45 C          -1.0910  -14.8107  -43.7948 C.2       5 UNK         0.5000 
     46 O          -1.5933  -15.1394  -42.7196 O.2       5 UNK        -0.5000 
     47 CA         -0.1137  -13.6172  -43.8496 C.3       5 UNK         0.1400 
     48 CB          0.5567  -13.3351  -42.4898 C.3       5 UNK        -0.1800 
     49 N           0.9083  -13.7391  -44.8954 N.am      5 UNK        -0.5000 
     50 C           1.8111  -14.7171  -45.0712 C.2       4 UNK         0.5000 
     51 O           1.8849  -15.7227  -44.3621 O.2       4 UNK        -0.5000 
     52 CA          2.7752  -14.5658  -46.2600 C.3       4 UNK         0.1400 
     53 CB          2.1915  -15.2578  -47.5022 C.3       4 UNK        -0.1800 
     54 N           3.0580  -13.1628  -46.5762 N.am      4 UNK        -0.5000 
     55 C           4.2839  -12.6350  -46.7053 C.2       3 UNK         0.5000 
     56 O           5.3240  -13.2882  -46.6109 O.2       3 UNK        -0.5000 
     57 CA          4.3788  -11.1180  -46.9836 C.3       3 UNK         0.1400 
     58 CB          4.4944  -10.8570  -48.4931 C.3       3 UNK        -0.1800 
     59 N           3.2477  -10.3518  -46.4581 N.am      3 UNK        -0.5000 
     60 C           2.9470  -10.2168  -45.1596 C.2       2 UNK         0.5000 
     61 O           3.6735  -10.6195  -44.2505 O.2       2 UNK        -0.5000 
     62 CA          1.6020   -9.5466  -44.8021 C.3       2 UNK         0.1400 
     63 CB          1.8407   -8.1211  -44.2805 C.3       2 UNK        -0.1800 
     64 N           0.5864   -9.4889  -45.8636 N.am      2 UNK        -0.5000 
     65 C           0.1198  -10.5071  -46.6032 C.2       1 UNK         0.5000 
     66 O           0.6097  -11.6353  -46.5917 O.2       1 UNK        -0.5000 
     67 C          -4.1979  -22.1560  -45.8711 C.2       11 UNK         0.5000 
     68 O          -5.2183  -22.6554  -45.3964 O.2       11 UNK        -0.5000 
     69 N          -3.0076  -22.1619  -45.2586 N.am      12 UNK        -0.5000 
     70 CA         -2.7398  -22.8495  -44.0005 C.3       12 UNK         0.1400 
     71 CB         -1.9618  -21.9106  -43.0716 C.3       12 UNK        -0.1800 
     72 C          -1.9504  -24.1439  -44.2449 C.2       12 UNK         0.5000 
     73 O          -2.3122  -25.1830  -43.6928 O.2       12 UNK        -0.5000 
     74 N          -0.8936  -24.0689  -45.0681 N.am      13 UNK        -0.5000 
     75 CA          0.0894  -25.1410  -45.2528 C.3       13 UNK         0.1400 
     76 CB          1.3272  -24.5739  -45.9659 C.3       13 UNK        -0.1800 
     77 C          -0.4399  -26.3918  -45.9821 C.2       13 UNK         0.5000 
     78 O           0.1353  -27.4675  -45.8114 O.2       13 UNK        -0.5000 
     79 N          -1.5136  -26.2428  -46.7671 N.am      14 UNK        -0.5000 
     80 CA         -2.1756  -27.3227  -47.5014 C.3       14 UNK         0.1400 
     81 CB         -1.7710  -27.2492  -48.9850 C.3       14 UNK        -0.1800 
     82 C          -3.7036  -27.2662  -47.3186 C.2       14 UNK         0.5000 
     83 O          -4.4312  -27.8162  -48.1451 O.2       14 UNK        -0.5000 
     84 N          -4.1716  -26.5782  -46.2640 N.am      15 UNK        -0.5000 
     85 CA         -5.5792  -26.3806  -45.8901 C.3       15 UNK         0.1400 
     86 CB         -6.1587  -27.6903  -45.3171 C.3       15 UNK        -0.1800 
     87 C          -6.4580  -25.7843  -47.0161 C.2       15 UNK         0.5000 
     88 O          -7.6392  -26.1198  -47.1184 O.2       15 UNK        -0.5000 
     89 N          -5.8539  -24.9223  -47.8469 N.am      16 UNK        -0.5000 
     90 CA         -6.4311  -24.2333  -49.0041 C.3       16 UNK         0.1400 
     91 CB         -7.6303  -23.3503  -48.5952 C.3       16 UNK        -0.1800 
     92 C          -6.7455  -25.1504  -50.2037 C.2       16 UNK         0.5000 
     93 O          -7.4671  -24.7257  -51.1070 O.2       16 UNK        -0.5000 
     94 N          -6.1670  -26.3617  -50.2420 N.am      17 UNK        -0.5000 
     95 CA         -6.3131  -27.3084  -51.3554 C.3       17 UNK         0.1400 
     96 CB         -5.7638  -28.6794  -50.9346 C.3       17 UNK        -0.1800 
     97 C          -5.6336  -26.8385  -52.6590 C.2       17 UNK         0.5000 
     98 O          -6.0409  -27.2610  -53.7418 O.2       17 UNK        -0.5000 
     99 N          -4.6239  -25.9698  -52.5311 N.am      18 UNK        -0.5000 
    100 CA        -3.8807  -25.3549  -53.6285 C.3       18 UNK         0.1400 
    101 CB        -2.6336  -26.2023  -53.9447 C.3       18 UNK        -0.1800 
    102 C         -3.5449  -23.9007  -53.2569 C.2       18 UNK         0.5000 
    103 O         -2.4012  -23.4757  -53.4131 O.2       18 UNK        -0.5000 
    104 N         -4.5505  -23.1776  -52.7375 N.am      19 UNK        -0.5000 
    105 CA        -4.4840  -21.8507  -52.1025 C.3       19 UNK         0.1400 
    106 CB        -5.9204  -21.3604  -51.8650 C.3       19 UNK        -0.1800 
    107 C         -3.6792  -20.7565  -52.8363 C.2       19 UNK         0.5000 
    108 O         -3.1591  -19.8524  -52.1826 O.2       19 UNK        -0.5000 
    109 N         -3.5806  -20.8581  -54.1685 N.am      20 UNK        -0.5000 
    110 CA        -2.7933  -19.9711  -55.0266 C.3       20 UNK         0.1400 
    111 CB        -3.1147  -20.2902  -56.4947 C.3       20 UNK        -0.1800 
    112 C         -1.2705  -20.0405  -54.7816 C.2       20 UNK         0.5000 
    113 O         -0.5707  -19.0800  -55.1074 O.2       20 UNK        -0.5000 
    114 N         -0.7771  -21.1551  -54.2214 N.am      21 UNK        -0.5000 
    115 CA         0.6159  -21.3383  -53.8192 C.3       21 UNK         0.1400 
    116 CB         0.9149  -22.8408  -53.6920 C.3       21 UNK        -0.1800 
    117 C          0.9006  -20.5687  -52.5153 C.2       21 UNK         0.5000 
    118 O          0.7148  -21.1046  -51.4197 O.2       21 UNK        -0.5000 
    119 N          1.2975  -19.3013  -52.6644 N.am      22 UNK        -0.5000 
    120 CA         1.6413  -18.3977  -51.5606 C.3       22 UNK         0.1400 
    121 C          3.0473  -18.6583  -50.9477 C.2       22 UNK         0.5000 
    122 N          3.3606  -18.0187  -49.8295 N.am      22 UNK        -0.7600 
    123 O          3.8610  -19.4126  -51.4767 O.2       22 UNK        -0.5000 
    124 C124        1.4237  -16.9112  -51.9589 C.3       23 UNK        -0.0398 
    125 S125        0.4972  -16.0131  -50.6724 S.3       23 UNK        -0.2404 
    126 C126       -1.2000  -16.3128  -51.2596 C.3       23 UNK        -0.0205 
    127 H127       -0.7152   -6.5664  -50.0943 H         1 UNK         0.0600 
    128 H128        0.2472   -6.1050  -48.6862 H         1 UNK         0.0600 
    129 H129       -1.4928   -6.3586  -48.5227 H         1 UNK         0.0600 
    130 H130       -1.9779   -8.3035  -47.5494 H         1 UNK         0.3000 
    131 H131       -0.9279  -10.7967  -48.4380 H         1 UNK         0.0600 
    132 H132       -3.2677  -10.3283  -47.4223 H         1 UNK         0.0800 
    133 H133       -2.5130  -10.3517  -45.8571 H         1 UNK         0.0800 
    134 H134       -3.1082  -12.1630  -49.1681 H         1 UNK         0.0800 
    135 H135       -4.5232  -12.5745  -48.2287 H         1 UNK         0.0800 
    136 H136       -1.6609  -13.8791  -50.1217 H         1 UNK         0.1150 
    137 H137       -3.0810  -17.9093  -50.1503 H         1 UNK         0.1150 
    138 H138       -5.0227  -14.9634  -47.6993 H         1 UNK         0.1150 
    139 H139       -5.3631  -17.4553  -47.2990 H         1 UNK         0.0800 
    140 H140       -6.1792  -17.2601  -48.8262 H         1 UNK         0.0800 
    141 H141       -5.3217  -19.7913  -46.4937 H         1 UNK         0.0800 
    142 H142       -3.6213  -19.4896  -46.7903 H         1 UNK         0.0800 
    143 H143       -5.1094  -21.9723  -47.7836 H         1 UNK         0.0600 
    144 H144       -2.5394  -21.0450  -48.4135 H         1 UNK         0.3000 
    145 H145       -0.6366  -23.9399  -48.4540 H         1 UNK         0.0600 
    146 H146       -0.3316  -23.8905  -50.8270 H         1 UNK         0.0600 
    147 H147       -2.0081  -24.3528  -50.5965 H         1 UNK         0.0600 
    148 H148       -1.6115  -22.7012  -51.0559 H         1 UNK         0.0600 
    149 H149       -0.0730  -21.5292  -49.7688 H         1 UNK         0.3000 
    150 H150        1.3775  -20.0059  -48.7299 H         1 UNK         0.0600 
    151 H151       -0.8491  -19.0975  -49.2962 H         1 UNK         0.0600 
    152 H152        0.0151  -17.8807  -48.3693 H         1 UNK         0.0600 
    153 H153       -1.2412  -18.8487  -47.6077 H         1 UNK         0.0600 
    154 H154        0.7068  -19.0397  -46.0195 H         1 UNK         0.3000 
    155 H155        3.5550  -20.0835  -44.4761 H         1 UNK         0.0600 
    156 H156        3.6961  -17.3731  -45.8770 H         1 UNK         0.0600 
    157 H157        4.9767  -18.5675  -45.7600 H         1 UNK         0.0600 
    158 H158        4.4398  -17.7208  -44.3157 H         1 UNK         0.0600 
    159 H159        1.8004  -17.7308  -44.2301 H         1 UNK         0.3000 
    160 H160       -0.6211  -19.5332  -42.2864 H         1 UNK         0.0600 
    161 H161        1.3391  -17.3019  -41.5396 H         1 UNK         0.0600 
    162 H162        1.1550  -18.8234  -40.6724 H         1 UNK         0.0600 
    163 H163       -0.1756  -17.6765  -40.7184 H         1 UNK         0.0600 
    164 H164       -0.5880  -16.8271  -43.0234 H         1 UNK         0.3000 
    165 H165       -1.9123  -16.9358  -46.2432 H         1 UNK         0.0600 
    166 H166       -3.6247  -16.5051  -43.7429 H         1 UNK         0.0600 
    167 H167       -3.9433  -15.8315  -45.3415 H         1 UNK         0.0600 
    168 H168       -3.9985  -17.5694  -45.0880 H         1 UNK         0.0600 
    169 H169       -0.8068  -15.1138  -45.7526 H         1 UNK         0.3000 
    170 H170       -0.7155  -12.7458  -44.1112 H         1 UNK         0.0600 
    171 H171       -0.1852  -13.1003  -41.7257 H         1 UNK         0.0600 
    172 H172        1.1303  -14.1934  -42.1383 H         1 UNK         0.0600 
    173 H173        1.2342  -12.4835  -42.5545 H         1 UNK         0.0600 
    174 H174        0.8814  -12.9841  -45.5790 H         1 UNK         0.3000 
    175 H175        3.6972  -15.0765  -45.9785 H         1 UNK         0.0600 
    176 H176        1.2755  -14.7701  -47.8388 H         1 UNK         0.0600 
    177 H177        2.9011  -15.2399  -48.3294 H         1 UNK         0.0600 
    178 H178        1.9510  -16.3021  -47.2981 H         1 UNK         0.0600 
    179 H179        2.2568  -12.5449  -46.6670 H         1 UNK         0.3000 
    180 H180        5.2871  -10.7509  -46.5014 H         1 UNK         0.0600 
    181 H181        3.5995  -11.1813  -49.0261 H         1 UNK         0.0600 
    182 H182        5.3434  -11.3932  -48.9191 H         1 UNK         0.0600 
    183 H183        4.6432   -9.7971  -48.7004 H         1 UNK         0.0600 
    184 H184        2.5873   -9.9975  -47.1352 H         1 UNK         0.3000 
    185 H185        1.1716  -10.1359  -43.9901 H         1 UNK         0.0600 
    186 H186        2.2264   -7.4680  -45.0643 H         1 UNK         0.0600 
    187 H187        0.9202   -7.6801  -43.8973 H         1 UNK         0.0600 
    188 H188        2.5637   -8.1160  -43.4635 H         1 UNK         0.0600 
    189 H189        0.1347   -8.5941  -45.9832 H         1 UNK         0.3000 
    190 H190       -2.2096  -21.7363  -45.7191 H         1 UNK         0.3000 
    191 H191       -3.6710  -23.1170  -43.4968 H         1 UNK         0.0600 
    192 H192       -1.7241  -22.3965  -42.1247 H         1 UNK         0.0600 
    193 H193       -2.5411  -21.0150  -42.8467 H         1 UNK         0.0600 
    194 H194       -1.0242  -21.5958  -43.5287 H         1 UNK         0.0600 
    195 H195       -0.6686  -23.1786  -45.5064 H         1 UNK         0.3000 
    196 H196        0.4035  -25.4664  -44.2588 H         1 UNK         0.0600 
    197 H197        1.0965  -24.2322  -46.9738 H         1 UNK         0.0600 
    198 H198        1.7465  -23.7301  -45.4170 H         1 UNK         0.0600 
    199 H199        2.1105  -25.3285  -46.0485 H         1 UNK         0.0600 
    200 H200       -1.9358  -25.3271  -46.8688 H         1 UNK         0.3000 
    201 H201       -1.8632  -28.2923  -47.1091 H         1 UNK         0.0600 
    202 H202       -2.1616  -26.3498  -49.4585 H         1 UNK         0.0600 
    203 H203       -2.1566  -28.1047  -49.5407 H         1 UNK         0.0600 
    204 H204       -0.6873  -27.2489  -49.1018 H         1 UNK         0.0600 
    205 H205       -3.4942  -26.1724  -45.6328 H         1 UNK         0.3000 
    206 H206       -5.5786  -25.6400  -45.0889 H         1 UNK         0.0600 
    207 H207       -5.5384  -28.0744  -44.5073 H         1 UNK         0.0600 
    208 H208       -7.1585  -27.5342  -44.9105 H         1 UNK         0.0600 
    209 H209       -6.2317  -28.4656  -46.0806 H         1 UNK         0.0600 
    210 H210       -4.8630  -24.7432  -47.7000 H         1 UNK         0.3000 
    211 H211       -5.6461  -23.5676  -49.3631 H         1 UNK         0.0600 
    212 H212       -7.9216  -22.6808  -49.4046 H         1 UNK         0.0600 
    213 H213       -7.3924  -22.7287  -47.7322 H         1 UNK         0.0600 
    214 H214       -8.5062  -23.9483  -48.3434 H         1 UNK         0.0600 
    215 H215       -5.6017  -26.6695  -49.4573 H         1 UNK         0.3000 
    216 H216       -7.3793  -27.4203  -51.5632 H         1 UNK         0.0600 
    217 H217       -4.6923  -28.6382  -50.7349 H         1 UNK         0.0600 
    218 H218       -5.9227  -29.4216  -51.7178 H         1 UNK         0.0600 
    219 H219       -6.2592  -29.0448  -50.0348 H         1 UNK         0.0600 
    220 H220       -4.3629  -25.6779  -51.6004 H         1 UNK         0.3000 
    221 H221       -4.5059  -25.3100  -54.5226 H         1 UNK         0.0600 
    222 H222       -2.9084  -27.2197  -54.2233 H         1 UNK         0.0600 
    223 H223       -1.9609  -26.2593  -53.0879 H         1 UNK         0.0600 
    224 H224       -2.0718  -25.7788  -54.7781 H         1 UNK         0.0600 
    225 H225       -5.4551  -23.6261  -52.6931 H         1 UNK         0.3000 
    226 H226       -4.0100  -21.9881  -51.1290 H         1 UNK         0.0600 
    227 H227       -6.4765  -21.2853  -52.8002 H         1 UNK         0.0600 
    228 H228       -6.4662  -22.0326  -51.2054 H         1 UNK         0.0600 
    229 H229       -5.9318  -20.3738  -51.4009 H         1 UNK         0.0600 
    230 H230       -4.0253  -21.6446  -54.6176 H         1 UNK         0.3000 
    231 H231       -3.1074  -18.9454  -54.8225 H         1 UNK         0.0600 
    232 H232       -2.8428  -21.3149  -56.7513 H         1 UNK         0.0600 
    233 H233       -2.5691  -19.6273  -57.1677 H         1 UNK         0.0600 
    234 H234       -4.1767  -20.1605  -56.7042 H         1 UNK         0.0600 
    235 H235       -1.4186  -21.8988  -53.9583 H         1 UNK         0.3000 
    236 H236        1.2673  -20.9426  -54.6015 H         1 UNK         0.0600 
    237 H237        0.7927  -23.3473  -54.6494 H         1 UNK         0.0600 
    238 H238        1.9403  -23.0086  -53.3608 H         1 UNK         0.0600 
    239 H239        0.2542  -23.3264  -52.9760 H         1 UNK         0.0600 
    240 H240        1.3923  -18.9309  -53.5995 H         1 UNK         0.3000 
    241 H241        0.9384  -18.6420  -50.7652 H         1 UNK         0.0600 
    242 H242        4.2672  -18.1741  -49.4178 H         1 UNK         0.3800 
    243 H243        2.7208  -17.3682  -49.4037 H         1 UNK         0.3800 
    244 H244        0.8690  -16.8279  -52.8951 H         1 UNK         0.0800 
    245 H245        2.3679  -16.3944  -52.1411 H         1 UNK         0.0800 
    246 H246       -1.3750  -15.7333  -52.1669 H         1 UNK         0.0800 
    247 H247       -1.3005  -17.3635  -51.5395 H         1 UNK         0.0800 
@<TRIPOS>BOND
     1    1    2 1    
     2    1  127 1    
     3    1  128 1    
     4    1  129 1    
     5    2    3 2    
     6    2    4 am   BACKBONE|DICT|INTERRES
     7    4    5 1    
     8    4  130 1    
     9    5    6 1    
    10    5   65 1    
    11    5  131 1    
    12    6    7 1    
    13    6  132 1    
    14    6  133 1    
    15    7    8 1    
    16    8    9 1    
    17    8  134 1    
    18    8  135 1    
    19    9   10 ar   
    20    9   14 ar   
    21   10   11 ar   
    22   10  136 1    
    23   11   12 ar   
    24   11  126 1    
    25   12   13 ar   
    26   12  137 1    
    27   13   14 ar   
    28   13   15 1    
    29   14  138 1    
    30   15   16 1    
    31   15  139 1    
    32   15  140 1    
    33   16   17 1    
    34   17   18 1    
    35   17  141 1    
    36   17  142 1    
    37   18   19 1    
    38   18   67 1    
    39   18  143 1    
    40   19   20 am   BACKBONE|DICT|INTERRES
    41   19  144 1    
    42   20   21 2    
    43   20   22 1    
    44   22   23 1    
    45   22   24 1    
    46   22  145 1    
    47   23  146 1    
    48   23  147 1    
    49   23  148 1    
    50   24   25 am   BACKBONE|DICT|INTERRES
    51   24  149 1    
    52   25   26 2    
    53   25   27 1    
    54   27   28 1    
    55   27   29 1    
    56   27  150 1    
    57   28  151 1    
    58   28  152 1    
    59   28  153 1    
    60   29   30 am   BACKBONE|DICT|INTERRES
    61   29  154 1    
    62   30   31 2    
    63   30   32 1    
    64   32   33 1    
    65   32   34 1    
    66   32  155 1    
    67   33  156 1    
    68   33  157 1    
    69   33  158 1    
    70   34   35 am   BACKBONE|DICT|INTERRES
    71   34  159 1    
    72   35   36 2    
    73   35   37 1    
    74   37   38 1    
    75   37   39 1    
    76   37  160 1    
    77   38  161 1    
    78   38  162 1    
    79   38  163 1    
    80   39   40 am   BACKBONE|DICT|INTERRES
    81   39  164 1    
    82   40   41 2    
    83   40   42 1    
    84   42   43 1    
    85   42   44 1    
    86   42  165 1    
    87   43  166 1    
    88   43  167 1    
    89   43  168 1    
    90   44   45 am   BACKBONE|DICT|INTERRES
    91   44  169 1    
    92   45   46 2    
    93   45   47 1    
    94   47   48 1    
    95   47   49 1    
    96   47  170 1    
    97   48  171 1    
    98   48  172 1    
    99   48  173 1    
   100   49   50 am   BACKBONE|DICT|INTERRES
   101   49  174 1    
   102   50   51 2    
   103   50   52 1    
   104   52   53 1    
   105   52   54 1    
   106   52  175 1    
   107   53  176 1    
   108   53  177 1    
   109   53  178 1    
   110   54   55 am   BACKBONE|DICT|INTERRES
   111   54  179 1    
   112   55   56 2    
   113   55   57 1    
   114   57   58 1    
   115   57   59 1    
   116   57  180 1    
   117   58  181 1    
   118   58  182 1    
   119   58  183 1    
   120   59   60 am   BACKBONE|DICT|INTERRES
   121   59  184 1    
   122   60   61 2    
   123   60   62 1    
   124   62   63 1    
   125   62   64 1    
   126   62  185 1    
   127   63  186 1    
   128   63  187 1    
   129   63  188 1    
   130   64   65 am   BACKBONE|DICT|INTERRES
   131   64  189 1    
   132   65   66 2    
   133   67   68 2    
   134   67   69 am   BACKBONE|DICT|INTERRES
   135   69   70 1    
   136   69  190 1    
   137   70   71 1    
   138   70   72 1    
   139   70  191 1    
   140   71  192 1    
   141   71  193 1    
   142   71  194 1    
   143   72   73 2    
   144   72   74 am   BACKBONE|DICT|INTERRES
   145   74   75 1    
   146   74  195 1    
   147   75   76 1    
   148   75   77 1    
   149   75  196 1    
   150   76  197 1    
   151   76  198 1    
   152   76  199 1    
   153   77   78 2    
   154   77   79 am   BACKBONE|DICT|INTERRES
   155   79   80 1    
   156   79  200 1    
   157   80   81 1    
   158   80   82 1    
   159   80  201 1    
   160   81  202 1    
   161   81  203 1    
   162   81  204 1    
   163   82   83 2    
   164   82   84 am   BACKBONE|DICT|INTERRES
   165   84   85 1    
   166   84  205 1    
   167   85   86 1    
   168   85   87 1    
   169   85  206 1    
   170   86  207 1    
   171   86  208 1    
   172   86  209 1    
   173   87   88 2    
   174   87   89 am   BACKBONE|DICT|INTERRES
   175   89   90 1    
   176   89  210 1    
   177   90   91 1    
   178   90   92 1    
   179   90  211 1    
   180   91  212 1    
   181   91  213 1    
   182   91  214 1    
   183   92   93 2    
   184   92   94 am   BACKBONE|DICT|INTERRES
   185   94   95 1    
   186   94  215 1    
   187   95   96 1    
   188   95   97 1    
   189   95  216 1    
   190   96  217 1    
   191   96  218 1    
   192   96  219 1    
   193   97   98 2    
   194   97   99 am   BACKBONE|DICT|INTERRES
   195   99  100 1    
   196   99  220 1    
   197  100  101 1    
   198  100  102 1    
   199  100  221 1    
   200  101  222 1    
   201  101  223 1    
   202  101  224 1    
   203  102  103 2    
   204  102  104 am   BACKBONE|DICT|INTERRES
   205  104  105 1    
   206  104  225 1    
   207  105  106 1    
   208  105  107 1    
   209  105  226 1    
   210  106  227 1    
   211  106  228 1    
   212  106  229 1    
   213  107  108 2    
   214  107  109 am   BACKBONE|DICT|INTERRES
   215  109  110 1    
   216  109  230 1    
   217  110  111 1    
   218  110  112 1    
   219  110  231 1    
   220  111  232 1    
   221  111  233 1    
   222  111  234 1    
   223  112  113 2    
   224  112  114 am   BACKBONE|DICT|INTERRES
   225  114  115 1    
   226  114  235 1    
   227  115  116 1    
   228  115  117 1    
   229  115  236 1    
   230  116  237 1    
   231  116  238 1    
   232  116  239 1    
   233  117  118 2    
   234  117  119 am   BACKBONE|DICT|INTERRES
   235  119  120 1    
   236  119  240 1    
   237  120  121 1    
   238  120  124 1    
   239  120  241 1    
   240  121  122 am   BACKBONE|DICT|INTERRES
   241  121  123 2    
   242  122  242 1    
   243  122  243 1    
   244  124  125 1    
   245  124  244 1    
   246  124  245 1    
   247  125  126 1    
   248  126  246 1    
   249  126  247 1    
@<TRIPOS>SUBSTRUCTURE
     1 UNK         1 GROUP             0       ****    0 ROOT    
