@<TRIPOS>MOLECULE
3R540
247   249    1
SMALL
USER_CHARGES


@<TRIPOS>ATOM
      1 CA          2.1096  -11.2385  -46.0416 C.3       0 UNK        -0.1800 
      2 C           1.4589  -12.2709  -46.9492 C.2       0 UNK         0.5000 
      3 O           0.2345  -12.2899  -47.0832 O.2       0 UNK        -0.5000 
      4 N           2.2710  -13.1208  -47.5932 N.am      1 UNK        -0.5000 
      5 CA          1.8440  -14.1675  -48.5316 C.3       1 UNK         0.1400 
      6 C6          2.8808  -15.3170  -48.6204 C.3       23 UNK        -0.0398 
      7 S7          2.1068  -16.8821  -49.1493 S.3       23 UNK        -0.2404 
      8 C8          3.1241  -17.3380  -50.5860 C.3       23 UNK        -0.0205 
      9 C9          2.4859  -18.4840  -51.3554 C.ar      23 UNK        -0.0193 
     10 C10         1.9259  -18.2589  -52.6138 C.ar      23 UNK        -0.1150 
     11 C11         1.2821  -19.2888  -53.3015 C.ar      23 UNK        -0.0193 
     12 C12         1.2370  -20.5658  -52.7332 C.ar      23 UNK        -0.1150 
     13 C13         1.7984  -20.8167  -51.4750 C.ar      23 UNK        -0.0193 
     14 C14         2.4290  -19.7637  -50.7969 C.ar      23 UNK        -0.1150 
     15 C15         1.6684  -22.2278  -50.8919 C.3       23 UNK        -0.0205 
     16 S16         2.6636  -22.5836  -49.4012 S.3       23 UNK        -0.2404 
     17 C17         1.6650  -21.8225  -48.0734 C.3       23 UNK        -0.0398 
     18 CA          0.9605  -22.8911  -47.1981 C.3       11 UNK         0.1400 
     19 N           0.9246  -22.5294  -45.7775 N.am      11 UNK        -0.5000 
     20 C           0.6021  -23.3816  -44.7927 C.2       10 UNK         0.5000 
     21 O           0.3481  -24.5718  -44.9784 O.2       10 UNK        -0.5000 
     22 CA          0.4904  -22.7997  -43.3708 C.3       10 UNK         0.1400 
     23 CB          1.8718  -22.6769  -42.7116 C.3       10 UNK        -0.1800 
     24 N          -0.1906  -21.5043  -43.3519 N.am      10 UNK        -0.5000 
     25 C          -1.4729  -21.3283  -43.7022 C.2       9 UNK         0.5000 
     26 O          -2.2292  -22.2520  -43.9986 O.2       9 UNK        -0.5000 
     27 CA         -1.9857  -19.8806  -43.7880 C.3       9 UNK         0.1400 
     28 CB         -2.4353  -19.3780  -42.4086 C.3       9 UNK        -0.1800 
     29 N          -0.9919  -18.9635  -44.3416 N.am      9 UNK        -0.5000 
     30 C          -0.4870  -19.0226  -45.5818 C.2       8 UNK         0.5000 
     31 O          -0.8369  -19.8438  -46.4280 O.2       8 UNK        -0.5000 
     32 CA          0.6451  -18.0334  -45.9034 C.3       8 UNK         0.1400 
     33 CB          0.1029  -16.6190  -46.1590 C.3       8 UNK        -0.1800 
     34 N           1.6261  -17.9770  -44.8224 N.am      8 UNK        -0.5000 
     35 C           2.4521  -18.9775  -44.4908 C.2       7 UNK         0.5000 
     36 O           2.4907  -20.0571  -45.0806 O.2       7 UNK        -0.5000 
     37 CA          3.3621  -18.7357  -43.2728 C.3       7 UNK         0.1400 
     38 CB          4.6669  -18.0505  -43.7049 C.3       7 UNK        -0.1800 
     39 N           2.7107  -17.9282  -42.2379 N.am      7 UNK        -0.5000 
     40 C           1.6863  -18.3536  -41.4851 C.2       6 UNK         0.5000 
     41 O           1.1997  -19.4816  -41.5684 O.2       6 UNK        -0.5000 
     42 CA          1.0694  -17.3215  -40.5203 C.3       6 UNK         0.1400 
     43 CB          1.9304  -17.1730  -39.2568 C.3       6 UNK        -0.1800 
     44 N           0.8642  -16.0030  -41.1341 N.am      6 UNK        -0.5000 
     45 C           0.0659  -15.7850  -42.1867 C.2       5 UNK         0.5000 
     46 O          -0.5557  -16.6844  -42.7590 O.2       5 UNK        -0.5000 
     47 CA         -0.0422  -14.3460  -42.7165 C.3       5 UNK         0.1400 
     48 CB          1.2723  -13.9217  -43.4015 C.3       5 UNK        -0.1800 
     49 N          -1.1565  -14.3326  -43.6606 N.am      5 UNK        -0.5000 
     50 C          -1.6782  -13.3019  -44.3289 C.2       4 UNK         0.5000 
     51 O          -1.2977  -12.1340  -44.2212 O.2       4 UNK        -0.5000 
     52 CA         -2.8619  -13.6430  -45.2465 C.3       4 UNK         0.1400 
     53 CB         -4.1925  -13.4886  -44.4845 C.3       4 UNK        -0.1800 
     54 N          -2.8307  -12.7773  -46.4207 N.am      4 UNK        -0.5000 
     55 C          -3.5681  -12.9231  -47.5290 C.2       3 UNK         0.5000 
     56 O          -4.3621  -13.8459  -47.7116 O.2       3 UNK        -0.5000 
     57 CA         -3.3698  -11.8722  -48.6303 C.3       3 UNK         0.1400 
     58 CB         -3.2711  -10.4412  -48.0528 C.3       3 UNK        -0.1800 
     59 N          -2.1734  -12.2336  -49.3804 N.am      3 UNK        -0.5000 
     60 C          -1.6851  -11.6248  -50.4702 C.2       2 UNK         0.5000 
     61 O          -2.2520  -10.6922  -51.0416 O.2       2 UNK        -0.5000 
     62 CA         -0.3115  -12.1159  -50.9740 C.3       2 UNK         0.1400 
     63 CB          0.5230  -10.9957  -51.6249 C.3       2 UNK        -0.1800 
     64 N           0.4219  -12.7110  -49.8607 N.am      2 UNK        -0.5000 
     65 C           1.4307  -13.5823  -49.9029 C.2       1 UNK         0.5000 
     66 O           2.0115  -13.9156  -50.9373 O.2       1 UNK        -0.5000 
     67 C          -0.4419  -23.2474  -47.7353 C.2       11 UNK         0.5000 
     68 O          -0.5785  -24.2336  -48.4567 O.2       11 UNK        -0.5000 
     69 N          -1.4647  -22.4793  -47.3328 N.am      12 UNK        -0.5000 
     70 CA         -2.8750  -22.7381  -47.6301 C.3       12 UNK         0.1400 
     71 CB         -3.7290  -21.5594  -47.1391 C.3       12 UNK        -0.1800 
     72 C          -3.3749  -24.0729  -47.0498 C.2       12 UNK         0.5000 
     73 O          -4.0395  -24.8317  -47.7557 O.2       12 UNK        -0.5000 
     74 N          -3.0052  -24.3641  -45.7952 N.am      13 UNK        -0.5000 
     75 CA         -3.2956  -25.6294  -45.1201 C.3       13 UNK         0.1400 
     76 CB         -2.8958  -25.5297  -43.6404 C.3       13 UNK        -0.1800 
     77 C          -2.6158  -26.8365  -45.7936 C.2       13 UNK         0.5000 
     78 O          -3.2451  -27.8869  -45.9235 O.2       13 UNK        -0.5000 
     79 N          -1.3619  -26.6588  -46.2338 N.am      14 UNK        -0.5000 
     80 CA         -0.5948  -27.6589  -46.9779 C.3       14 UNK         0.1400 
     81 CB          0.8788  -27.2295  -47.0483 C.3       14 UNK        -0.1800 
     82 C          -1.1605  -27.9145  -48.3881 C.2       14 UNK         0.5000 
     83 O          -1.2494  -29.0699  -48.8057 O.2       14 UNK        -0.5000 
     84 N          -1.5433  -26.8381  -49.0887 N.am      15 UNK        -0.5000 
     85 CA         -2.1525  -26.8785  -50.4195 C.3       15 UNK         0.1400 
     86 CB         -2.1319  -25.4645  -51.0232 C.3       15 UNK        -0.1800 
     87 C          -3.5923  -27.4256  -50.4176 C.2       15 UNK         0.5000 
     88 O          -4.0240  -27.9803  -51.4288 O.2       15 UNK        -0.5000 
     89 N          -4.3043  -27.2344  -49.2967 N.am      16 UNK        -0.5000 
     90 CA         -5.7326  -27.4916  -49.0881 C.3       16 UNK         0.1400 
     91 CB         -6.0529  -28.9977  -49.1862 C.3       16 UNK        -0.1800 
     92 C          -6.6059  -26.6106  -50.0071 C.2       16 UNK         0.5000 
     93 O          -7.5804  -27.0856  -50.5937 O.2       16 UNK        -0.5000 
     94 N          -6.2164  -25.3371  -50.1257 N.am      17 UNK        -0.5000 
     95 CA         -6.8132  -24.3216  -50.9863 C.3       17 UNK         0.1400 
     96 CB         -6.3241  -24.5192  -52.4335 C.3       17 UNK        -0.1800 
     97 C          -6.4060  -22.9407  -50.4551 C.2       17 UNK         0.5000 
     98 O          -5.5033  -22.8516  -49.6213 O.2       17 UNK        -0.5000 
     99 N          -7.0366  -21.8754  -50.9649 N.am      18 UNK        -0.5000 
    100 CA        -6.7929  -20.4744  -50.5922 C.3       18 UNK         0.1400 
    101 CB        -8.0046  -19.6311  -51.0285 C.3       18 UNK        -0.1800 
    102 C         -5.4555  -19.9073  -51.1294 C.2       18 UNK         0.5000 
    103 O         -5.4164  -18.7986  -51.6657 O.2       18 UNK        -0.5000 
    104 N         -4.3692  -20.6708  -50.9620 N.am      19 UNK        -0.5000 
    105 CA        -3.0234  -20.3786  -51.4610 C.3       19 UNK         0.1400 
    106 CB        -2.1747  -21.6563  -51.3898 C.3       19 UNK        -0.1800 
    107 C         -2.3257  -19.2054  -50.7435 C.2       19 UNK         0.5000 
    108 O         -1.2779  -18.7568  -51.1969 O.2       19 UNK        -0.5000 
    109 N         -2.9198  -18.6922  -49.6593 N.am      20 UNK        -0.5000 
    110 CA        -2.4692  -17.4719  -48.9936 C.3       20 UNK         0.1400 
    111 CB        -3.2165  -17.3234  -47.6597 C.3       20 UNK        -0.1800 
    112 C         -2.6623  -16.2116  -49.8627 C.2       20 UNK         0.5000 
    113 O         -1.8857  -15.2631  -49.7374 O.2       20 UNK        -0.5000 
    114 N         -3.6875  -16.2314  -50.7292 N.am      21 UNK        -0.5000 
    115 CA        -4.0778  -15.1128  -51.5843 C.3       21 UNK         0.1400 
    116 CB        -5.5065  -15.3439  -52.0984 C.3       21 UNK        -0.1800 
    117 C         -3.1126  -14.8727  -52.7579 C.2       21 UNK         0.5000 
    118 O         -2.9162  -13.7173  -53.1354 O.2       21 UNK        -0.5000 
    119 N         -2.5194  -15.9442  -53.3071 N.am      22 UNK        -0.5000 
    120 CA        -1.4732  -15.8519  -54.3439 C.3       22 UNK         0.1400 
    121 C         -0.0757  -15.4325  -53.8052 C.2       22 UNK         0.5000 
    122 N          0.1322  -15.3768  -52.4968 N.am      22 UNK        -0.7600 
    123 O          0.8186  -15.1210  -54.5867 O.2       22 UNK        -0.5000 
    124 C124       -1.4131  -17.0937  -55.2757 C.3       23 UNK        -0.0398 
    125 S125       -1.1708  -18.6991  -54.4387 S.3       23 UNK        -0.2404 
    126 C126        0.6159  -19.0128  -54.6427 C.3       23 UNK        -0.0205 
    127 H127        3.0635  -11.5945  -45.6523 H         1 UNK         0.0600 
    128 H128        1.4596  -11.0141  -45.1960 H         1 UNK         0.0600 
    129 H129        2.2821  -10.3134  -46.5911 H         1 UNK         0.0600 
    130 H130        3.2695  -13.0256  -47.4730 H         1 UNK         0.3000 
    131 H131        0.9297  -14.5969  -48.1173 H         1 UNK         0.0600 
    132 H132        3.7196  -15.0534  -49.2668 H         1 UNK         0.0800 
    133 H133        3.3115  -15.5054  -47.6360 H         1 UNK         0.0800 
    134 H134        4.1211  -17.6275  -50.2516 H         1 UNK         0.0800 
    135 H135        3.2481  -16.4678  -51.2328 H         1 UNK         0.0800 
    136 H136        1.9698  -17.2721  -53.0488 H         1 UNK         0.1150 
    137 H137        0.7374  -21.3627  -53.2655 H         1 UNK         0.1150 
    138 H138        2.8610  -19.9133  -49.8193 H         1 UNK         0.1150 
    139 H139        0.6201  -22.4321  -50.6730 H         1 UNK         0.0800 
    140 H140        1.9638  -22.9448  -51.6592 H         1 UNK         0.0800 
    141 H141        0.9615  -21.0929  -48.4810 H         1 UNK         0.0800 
    142 H142        2.3631  -21.2429  -47.4688 H         1 UNK         0.0800 
    143 H143        1.5526  -23.8080  -47.2450 H         1 UNK         0.0600 
    144 H144        1.1600  -21.5716  -45.5409 H         1 UNK         0.3000 
    145 H145       -0.1042  -23.4954  -42.7750 H         1 UNK         0.0600 
    146 H146        1.7888  -22.3128  -41.6874 H         1 UNK         0.0600 
    147 H147        2.3713  -23.6457  -42.6734 H         1 UNK         0.0600 
    148 H148        2.5232  -21.9950  -43.2569 H         1 UNK         0.0600 
    149 H149        0.3529  -20.7011  -43.0566 H         1 UNK         0.3000 
    150 H150       -2.8519  -19.8700  -44.4517 H         1 UNK         0.0600 
    151 H151       -3.1903  -20.0374  -41.9788 H         1 UNK         0.0600 
    152 H152       -2.8730  -18.3819  -42.4764 H         1 UNK         0.0600 
    153 H153       -1.6020  -19.3287  -41.7069 H         1 UNK         0.0600 
    154 H154       -0.6721  -18.2246  -43.7192 H         1 UNK         0.3000 
    155 H155        1.1562  -18.3815  -46.8027 H         1 UNK         0.0600 
    156 H156        0.9033  -15.8806  -46.1529 H         1 UNK         0.0600 
    157 H157       -0.3783  -16.5528  -47.1311 H         1 UNK         0.0600 
    158 H158       -0.6326  -16.3229  -45.4144 H         1 UNK         0.0600 
    159 H159        1.6307  -17.1449  -44.2540 H         1 UNK         0.3000 
    160 H160        3.6117  -19.7084  -42.8439 H         1 UNK         0.0600 
    161 H161        4.4839  -17.0612  -44.1265 H         1 UNK         0.0600 
    162 H162        5.1838  -18.6400  -44.4634 H         1 UNK         0.0600 
    163 H163        5.3497  -17.9361  -42.8628 H         1 UNK         0.0600 
    164 H164        3.0512  -16.9872  -42.1065 H         1 UNK         0.3000 
    165 H165        0.0910  -17.7022  -40.2190 H         1 UNK         0.0600 
    166 H166        1.4488  -16.5229  -38.5262 H         1 UNK         0.0600 
    167 H167        2.0874  -18.1394  -38.7758 H         1 UNK         0.0600 
    168 H168        2.9122  -16.7551  -39.4825 H         1 UNK         0.0600 
    169 H169        1.3490  -15.2248  -40.7107 H         1 UNK         0.3000 
    170 H170       -0.2690  -13.6779  -41.8839 H         1 UNK         0.0600 
    171 H171        2.1215  -14.0107  -42.7233 H         1 UNK         0.0600 
    172 H172        1.4874  -14.5298  -44.2797 H         1 UNK         0.0600 
    173 H173        1.2330  -12.8811  -43.7181 H         1 UNK         0.0600 
    174 H174       -1.5600  -15.2559  -43.7706 H         1 UNK         0.3000 
    175 H175       -2.7557  -14.6763  -45.5799 H         1 UNK         0.0600 
    176 H176       -4.1965  -14.0938  -43.5771 H         1 UNK         0.0600 
    177 H177       -4.3655  -12.4530  -44.1896 H         1 UNK         0.0600 
    178 H178       -5.0415  -13.8116  -45.0866 H         1 UNK         0.0600 
    179 H179       -2.1413  -12.0355  -46.3693 H         1 UNK         0.3000 
    180 H180       -4.2295  -11.9239  -49.3011 H         1 UNK         0.0600 
    181 H181       -2.3308  -10.2776  -47.5250 H         1 UNK         0.0600 
    182 H182       -4.0838  -10.2443  -47.3524 H         1 UNK         0.0600 
    183 H183       -3.3431   -9.6891  -48.8380 H         1 UNK         0.0600 
    184 H184       -1.7129  -13.0780  -49.0600 H         1 UNK         0.3000 
    185 H185       -0.5093  -12.8851  -51.7204 H         1 UNK         0.0600 
    186 H186        1.4759  -11.3735  -51.9952 H         1 UNK         0.0600 
    187 H187       -0.0007  -10.5600  -52.4765 H         1 UNK         0.0600 
    188 H188        0.7318  -10.1925  -50.9175 H         1 UNK         0.0600 
    189 H189        0.0856  -12.4541  -48.9349 H         1 UNK         0.3000 
    190 H190       -1.2606  -21.6439  -46.7898 H         1 UNK         0.3000 
    191 H191       -2.9814  -22.8050  -48.7121 H         1 UNK         0.0600 
    192 H192       -3.6653  -21.4367  -46.0595 H         1 UNK         0.0600 
    193 H193       -4.7811  -21.7053  -47.3837 H         1 UNK         0.0600 
    194 H194       -3.4116  -20.6257  -47.6010 H         1 UNK         0.0600 
    195 H195       -2.5084  -23.6611  -45.2544 H         1 UNK         0.3000 
    196 H196       -4.3748  -25.7893  -45.1682 H         1 UNK         0.0600 
    197 H197       -3.1269  -26.4543  -43.1101 H         1 UNK         0.0600 
    198 H198       -3.4343  -24.7243  -43.1406 H         1 UNK         0.0600 
    199 H199       -1.8288  -25.3409  -43.5224 H         1 UNK         0.0600 
    200 H200       -0.8946  -25.7800  -46.0346 H         1 UNK         0.3000 
    201 H201       -0.6446  -28.5991  -46.4248 H         1 UNK         0.0600 
    202 H202        1.3024  -27.1107  -46.0509 H         1 UNK         0.0600 
    203 H203        0.9998  -26.2838  -47.5767 H         1 UNK         0.0600 
    204 H204        1.4783  -27.9762  -47.5703 H         1 UNK         0.0600 
    205 H205       -1.3652  -25.9137  -48.7023 H         1 UNK         0.3000 
    206 H206       -1.5483  -27.5311  -51.0529 H         1 UNK         0.0600 
    207 H207       -1.1140  -25.0825  -51.1027 H         1 UNK         0.0600 
    208 H208       -2.5611  -25.4585  -52.0259 H         1 UNK         0.0600 
    209 H209       -2.7059  -24.7626  -50.4166 H         1 UNK         0.0600 
    210 H210       -3.8645  -26.6892  -48.5630 H         1 UNK         0.3000 
    211 H211       -5.9495  -27.1759  -48.0666 H         1 UNK         0.0600 
    212 H212       -5.9247  -29.3781  -50.1997 H         1 UNK         0.0600 
    213 H213       -7.0844  -29.1950  -48.8928 H         1 UNK         0.0600 
    214 H214       -5.4103  -29.5793  -48.5251 H         1 UNK         0.0600 
    215 H215       -5.4504  -24.9954  -49.5517 H         1 UNK         0.3000 
    216 H216       -7.9011  -24.4013  -50.9433 H         1 UNK         0.0600 
    217 H217       -5.2381  -24.4406  -52.5019 H         1 UNK         0.0600 
    218 H218       -6.7516  -23.7720  -53.1027 H         1 UNK         0.0600 
    219 H219       -6.6110  -25.4975  -52.8194 H         1 UNK         0.0600 
    220 H220       -7.7377  -22.0247  -51.6762 H         1 UNK         0.3000 
    221 H221       -6.7342  -20.4218  -49.5030 H         1 UNK         0.0600 
    222 H222       -8.9284  -20.0114  -50.5923 H         1 UNK         0.0600 
    223 H223       -8.1210  -19.6272  -52.1130 H         1 UNK         0.0600 
    224 H224       -7.9004  -18.5945  -50.7050 H         1 UNK         0.0600 
    225 H225       -4.5011  -21.5544  -50.4764 H         1 UNK         0.3000 
    226 H226       -3.1226  -20.1005  -52.5119 H         1 UNK         0.0600 
    227 H227       -2.7196  -22.5249  -51.7597 H         1 UNK         0.0600 
    228 H228       -1.2842  -21.5510  -52.0066 H         1 UNK         0.0600 
    229 H229       -1.8398  -21.8663  -50.3753 H         1 UNK         0.0600 
    230 H230       -3.7787  -19.1094  -49.3364 H         1 UNK         0.3000 
    231 H231       -1.4023  -17.5811  -48.7947 H         1 UNK         0.0600 
    232 H232       -4.2923  -17.2250  -47.8100 H         1 UNK         0.0600 
    233 H233       -2.8817  -16.4348  -47.1256 H         1 UNK         0.0600 
    234 H234       -3.0450  -18.1796  -47.0082 H         1 UNK         0.0600 
    235 H235       -4.2514  -17.0692  -50.8012 H         1 UNK         0.3000 
    236 H236       -4.0827  -14.2086  -50.9713 H         1 UNK         0.0600 
    237 H237       -6.2096  -15.4581  -51.2731 H         1 UNK         0.0600 
    238 H238       -5.8457  -14.5000  -52.7005 H         1 UNK         0.0600 
    239 H239       -5.5709  -16.2377  -52.7202 H         1 UNK         0.0600 
    240 H240       -2.6962  -16.8637  -52.9291 H         1 UNK         0.3000 
    241 H241       -1.7588  -15.0257  -54.9981 H         1 UNK         0.0600 
    242 H242        1.0118  -15.0231  -52.1349 H         1 UNK         0.3800 
    243 H243       -0.5907  -15.6549  -51.8520 H         1 UNK         0.3800 
    244 H244       -0.6553  -16.9612  -56.0495 H         1 UNK         0.0800 
    245 H245       -2.3567  -17.1636  -55.8181 H         1 UNK         0.0800 
    246 H246        0.7536  -19.8665  -55.3075 H         1 UNK         0.0800 
    247 H247        1.1020  -18.1664  -55.1297 H         1 UNK         0.0800 
@<TRIPOS>BOND
     1    1    2 1    
     2    1  127 1    
     3    1  128 1    
     4    1  129 1    
     5    2    3 2    
     6    2    4 am   BACKBONE|DICT|INTERRES
     7    4    5 1    
     8    4  130 1    
     9    5    6 1    
    10    5   65 1    
    11    5  131 1    
    12    6    7 1    
    13    6  132 1    
    14    6  133 1    
    15    7    8 1    
    16    8    9 1    
    17    8  134 1    
    18    8  135 1    
    19    9   10 ar   
    20    9   14 ar   
    21   10   11 ar   
    22   10  136 1    
    23   11   12 ar   
    24   11  126 1    
    25   12   13 ar   
    26   12  137 1    
    27   13   14 ar   
    28   13   15 1    
    29   14  138 1    
    30   15   16 1    
    31   15  139 1    
    32   15  140 1    
    33   16   17 1    
    34   17   18 1    
    35   17  141 1    
    36   17  142 1    
    37   18   19 1    
    38   18   67 1    
    39   18  143 1    
    40   19   20 am   BACKBONE|DICT|INTERRES
    41   19  144 1    
    42   20   21 2    
    43   20   22 1    
    44   22   23 1    
    45   22   24 1    
    46   22  145 1    
    47   23  146 1    
    48   23  147 1    
    49   23  148 1    
    50   24   25 am   BACKBONE|DICT|INTERRES
    51   24  149 1    
    52   25   26 2    
    53   25   27 1    
    54   27   28 1    
    55   27   29 1    
    56   27  150 1    
    57   28  151 1    
    58   28  152 1    
    59   28  153 1    
    60   29   30 am   BACKBONE|DICT|INTERRES
    61   29  154 1    
    62   30   31 2    
    63   30   32 1    
    64   32   33 1    
    65   32   34 1    
    66   32  155 1    
    67   33  156 1    
    68   33  157 1    
    69   33  158 1    
    70   34   35 am   BACKBONE|DICT|INTERRES
    71   34  159 1    
    72   35   36 2    
    73   35   37 1    
    74   37   38 1    
    75   37   39 1    
    76   37  160 1    
    77   38  161 1    
    78   38  162 1    
    79   38  163 1    
    80   39   40 am   BACKBONE|DICT|INTERRES
    81   39  164 1    
    82   40   41 2    
    83   40   42 1    
    84   42   43 1    
    85   42   44 1    
    86   42  165 1    
    87   43  166 1    
    88   43  167 1    
    89   43  168 1    
    90   44   45 am   BACKBONE|DICT|INTERRES
    91   44  169 1    
    92   45   46 2    
    93   45   47 1    
    94   47   48 1    
    95   47   49 1    
    96   47  170 1    
    97   48  171 1    
    98   48  172 1    
    99   48  173 1    
   100   49   50 am   BACKBONE|DICT|INTERRES
   101   49  174 1    
   102   50   51 2    
   103   50   52 1    
   104   52   53 1    
   105   52   54 1    
   106   52  175 1    
   107   53  176 1    
   108   53  177 1    
   109   53  178 1    
   110   54   55 am   BACKBONE|DICT|INTERRES
   111   54  179 1    
   112   55   56 2    
   113   55   57 1    
   114   57   58 1    
   115   57   59 1    
   116   57  180 1    
   117   58  181 1    
   118   58  182 1    
   119   58  183 1    
   120   59   60 am   BACKBONE|DICT|INTERRES
   121   59  184 1    
   122   60   61 2    
   123   60   62 1    
   124   62   63 1    
   125   62   64 1    
   126   62  185 1    
   127   63  186 1    
   128   63  187 1    
   129   63  188 1    
   130   64   65 am   BACKBONE|DICT|INTERRES
   131   64  189 1    
   132   65   66 2    
   133   67   68 2    
   134   67   69 am   BACKBONE|DICT|INTERRES
   135   69   70 1    
   136   69  190 1    
   137   70   71 1    
   138   70   72 1    
   139   70  191 1    
   140   71  192 1    
   141   71  193 1    
   142   71  194 1    
   143   72   73 2    
   144   72   74 am   BACKBONE|DICT|INTERRES
   145   74   75 1    
   146   74  195 1    
   147   75   76 1    
   148   75   77 1    
   149   75  196 1    
   150   76  197 1    
   151   76  198 1    
   152   76  199 1    
   153   77   78 2    
   154   77   79 am   BACKBONE|DICT|INTERRES
   155   79   80 1    
   156   79  200 1    
   157   80   81 1    
   158   80   82 1    
   159   80  201 1    
   160   81  202 1    
   161   81  203 1    
   162   81  204 1    
   163   82   83 2    
   164   82   84 am   BACKBONE|DICT|INTERRES
   165   84   85 1    
   166   84  205 1    
   167   85   86 1    
   168   85   87 1    
   169   85  206 1    
   170   86  207 1    
   171   86  208 1    
   172   86  209 1    
   173   87   88 2    
   174   87   89 am   BACKBONE|DICT|INTERRES
   175   89   90 1    
   176   89  210 1    
   177   90   91 1    
   178   90   92 1    
   179   90  211 1    
   180   91  212 1    
   181   91  213 1    
   182   91  214 1    
   183   92   93 2    
   184   92   94 am   BACKBONE|DICT|INTERRES
   185   94   95 1    
   186   94  215 1    
   187   95   96 1    
   188   95   97 1    
   189   95  216 1    
   190   96  217 1    
   191   96  218 1    
   192   96  219 1    
   193   97   98 2    
   194   97   99 am   BACKBONE|DICT|INTERRES
   195   99  100 1    
   196   99  220 1    
   197  100  101 1    
   198  100  102 1    
   199  100  221 1    
   200  101  222 1    
   201  101  223 1    
   202  101  224 1    
   203  102  103 2    
   204  102  104 am   BACKBONE|DICT|INTERRES
   205  104  105 1    
   206  104  225 1    
   207  105  106 1    
   208  105  107 1    
   209  105  226 1    
   210  106  227 1    
   211  106  228 1    
   212  106  229 1    
   213  107  108 2    
   214  107  109 am   BACKBONE|DICT|INTERRES
   215  109  110 1    
   216  109  230 1    
   217  110  111 1    
   218  110  112 1    
   219  110  231 1    
   220  111  232 1    
   221  111  233 1    
   222  111  234 1    
   223  112  113 2    
   224  112  114 am   BACKBONE|DICT|INTERRES
   225  114  115 1    
   226  114  235 1    
   227  115  116 1    
   228  115  117 1    
   229  115  236 1    
   230  116  237 1    
   231  116  238 1    
   232  116  239 1    
   233  117  118 2    
   234  117  119 am   BACKBONE|DICT|INTERRES
   235  119  120 1    
   236  119  240 1    
   237  120  121 1    
   238  120  124 1    
   239  120  241 1    
   240  121  122 am   BACKBONE|DICT|INTERRES
   241  121  123 2    
   242  122  242 1    
   243  122  243 1    
   244  124  125 1    
   245  124  244 1    
   246  124  245 1    
   247  125  126 1    
   248  126  246 1    
   249  126  247 1    
@<TRIPOS>SUBSTRUCTURE
     1 UNK         1 GROUP             0       ****    0 ROOT    
