@<TRIPOS>MOLECULE
3R540
247   249    1
SMALL
USER_CHARGES


@<TRIPOS>ATOM
      1 CA          2.6660  -10.0869  -47.1557 C.3       0 UNK        -0.1800 
      2 C           2.0640  -11.4008  -46.6792 C.2       0 UNK         0.5000 
      3 O           2.5302  -11.9680  -45.6912 O.2       0 UNK        -0.5000 
      4 N           1.0169  -11.8811  -47.3618 N.am      1 UNK        -0.5000 
      5 CA          0.2991  -13.1314  -47.0762 C.3       1 UNK         0.1400 
      6 C6         -0.3305  -13.7156  -48.3711 C.3       23 UNK        -0.0398 
      7 S7         -0.3437  -15.5416  -48.3954 S.3       23 UNK        -0.2404 
      8 C8          0.9313  -15.8849  -49.6491 C.3       23 UNK        -0.0205 
      9 C9          0.9670  -17.3501  -50.0639 C.ar      23 UNK        -0.0193 
     10 C10         0.0463  -17.8360  -50.9969 C.ar      23 UNK        -0.1150 
     11 C11         0.1181  -19.1578  -51.4470 C.ar      23 UNK        -0.0193 
     12 C12         1.1200  -19.9986  -50.9558 C.ar      23 UNK        -0.1150 
     13 C13         2.0438  -19.5291  -50.0181 C.ar      23 UNK        -0.0193 
     14 C14         1.9565  -18.2057  -49.5703 C.ar      23 UNK        -0.1150 
     15 C15         3.1646  -20.4381  -49.5275 C.3       23 UNK        -0.0205 
     16 S16         2.5634  -21.8543  -48.5496 S.3       23 UNK        -0.2404 
     17 C17         1.8413  -21.0062  -47.1066 C.3       23 UNK        -0.0398 
     18 CA          0.4453  -21.5274  -46.6937 C.3       11 UNK         0.1400 
     19 N           0.0103  -20.9243  -45.4344 N.am      11 UNK        -0.5000 
     20 C          -0.9490  -21.4161  -44.6397 C.2       10 UNK         0.5000 
     21 O          -1.5353  -22.4752  -44.8587 O.2       10 UNK        -0.5000 
     22 CA         -1.3612  -20.5604  -43.4244 C.3       10 UNK         0.1400 
     23 CB         -0.5685  -20.9634  -42.1766 C.3       10 UNK        -0.1800 
     24 N          -1.2041  -19.1233  -43.6594 N.am      10 UNK        -0.5000 
     25 C          -1.9490  -18.4330  -44.5326 C.2       9 UNK         0.5000 
     26 O          -2.8693  -18.9342  -45.1778 O.2       9 UNK        -0.5000 
     27 CA         -1.5953  -16.9504  -44.7544 C.3       9 UNK         0.1400 
     28 CB         -2.4630  -16.0820  -43.8347 C.3       9 UNK        -0.1800 
     29 N          -0.1695  -16.6085  -44.6010 N.am      9 UNK        -0.5000 
     30 C           0.8180  -17.1788  -45.3125 C.2       8 UNK         0.5000 
     31 O           0.6209  -18.1267  -46.0726 O.2       8 UNK        -0.5000 
     32 CA          2.2541  -16.6301  -45.1923 C.3       8 UNK         0.1400 
     33 CB          2.4211  -15.4069  -44.2783 C.3       8 UNK        -0.1800 
     34 N           3.1436  -17.6854  -44.7161 N.am      8 UNK        -0.5000 
     35 C           3.9709  -18.4043  -45.4875 C.2       7 UNK         0.5000 
     36 O           4.0758  -18.2475  -46.7033 O.2       7 UNK        -0.5000 
     37 CA          4.8634  -19.4588  -44.7992 C.3       7 UNK         0.1400 
     38 CB          6.3477  -19.0845  -44.9430 C.3       7 UNK        -0.1800 
     39 N           4.5702  -19.6322  -43.3766 N.am      7 UNK        -0.5000 
     40 C           3.5783  -20.3795  -42.8756 C.2       6 UNK         0.5000 
     41 O           2.8110  -21.0480  -43.5659 O.2       6 UNK        -0.5000 
     42 CA          3.4036  -20.3478  -41.3429 C.3       6 UNK         0.1400 
     43 CB          4.1555  -21.5191  -40.6936 C.3       6 UNK        -0.1800 
     44 N           3.8527  -19.0908  -40.7361 N.am      6 UNK        -0.5000 
     45 C           3.2892  -17.8947  -40.9500 C.2       5 UNK         0.5000 
     46 O           2.3021  -17.7168  -41.6690 O.2       5 UNK        -0.5000 
     47 CA          3.9997  -16.6969  -40.3104 C.3       5 UNK         0.1400 
     48 CB          5.2255  -16.2958  -41.1547 C.3       5 UNK        -0.1800 
     49 N           3.0806  -15.5676  -40.2067 N.am      5 UNK        -0.5000 
     50 C           3.2477  -14.5232  -39.3852 C.2       4 UNK         0.5000 
     51 O           4.1775  -14.4362  -38.5816 O.2       4 UNK        -0.5000 
     52 CA          2.2334  -13.3698  -39.4719 C.3       4 UNK         0.1400 
     53 CB          2.8325  -12.2012  -40.2714 C.3       4 UNK        -0.1800 
     54 N           0.9789  -13.7603  -40.1106 N.am      4 UNK        -0.5000 
     55 C          -0.1600  -14.0626  -39.4782 C.2       3 UNK         0.5000 
     56 O          -0.2576  -14.1276  -38.2515 O.2       3 UNK        -0.5000 
     57 CA         -1.4006  -14.2959  -40.3746 C.3       3 UNK         0.1400 
     58 CB         -2.7182  -14.3019  -39.5791 C.3       3 UNK        -0.1800 
     59 N          -1.5099  -13.3099  -41.4596 N.am      3 UNK        -0.5000 
     60 C          -0.7842  -13.3248  -42.5834 C.2       2 UNK         0.5000 
     61 O           0.0350  -14.2121  -42.8272 O.2       2 UNK        -0.5000 
     62 CA         -0.9663  -12.1486  -43.5576 C.3       2 UNK         0.1400 
     63 CB         -0.4327  -10.8489  -42.9322 C.3       2 UNK        -0.1800 
     64 N          -0.2291  -12.3876  -44.7973 N.am      2 UNK        -0.5000 
     65 C          -0.7093  -12.9536  -45.9102 C.2       1 UNK         0.5000 
     66 O          -1.8872  -13.2882  -46.0417 O.2       1 UNK        -0.5000 
     67 C          -0.6307  -21.3363  -47.7837 C.2       11 UNK         0.5000 
     68 O          -0.9184  -22.2820  -48.5177 O.2       11 UNK        -0.5000 
     69 N          -1.2684  -20.1554  -47.8224 N.am      12 UNK        -0.5000 
     70 CA         -2.4254  -19.8930  -48.6813 C.3       12 UNK         0.1400 
     71 CB         -2.7925  -18.4046  -48.6602 C.3       12 UNK        -0.1800 
     72 C          -3.6401  -20.7575  -48.3060 C.2       12 UNK         0.5000 
     73 O          -4.2830  -21.3086  -49.1985 O.2       12 UNK        -0.5000 
     74 N          -3.9098  -20.8999  -47.0004 N.am      13 UNK        -0.5000 
     75 CA         -4.9572  -21.7659  -46.4555 C.3       13 UNK         0.1400 
     76 CB         -5.0677  -21.5630  -44.9378 C.3       13 UNK        -0.1800 
     77 C          -4.7382  -23.2509  -46.7993 C.2       13 UNK         0.5000 
     78 O          -5.6856  -23.9170  -47.2179 O.2       13 UNK        -0.5000 
     79 N          -3.4879  -23.7241  -46.6807 N.am      14 UNK        -0.5000 
     80 CA         -3.0568  -25.0638  -47.0934 C.3       14 UNK         0.1400 
     81 CB         -1.6098  -25.3038  -46.6381 C.3       14 UNK        -0.1800 
     82 C          -3.1986  -25.3048  -48.6098 C.2       14 UNK         0.5000 
     83 O          -3.5027  -26.4246  -49.0204 O.2       14 UNK        -0.5000 
     84 N          -3.0441  -24.2398  -49.4072 N.am      15 UNK        -0.5000 
     85 CA         -3.3027  -24.1964  -50.8471 C.3       15 UNK         0.1400 
     86 CB         -2.3862  -23.1383  -51.4887 C.3       15 UNK        -0.1800 
     87 C          -4.7921  -23.9521  -51.1847 C.2       15 UNK         0.5000 
     88 O          -5.0873  -23.4218  -52.2563 O.2       15 UNK        -0.5000 
     89 N          -5.7058  -24.3346  -50.2796 N.am      16 UNK        -0.5000 
     90 CA         -7.1660  -24.2709  -50.4005 C.3       16 UNK         0.1400 
     91 CB         -7.6570  -25.2257  -51.5100 C.3       16 UNK        -0.1800 
     92 C          -7.6899  -22.8307  -50.5678 C.2       16 UNK         0.5000 
     93 O          -8.5343  -22.5757  -51.4259 O.2       16 UNK        -0.5000 
     94 N          -7.1461  -21.9084  -49.7610 N.am      17 UNK        -0.5000 
     95 CA         -7.3516  -20.4549  -49.8243 C.3       17 UNK         0.1400 
     96 CB         -8.8122  -20.0755  -49.5027 C.3       17 UNK        -0.1800 
     97 C          -6.8403  -19.8743  -51.1599 C.2       17 UNK         0.5000 
     98 O          -7.5267  -19.0825  -51.8072 O.2       17 UNK        -0.5000 
     99 N          -5.6388  -20.3267  -51.5452 N.am      18 UNK        -0.5000 
    100 CA        -4.8901  -20.0255  -52.7690 C.3       18 UNK         0.1400 
    101 CB        -4.5684  -18.5188  -52.8527 C.3       18 UNK        -0.1800 
    102 C         -5.5202  -20.5645  -54.0735 C.2       18 UNK         0.5000 
    103 O         -5.0171  -20.2520  -55.1541 O.2       18 UNK        -0.5000 
    104 N         -6.5795  -21.3795  -53.9747 N.am      19 UNK        -0.5000 
    105 CA        -7.2798  -21.9672  -55.1170 C.3       19 UNK         0.1400 
    106 CB        -8.6592  -22.4700  -54.6691 C.3       19 UNK        -0.1800 
    107 C         -6.4973  -23.1022  -55.8027 C.2       19 UNK         0.5000 
    108 O         -6.7143  -23.3409  -56.9919 O.2       19 UNK        -0.5000 
    109 N         -5.5997  -23.7794  -55.0713 N.am      20 UNK        -0.5000 
    110 CA        -4.7954  -24.9083  -55.5505 C.3       20 UNK         0.1400 
    111 CB        -4.3641  -25.7694  -54.3500 C.3       20 UNK        -0.1800 
    112 C         -3.5989  -24.4645  -56.4218 C.2       20 UNK         0.5000 
    113 O         -2.4564  -24.8273  -56.1363 O.2       20 UNK        -0.5000 
    114 N         -3.8936  -23.6912  -57.4761 N.am      21 UNK        -0.5000 
    115 CA        -2.9816  -23.1990  -58.5141 C.3       21 UNK         0.1400 
    116 CB        -2.5085  -24.3666  -59.4056 C.3       21 UNK        -0.1800 
    117 C         -1.8151  -22.3470  -57.9676 C.2       21 UNK         0.5000 
    118 O         -0.6788  -22.4899  -58.4247 O.2       21 UNK        -0.5000 
    119 N         -2.1157  -21.4727  -56.9979 N.am      22 UNK        -0.5000 
    120 CA        -1.1701  -20.4918  -56.4451 C.3       22 UNK         0.1400 
    121 C         -0.7527  -19.4249  -57.5004 C.2       22 UNK         0.5000 
    122 N          0.5253  -19.0800  -57.5800 N.am      22 UNK        -0.7600 
    123 O         -1.5856  -18.8884  -58.2282 O.2       22 UNK        -0.5000 
    124 C124       -1.7471  -19.8318  -55.1683 C.3       23 UNK        -0.0398 
    125 S125       -0.4605  -19.0488  -54.1367 S.3       23 UNK        -0.2404 
    126 C126       -0.8740  -19.6684  -52.4783 C.3       23 UNK        -0.0205 
    127 H127        3.7163  -10.2270  -47.4111 H         1 UNK         0.0600 
    128 H128        2.6027   -9.3378  -46.3665 H         1 UNK         0.0600 
    129 H129        2.1507   -9.6996  -48.0350 H         1 UNK         0.0600 
    130 H130        0.6548  -11.3416  -48.1356 H         1 UNK         0.3000 
    131 H131        1.0441  -13.8491  -46.7281 H         1 UNK         0.0600 
    132 H132        0.2308  -13.3767  -49.2427 H         1 UNK         0.0800 
    133 H133       -1.3445  -13.3477  -48.5361 H         1 UNK         0.0800 
    134 H134        1.9033  -15.5744  -49.2626 H         1 UNK         0.0800 
    135 H135        0.7441  -15.2761  -50.5350 H         1 UNK         0.0800 
    136 H136       -0.7167  -17.1781  -51.3889 H         1 UNK         0.1150 
    137 H137        1.1884  -21.0187  -51.3071 H         1 UNK         0.1150 
    138 H138        2.6750  -17.8320  -48.8549 H         1 UNK         0.1150 
    139 H139        3.7136  -20.8168  -50.3905 H         1 UNK         0.0800 
    140 H140        3.8860  -19.8766  -48.9317 H         1 UNK         0.0800 
    141 H141        1.8083  -19.9352  -47.2955 H         1 UNK         0.0800 
    142 H142        2.5356  -21.1397  -46.2774 H         1 UNK         0.0800 
    143 H143        0.5409  -22.6018  -46.5224 H         1 UNK         0.0600 
    144 H144        0.3904  -20.0074  -45.2316 H         1 UNK         0.3000 
    145 H145       -2.4166  -20.7554  -43.2253 H         1 UNK         0.0600 
    146 H146       -0.8970  -20.4070  -41.2986 H         1 UNK         0.0600 
    147 H147        0.4934  -20.7789  -42.3161 H         1 UNK         0.0600 
    148 H148       -0.6932  -22.0249  -41.9585 H         1 UNK         0.0600 
    149 H149       -0.4589  -18.6484  -43.1702 H         1 UNK         0.3000 
    150 H150       -1.8671  -16.7144  -45.7854 H         1 UNK         0.0600 
    151 H151       -3.5135  -16.3699  -43.8955 H         1 UNK         0.0600 
    152 H152       -2.4115  -15.0342  -44.1206 H         1 UNK         0.0600 
    153 H153       -2.1592  -16.1739  -42.7928 H         1 UNK         0.0600 
    154 H154        0.0463  -15.8358  -43.9773 H         1 UNK         0.3000 
    155 H155        2.5429  -16.3184  -46.1982 H         1 UNK         0.0600 
    156 H156        1.8194  -14.5694  -44.6267 H         1 UNK         0.0600 
    157 H157        3.4562  -15.0653  -44.2727 H         1 UNK         0.0600 
    158 H158        2.1453  -15.6248  -43.2478 H         1 UNK         0.0600 
    159 H159        3.0749  -17.9077  -43.7315 H         1 UNK         0.3000 
    160 H160        4.7025  -20.4085  -45.3134 H         1 UNK         0.0600 
    161 H161        6.5717  -18.1338  -44.4573 H         1 UNK         0.0600 
    162 H162        6.6295  -18.9912  -45.9927 H         1 UNK         0.0600 
    163 H163        6.9914  -19.8469  -44.5038 H         1 UNK         0.0600 
    164 H164        5.1549  -19.1219  -42.7319 H         1 UNK         0.3000 
    165 H165        2.3432  -20.4622  -41.1183 H         1 UNK         0.0600 
    166 H166        3.9820  -21.5519  -39.6178 H         1 UNK         0.0600 
    167 H167        3.8208  -22.4727  -41.1042 H         1 UNK         0.0600 
    168 H168        5.2313  -21.4496  -40.8594 H         1 UNK         0.0600 
    169 H169        4.6633  -19.1497  -40.1360 H         1 UNK         0.3000 
    170 H170        4.3226  -16.9894  -39.3089 H         1 UNK         0.0600 
    171 H171        4.9355  -15.9918  -42.1616 H         1 UNK         0.0600 
    172 H172        5.7687  -15.4669  -40.7008 H         1 UNK         0.0600 
    173 H173        5.9296  -17.1231  -41.2506 H         1 UNK         0.0600 
    174 H174        2.2684  -15.6208  -40.8074 H         1 UNK         0.3000 
    175 H175        2.0425  -13.0218  -38.4545 H         1 UNK         0.0600 
    176 H176        3.0489  -12.4871  -41.3018 H         1 UNK         0.0600 
    177 H177        2.1505  -11.3510  -40.2964 H         1 UNK         0.0600 
    178 H178        3.7648  -11.8557  -39.8229 H         1 UNK         0.0600 
    179 H179        0.9611  -13.7680  -41.1248 H         1 UNK         0.3000 
    180 H180       -1.2790  -15.2887  -40.8110 H         1 UNK         0.0600 
    181 H181       -2.8969  -13.3434  -39.0905 H         1 UNK         0.0600 
    182 H182       -2.7076  -15.0704  -38.8052 H         1 UNK         0.0600 
    183 H183       -3.5684  -14.5122  -40.2283 H         1 UNK         0.0600 
    184 H184       -2.1413  -12.5391  -41.2956 H         1 UNK         0.3000 
    185 H185       -2.0311  -12.0341  -43.7701 H         1 UNK         0.0600 
    186 H186        0.6219  -10.9338  -42.6654 H         1 UNK         0.0600 
    187 H187       -0.5350  -10.0108  -43.6219 H         1 UNK         0.0600 
    188 H188       -0.9807  -10.5875  -42.0263 H         1 UNK         0.0600 
    189 H189        0.7647  -12.1834  -44.7753 H         1 UNK         0.3000 
    190 H190       -0.9703  -19.4159  -47.1991 H         1 UNK         0.3000 
    191 H191       -2.1437  -20.1509  -49.7036 H         1 UNK         0.0600 
    192 H192       -1.9720  -17.7995  -49.0374 H         1 UNK         0.0600 
    193 H193       -3.0356  -18.0543  -47.6578 H         1 UNK         0.0600 
    194 H194       -3.6563  -18.2067  -49.2962 H         1 UNK         0.0600 
    195 H195       -3.3775  -20.3491  -46.3317 H         1 UNK         0.3000 
    196 H196       -5.9033  -21.4567  -46.9040 H         1 UNK         0.0600 
    197 H197       -5.2479  -20.5167  -44.6904 H         1 UNK         0.0600 
    198 H198       -4.1620  -21.8790  -44.4215 H         1 UNK         0.0600 
    199 H199       -5.8958  -22.1423  -44.5278 H         1 UNK         0.0600 
    200 H200       -2.7748  -23.1268  -46.2735 H         1 UNK         0.3000 
    201 H201       -3.6966  -25.7878  -46.5848 H         1 UNK         0.0600 
    202 H202       -1.5158  -25.2090  -45.5562 H         1 UNK         0.0600 
    203 H203       -0.9202  -24.5960  -47.0976 H         1 UNK         0.0600 
    204 H204       -1.2771  -26.3073  -46.9064 H         1 UNK         0.0600 
    205 H205       -2.7562  -23.3650  -48.9843 H         1 UNK         0.3000 
    206 H206       -3.0392  -25.1641  -51.2776 H         1 UNK         0.0600 
    207 H207       -1.3389  -23.3305  -51.2548 H         1 UNK         0.0600 
    208 H208       -2.6253  -22.1352  -51.1378 H         1 UNK         0.0600 
    209 H209       -2.4793  -23.1384  -52.5755 H         1 UNK         0.0600 
    210 H210       -5.3659  -24.7038  -49.4016 H         1 UNK         0.3000 
    211 H211       -7.5679  -24.6318  -49.4528 H         1 UNK         0.0600 
    212 H212       -7.3232  -24.9080  -52.4982 H         1 UNK         0.0600 
    213 H213       -8.7464  -25.2715  -51.5329 H         1 UNK         0.0600 
    214 H214       -7.2938  -26.2400  -51.3454 H         1 UNK         0.0600 
    215 H215       -6.4013  -22.2133  -49.1475 H         1 UNK         0.3000 
    216 H216       -6.7259  -20.0205  -49.0435 H         1 UNK         0.0600 
    217 H217       -8.9217  -18.9937  -49.4192 H         1 UNK         0.0600 
    218 H218       -9.1317  -20.5082  -48.5548 H         1 UNK         0.0600 
    219 H219       -9.5034  -20.4120  -50.2757 H         1 UNK         0.0600 
    220 H220       -5.1744  -20.9656  -50.9059 H         1 UNK         0.3000 
    221 H221       -3.9457  -20.5593  -52.6639 H         1 UNK         0.0600 
    222 H222       -5.4630  -17.9232  -53.0348 H         1 UNK         0.0600 
    223 H223       -4.1095  -18.1607  -51.9311 H         1 UNK         0.0600 
    224 H224       -3.8714  -18.3060  -53.6623 H         1 UNK         0.0600 
    225 H225       -6.9141  -21.6311  -53.0541 H         1 UNK         0.3000 
    226 H226       -7.4350  -21.1806  -55.8583 H         1 UNK         0.0600 
    227 H227       -9.2275  -21.6828  -54.1733 H         1 UNK         0.0600 
    228 H228       -9.2467  -22.8078  -55.5237 H         1 UNK         0.0600 
    229 H229       -8.5754  -23.3103  -53.9797 H         1 UNK         0.0600 
    230 H230       -5.4630  -23.5143  -54.0979 H         1 UNK         0.3000 
    231 H231       -5.4295  -25.5344  -56.1817 H         1 UNK         0.0600 
    232 H232       -3.8821  -26.6891  -54.6833 H         1 UNK         0.0600 
    233 H233       -5.2191  -26.0546  -53.7366 H         1 UNK         0.0600 
    234 H234       -3.6532  -25.2412  -53.7153 H         1 UNK         0.0600 
    235 H235       -4.8724  -23.4438  -57.5923 H         1 UNK         0.3000 
    236 H236       -3.5711  -22.5289  -59.1414 H         1 UNK         0.0600 
    237 H237       -1.8746  -25.0636  -58.8563 H         1 UNK         0.0600 
    238 H238       -3.3548  -24.9261  -59.8043 H         1 UNK         0.0600 
    239 H239       -1.9333  -24.0021  -60.2575 H         1 UNK         0.0600 
    240 H240       -3.0753  -21.3963  -56.6915 H         1 UNK         0.3000 
    241 H241       -0.2792  -21.0542  -56.1571 H         1 UNK         0.0600 
    242 H242        0.8055  -18.3828  -58.2521 H         1 UNK         0.3800 
    243 H243        1.2195  -19.4929  -56.9765 H         1 UNK         0.3800 
    244 H244       -2.2540  -20.5864  -54.5660 H         1 UNK         0.0800 
    245 H245       -2.5044  -19.0889  -55.4232 H         1 UNK         0.0800 
    246 H246       -0.8863  -20.7591  -52.4891 H         1 UNK         0.0800 
    247 H247       -1.8769  -19.3431  -52.2041 H         1 UNK         0.0800 
@<TRIPOS>BOND
     1    1    2 1    
     2    1  127 1    
     3    1  128 1    
     4    1  129 1    
     5    2    3 2    
     6    2    4 am   BACKBONE|DICT|INTERRES
     7    4    5 1    
     8    4  130 1    
     9    5    6 1    
    10    5   65 1    
    11    5  131 1    
    12    6    7 1    
    13    6  132 1    
    14    6  133 1    
    15    7    8 1    
    16    8    9 1    
    17    8  134 1    
    18    8  135 1    
    19    9   10 ar   
    20    9   14 ar   
    21   10   11 ar   
    22   10  136 1    
    23   11   12 ar   
    24   11  126 1    
    25   12   13 ar   
    26   12  137 1    
    27   13   14 ar   
    28   13   15 1    
    29   14  138 1    
    30   15   16 1    
    31   15  139 1    
    32   15  140 1    
    33   16   17 1    
    34   17   18 1    
    35   17  141 1    
    36   17  142 1    
    37   18   19 1    
    38   18   67 1    
    39   18  143 1    
    40   19   20 am   BACKBONE|DICT|INTERRES
    41   19  144 1    
    42   20   21 2    
    43   20   22 1    
    44   22   23 1    
    45   22   24 1    
    46   22  145 1    
    47   23  146 1    
    48   23  147 1    
    49   23  148 1    
    50   24   25 am   BACKBONE|DICT|INTERRES
    51   24  149 1    
    52   25   26 2    
    53   25   27 1    
    54   27   28 1    
    55   27   29 1    
    56   27  150 1    
    57   28  151 1    
    58   28  152 1    
    59   28  153 1    
    60   29   30 am   BACKBONE|DICT|INTERRES
    61   29  154 1    
    62   30   31 2    
    63   30   32 1    
    64   32   33 1    
    65   32   34 1    
    66   32  155 1    
    67   33  156 1    
    68   33  157 1    
    69   33  158 1    
    70   34   35 am   BACKBONE|DICT|INTERRES
    71   34  159 1    
    72   35   36 2    
    73   35   37 1    
    74   37   38 1    
    75   37   39 1    
    76   37  160 1    
    77   38  161 1    
    78   38  162 1    
    79   38  163 1    
    80   39   40 am   BACKBONE|DICT|INTERRES
    81   39  164 1    
    82   40   41 2    
    83   40   42 1    
    84   42   43 1    
    85   42   44 1    
    86   42  165 1    
    87   43  166 1    
    88   43  167 1    
    89   43  168 1    
    90   44   45 am   BACKBONE|DICT|INTERRES
    91   44  169 1    
    92   45   46 2    
    93   45   47 1    
    94   47   48 1    
    95   47   49 1    
    96   47  170 1    
    97   48  171 1    
    98   48  172 1    
    99   48  173 1    
   100   49   50 am   BACKBONE|DICT|INTERRES
   101   49  174 1    
   102   50   51 2    
   103   50   52 1    
   104   52   53 1    
   105   52   54 1    
   106   52  175 1    
   107   53  176 1    
   108   53  177 1    
   109   53  178 1    
   110   54   55 am   BACKBONE|DICT|INTERRES
   111   54  179 1    
   112   55   56 2    
   113   55   57 1    
   114   57   58 1    
   115   57   59 1    
   116   57  180 1    
   117   58  181 1    
   118   58  182 1    
   119   58  183 1    
   120   59   60 am   BACKBONE|DICT|INTERRES
   121   59  184 1    
   122   60   61 2    
   123   60   62 1    
   124   62   63 1    
   125   62   64 1    
   126   62  185 1    
   127   63  186 1    
   128   63  187 1    
   129   63  188 1    
   130   64   65 am   BACKBONE|DICT|INTERRES
   131   64  189 1    
   132   65   66 2    
   133   67   68 2    
   134   67   69 am   BACKBONE|DICT|INTERRES
   135   69   70 1    
   136   69  190 1    
   137   70   71 1    
   138   70   72 1    
   139   70  191 1    
   140   71  192 1    
   141   71  193 1    
   142   71  194 1    
   143   72   73 2    
   144   72   74 am   BACKBONE|DICT|INTERRES
   145   74   75 1    
   146   74  195 1    
   147   75   76 1    
   148   75   77 1    
   149   75  196 1    
   150   76  197 1    
   151   76  198 1    
   152   76  199 1    
   153   77   78 2    
   154   77   79 am   BACKBONE|DICT|INTERRES
   155   79   80 1    
   156   79  200 1    
   157   80   81 1    
   158   80   82 1    
   159   80  201 1    
   160   81  202 1    
   161   81  203 1    
   162   81  204 1    
   163   82   83 2    
   164   82   84 am   BACKBONE|DICT|INTERRES
   165   84   85 1    
   166   84  205 1    
   167   85   86 1    
   168   85   87 1    
   169   85  206 1    
   170   86  207 1    
   171   86  208 1    
   172   86  209 1    
   173   87   88 2    
   174   87   89 am   BACKBONE|DICT|INTERRES
   175   89   90 1    
   176   89  210 1    
   177   90   91 1    
   178   90   92 1    
   179   90  211 1    
   180   91  212 1    
   181   91  213 1    
   182   91  214 1    
   183   92   93 2    
   184   92   94 am   BACKBONE|DICT|INTERRES
   185   94   95 1    
   186   94  215 1    
   187   95   96 1    
   188   95   97 1    
   189   95  216 1    
   190   96  217 1    
   191   96  218 1    
   192   96  219 1    
   193   97   98 2    
   194   97   99 am   BACKBONE|DICT|INTERRES
   195   99  100 1    
   196   99  220 1    
   197  100  101 1    
   198  100  102 1    
   199  100  221 1    
   200  101  222 1    
   201  101  223 1    
   202  101  224 1    
   203  102  103 2    
   204  102  104 am   BACKBONE|DICT|INTERRES
   205  104  105 1    
   206  104  225 1    
   207  105  106 1    
   208  105  107 1    
   209  105  226 1    
   210  106  227 1    
   211  106  228 1    
   212  106  229 1    
   213  107  108 2    
   214  107  109 am   BACKBONE|DICT|INTERRES
   215  109  110 1    
   216  109  230 1    
   217  110  111 1    
   218  110  112 1    
   219  110  231 1    
   220  111  232 1    
   221  111  233 1    
   222  111  234 1    
   223  112  113 2    
   224  112  114 am   BACKBONE|DICT|INTERRES
   225  114  115 1    
   226  114  235 1    
   227  115  116 1    
   228  115  117 1    
   229  115  236 1    
   230  116  237 1    
   231  116  238 1    
   232  116  239 1    
   233  117  118 2    
   234  117  119 am   BACKBONE|DICT|INTERRES
   235  119  120 1    
   236  119  240 1    
   237  120  121 1    
   238  120  124 1    
   239  120  241 1    
   240  121  122 am   BACKBONE|DICT|INTERRES
   241  121  123 2    
   242  122  242 1    
   243  122  243 1    
   244  124  125 1    
   245  124  244 1    
   246  124  245 1    
   247  125  126 1    
   248  126  246 1    
   249  126  247 1    
@<TRIPOS>SUBSTRUCTURE
     1 UNK         1 GROUP             0       ****    0 ROOT    
