@<TRIPOS>MOLECULE
3R540
247   249    1
SMALL
USER_CHARGES


@<TRIPOS>ATOM
      1 CA          4.8388   -9.7477  -46.7354 C.3       0 UNK        -0.1800 
      2 C           3.7638  -10.8217  -46.6689 C.2       0 UNK         0.5000 
      3 O           3.6965  -11.5592  -45.6852 O.2       0 UNK        -0.5000 
      4 N           2.9108  -10.9042  -47.7004 N.am      1 UNK        -0.5000 
      5 CA          1.8241  -11.8854  -47.8335 C.3       1 UNK         0.1400 
      6 C6          1.1474  -11.7822  -49.2250 C.3       23 UNK        -0.0398 
      7 S7         -0.1151  -13.0418  -49.6405 S.3       23 UNK        -0.2404 
      8 C8          0.6303  -14.6104  -49.0851 C.3       23 UNK        -0.0205 
      9 C9         -0.2573  -15.7985  -49.4193 C.ar      23 UNK        -0.0193 
     10 C10         0.1810  -16.7788  -50.3124 C.ar      23 UNK        -0.1150 
     11 C11        -0.6179  -17.8908  -50.5929 C.ar      23 UNK        -0.0193 
     12 C12        -1.8737  -18.0081  -49.9876 C.ar      23 UNK        -0.1150 
     13 C13        -2.3310  -17.0263  -49.1030 C.ar      23 UNK        -0.0193 
     14 C14        -1.5121  -15.9298  -48.8175 C.ar      23 UNK        -0.1150 
     15 C15        -3.7207  -17.1164  -48.4860 C.3       23 UNK        -0.0205 
     16 S16        -3.6618  -17.2858  -46.6728 S.3       23 UNK        -0.2404 
     17 C17        -4.0101  -19.0536  -46.3953 C.3       23 UNK        -0.0398 
     18 CA         -2.9996  -20.0156  -47.0574 C.3       11 UNK         0.1400 
     19 N          -1.6064  -19.7414  -46.6943 N.am      11 UNK        -0.5000 
     20 C          -0.5640  -20.1935  -47.4058 C.2       10 UNK         0.5000 
     21 O          -0.6854  -20.8749  -48.4229 O.2       10 UNK        -0.5000 
     22 CA          0.8465  -19.8890  -46.8687 C.3       10 UNK         0.1400 
     23 CB          1.3755  -18.5605  -47.4260 C.3       10 UNK        -0.1800 
     24 N           0.9389  -19.8790  -45.4079 N.am      10 UNK        -0.5000 
     25 C           0.6652  -20.9316  -44.6215 C.2       9 UNK         0.5000 
     26 O           0.1924  -21.9885  -45.0440 O.2       9 UNK        -0.5000 
     27 CA          0.9879  -20.7740  -43.1216 C.3       9 UNK         0.1400 
     28 CB          1.0443  -22.1171  -42.3665 C.3       9 UNK        -0.1800 
     29 N           2.2126  -20.0051  -42.8931 N.am      9 UNK        -0.5000 
     30 C           3.4564  -20.2764  -43.3214 C.2       8 UNK         0.5000 
     31 O           3.7672  -21.2953  -43.9389 O.2       8 UNK        -0.5000 
     32 CA          4.5363  -19.2180  -43.0215 C.3       8 UNK         0.1400 
     33 CB          5.1279  -18.6519  -44.3241 C.3       8 UNK        -0.1800 
     34 N           3.9906  -18.1137  -42.2277 N.am      8 UNK        -0.5000 
     35 C           4.1719  -17.9647  -40.9096 C.2       7 UNK         0.5000 
     36 O           4.9061  -18.6824  -40.2297 O.2       7 UNK        -0.5000 
     37 CA          3.3787  -16.8367  -40.2289 C.3       7 UNK         0.1400 
     38 CB          4.1386  -15.5055  -40.3374 C.3       7 UNK        -0.1800 
     39 N           2.0197  -16.6730  -40.7564 N.am      7 UNK        -0.5000 
     40 C           1.0196  -17.5479  -40.5695 C.2       6 UNK         0.5000 
     41 O           1.1723  -18.6469  -40.0380 O.2       6 UNK        -0.5000 
     42 CA         -0.3835  -17.1431  -41.0515 C.3       6 UNK         0.1400 
     43 CB         -1.0502  -16.2124  -40.0268 C.3       6 UNK        -0.1800 
     44 N          -0.3400  -16.4684  -42.3457 N.am      6 UNK        -0.5000 
     45 C          -0.8278  -16.9649  -43.4915 C.2       5 UNK         0.5000 
     46 O          -1.3721  -18.0650  -43.6005 O.2       5 UNK        -0.5000 
     47 CA         -0.6328  -16.0936  -44.7482 C.3       5 UNK         0.1400 
     48 CB         -1.7163  -15.0044  -44.7995 C.3       5 UNK        -0.1800 
     49 N           0.6769  -15.4444  -44.8292 N.am      5 UNK        -0.5000 
     50 C           1.8697  -16.0158  -44.6121 C.2       4 UNK         0.5000 
     51 O           2.0333  -17.2203  -44.4099 O.2       4 UNK        -0.5000 
     52 CA          3.0830  -15.0733  -44.5259 C.3       4 UNK         0.1400 
     53 CB          3.7854  -14.9889  -45.8871 C.3       4 UNK        -0.1800 
     54 N           2.7801  -13.7216  -44.0356 N.am      4 UNK        -0.5000 
     55 C           2.1930  -13.4199  -42.8649 C.2       3 UNK         0.5000 
     56 O           1.7179  -14.2583  -42.0979 O.2       3 UNK        -0.5000 
     57 CA          2.1009  -11.9319  -42.4981 C.3       3 UNK         0.1400 
     58 CB          3.4882  -11.3532  -42.1774 C.3       3 UNK        -0.1800 
     59 N           1.4874  -11.1787  -43.5866 N.am      3 UNK        -0.5000 
     60 C           0.1679  -10.9787  -43.7127 C.2       2 UNK         0.5000 
     61 O          -0.6585  -11.3001  -42.8581 O.2       2 UNK        -0.5000 
     62 CA         -0.3212  -10.3269  -45.0229 C.3       2 UNK         0.1400 
     63 CB         -0.4676   -8.8080  -44.8463 C.3       2 UNK        -0.1800 
     64 N           0.5427  -10.5917  -46.1764 N.am      2 UNK        -0.5000 
     65 C           0.8075  -11.8098  -46.6712 C.2       1 UNK         0.5000 
     66 O           0.3440  -12.8482  -46.2005 O.2       1 UNK        -0.5000 
     67 C          -3.3871  -21.4796  -46.7768 C.2       11 UNK         0.5000 
     68 O          -4.1544  -22.0549  -47.5488 O.2       11 UNK        -0.5000 
     69 N          -2.8345  -22.0703  -45.7070 N.am      12 UNK        -0.5000 
     70 CA         -3.0245  -23.4795  -45.3583 C.3       12 UNK         0.1400 
     71 CB         -2.5774  -23.7300  -43.9115 C.3       12 UNK        -0.1800 
     72 C          -2.2842  -24.4077  -46.3357 C.2       12 UNK         0.5000 
     73 O          -2.8392  -25.4317  -46.7337 O.2       12 UNK        -0.5000 
     74 N          -1.0810  -23.9974  -46.7644 N.am      13 UNK        -0.5000 
     75 CA         -0.3058  -24.6432  -47.8288 C.3       13 UNK         0.1400 
     76 CB          1.0771  -23.9824  -47.9267 C.3       13 UNK        -0.1800 
     77 C          -1.0266  -24.6177  -49.1934 C.2       13 UNK         0.5000 
     78 O          -0.8941  -25.5634  -49.9701 O.2       13 UNK        -0.5000 
     79 N          -1.8267  -23.5687  -49.4254 N.am      14 UNK        -0.5000 
     80 CA         -2.7301  -23.4152  -50.5645 C.3       14 UNK         0.1400 
     81 CB         -2.9097  -21.9164  -50.8533 C.3       14 UNK        -0.1800 
     82 C          -4.0947  -24.1117  -50.3669 C.2       14 UNK         0.5000 
     83 O          -5.0128  -23.8456  -51.1424 O.2       14 UNK        -0.5000 
     84 N          -4.2272  -24.9707  -49.3444 N.am      15 UNK        -0.5000 
     85 CA         -5.4151  -25.7604  -49.0003 C.3       15 UNK         0.1400 
     86 CB         -5.7226  -26.7920  -50.1072 C.3       15 UNK        -0.1800 
     87 C          -6.6269  -24.8780  -48.6388 C.2       15 UNK         0.5000 
     88 O          -7.7240  -25.0884  -49.1556 O.2       15 UNK        -0.5000 
     89 N          -6.3845  -23.8827  -47.7740 N.am      16 UNK        -0.5000 
     90 CA         -7.3057  -22.8149  -47.3662 C.3       16 UNK         0.1400 
     91 CB         -8.5586  -23.3755  -46.6604 C.3       16 UNK        -0.1800 
     92 C          -7.6248  -21.8669  -48.5401 C.2       16 UNK         0.5000 
     93 O          -8.7786  -21.4838  -48.7394 O.2       16 UNK        -0.5000 
     94 N          -6.5722  -21.5240  -49.2988 N.am      17 UNK        -0.5000 
     95 CA         -6.5637  -20.6680  -50.4923 C.3       17 UNK         0.1400 
     96 CB         -6.9616  -19.2238  -50.1226 C.3       17 UNK        -0.1800 
     97 C          -7.3853  -21.2223  -51.6795 C.2       17 UNK         0.5000 
     98 O          -7.7924  -20.4513  -52.5505 O.2       17 UNK        -0.5000 
     99 N          -7.6157  -22.5411  -51.7039 N.am      18 UNK        -0.5000 
    100 CA        -8.3636  -23.2335  -52.7514 C.3       18 UNK         0.1400 
    101 CB        -8.9855  -24.5098  -52.1666 C.3       18 UNK        -0.1800 
    102 C         -7.4898  -23.5786  -53.9692 C.2       18 UNK         0.5000 
    103 O         -8.0007  -23.5946  -55.0902 O.2       18 UNK        -0.5000 
    104 N         -6.2015  -23.8666  -53.7391 N.am      19 UNK        -0.5000 
    105 CA        -5.2422  -24.2263  -54.7785 C.3       19 UNK         0.1400 
    106 CB        -4.0411  -24.9449  -54.1423 C.3       19 UNK        -0.1800 
    107 C         -4.7820  -22.9777  -55.5458 C.2       19 UNK         0.5000 
    108 O         -4.1663  -22.0917  -54.9499 O.2       19 UNK        -0.5000 
    109 N         -5.0411  -22.9486  -56.8597 N.am      20 UNK        -0.5000 
    110 CA        -4.6323  -21.8711  -57.7694 C.3       20 UNK         0.1400 
    111 CB        -5.3055  -22.0838  -59.1338 C.3       20 UNK        -0.1800 
    112 C         -3.1028  -21.7527  -57.9332 C.2       20 UNK         0.5000 
    113 O         -2.6023  -20.6662  -58.2244 O.2       20 UNK        -0.5000 
    114 N         -2.3901  -22.8662  -57.7128 N.am      21 UNK        -0.5000 
    115 CA        -0.9288  -22.9425  -57.6741 C.3       21 UNK         0.1400 
    116 CB        -0.5126  -24.4082  -57.8779 C.3       21 UNK        -0.1800 
    117 C         -0.3198  -22.3850  -56.3690 C.2       21 UNK         0.5000 
    118 O          0.8980  -22.2145  -56.3041 O.2       21 UNK        -0.5000 
    119 N         -1.1589  -22.1197  -55.3564 N.am      22 UNK        -0.5000 
    120 CA        -0.7857  -21.6159  -54.0244 C.3       22 UNK         0.1400 
    121 C         -0.0162  -22.6413  -53.1332 C.2       22 UNK         0.5000 
    122 N         -0.0805  -23.9367  -53.4181 N.am      22 UNK        -0.7600 
    123 O          0.6274  -22.2712  -52.1567 O.2       22 UNK        -0.5000 
    124 C124       -0.1229  -20.2031  -54.0750 C.3       23 UNK        -0.0398 
    125 S125       -1.0384  -18.9584  -53.1056 S.3       23 UNK        -0.2404 
    126 C126       -0.1161  -18.9705  -51.5386 C.3       23 UNK        -0.0205 
    127 H127        4.7409   -9.0679  -45.8890 H         1 UNK         0.0600 
    128 H128        5.8269  -10.2055  -46.6937 H         1 UNK         0.0600 
    129 H129        4.7722   -9.1625  -47.6528 H         1 UNK         0.0600 
    130 H130        3.0193  -10.2619  -48.4728 H         1 UNK         0.3000 
    131 H131        2.3063  -12.8593  -47.7726 H         1 UNK         0.0600 
    132 H132        1.9128  -11.8373  -50.0005 H         1 UNK         0.0800 
    133 H133        0.6830  -10.8014  -49.3405 H         1 UNK         0.0800 
    134 H134        0.7813  -14.6039  -48.0066 H         1 UNK         0.0800 
    135 H135        1.6157  -14.7210  -49.5402 H         1 UNK         0.0800 
    136 H136        1.1516  -16.6846  -50.7785 H         1 UNK         0.1150 
    137 H137       -2.4937  -18.8625  -50.2182 H         1 UNK         0.1150 
    138 H138       -1.8571  -15.1683  -48.1324 H         1 UNK         0.1150 
    139 H139       -4.2912  -17.9347  -48.9246 H         1 UNK         0.0800 
    140 H140       -4.2670  -16.2042  -48.7298 H         1 UNK         0.0800 
    141 H141       -4.0337  -19.2136  -45.3157 H         1 UNK         0.0800 
    142 H142       -5.0209  -19.2560  -46.7550 H         1 UNK         0.0800 
    143 H143       -3.0899  -19.8846  -48.1360 H         1 UNK         0.0600 
    144 H144       -1.4435  -19.1952  -45.8594 H         1 UNK         0.3000 
    145 H145        1.5058  -20.6839  -47.2226 H         1 UNK         0.0600 
    146 H146        2.3776  -18.3442  -47.0553 H         1 UNK         0.0600 
    147 H147        1.4356  -18.5989  -48.5135 H         1 UNK         0.0600 
    148 H148        0.7305  -17.7229  -47.1617 H         1 UNK         0.0600 
    149 H149        1.3254  -19.0415  -44.9840 H         1 UNK         0.3000 
    150 H150        0.1739  -20.1885  -42.6925 H         1 UNK         0.0600 
    151 H151        0.0756  -22.6152  -42.3820 H         1 UNK         0.0600 
    152 H152        1.3120  -21.9689  -41.3202 H         1 UNK         0.0600 
    153 H153        1.7721  -22.7996  -42.8064 H         1 UNK         0.0600 
    154 H154        2.0893  -19.1448  -42.3809 H         1 UNK         0.3000 
    155 H155        5.3398  -19.7195  -42.4785 H         1 UNK         0.0600 
    156 H156        5.6351  -19.4331  -44.8914 H         1 UNK         0.0600 
    157 H157        5.8616  -17.8722  -44.1192 H         1 UNK         0.0600 
    158 H158        4.3606  -18.2295  -44.9721 H         1 UNK         0.0600 
    159 H159        3.3475  -17.5001  -42.7114 H         1 UNK         0.3000 
    160 H160        3.2940  -17.0875  -39.1693 H         1 UNK         0.0600 
    161 H161        4.2810  -15.2040  -41.3753 H         1 UNK         0.0600 
    162 H162        3.6067  -14.7035  -39.8252 H         1 UNK         0.0600 
    163 H163        5.1266  -15.5828  -39.8818 H         1 UNK         0.0600 
    164 H164        1.8254  -15.7818  -41.2096 H         1 UNK         0.3000 
    165 H165       -0.9826  -18.0539  -41.1166 H         1 UNK         0.0600 
    166 H166       -2.0722  -15.9734  -40.3213 H         1 UNK         0.0600 
    167 H167       -1.0965  -16.6816  -39.0431 H         1 UNK         0.0600 
    168 H168       -0.5052  -15.2734  -39.9194 H         1 UNK         0.0600 
    169 H169        0.1438  -15.5777  -42.3753 H         1 UNK         0.3000 
    170 H170       -0.7448  -16.7379  -45.6210 H         1 UNK         0.0600 
    171 H171       -2.7081  -15.4173  -44.6133 H         1 UNK         0.0600 
    172 H172       -1.5427  -14.2292  -44.0518 H         1 UNK         0.0600 
    173 H173       -1.7443  -14.5242  -45.7772 H         1 UNK         0.0600 
    174 H174        0.6593  -14.4514  -45.0416 H         1 UNK         0.3000 
    175 H175        3.7844  -15.5150  -43.8164 H         1 UNK         0.0600 
    176 H176        3.1161  -14.6122  -46.6581 H         1 UNK         0.0600 
    177 H177        4.6577  -14.3362  -45.8462 H         1 UNK         0.0600 
    178 H178        4.1293  -15.9725  -46.2093 H         1 UNK         0.0600 
    179 H179        3.1209  -12.9552  -44.6119 H         1 UNK         0.3000 
    180 H180        1.4913  -11.8450  -41.5961 H         1 UNK         0.0600 
    181 H181        3.9604  -11.9053  -41.3637 H         1 UNK         0.0600 
    182 H182        4.1604  -11.3956  -43.0347 H         1 UNK         0.0600 
    183 H183        3.4147  -10.3119  -41.8636 H         1 UNK         0.0600 
    184 H184        2.0925  -10.9349  -44.3604 H         1 UNK         0.3000 
    185 H185       -1.3059  -10.7434  -45.2455 H         1 UNK         0.0600 
    186 H186       -1.1276   -8.5737  -44.0099 H         1 UNK         0.0600 
    187 H187        0.4937   -8.3317  -44.6493 H         1 UNK         0.0600 
    188 H188       -0.8967   -8.3461  -45.7357 H         1 UNK         0.0600 
    189 H189        0.9890   -9.7923  -46.6016 H         1 UNK         0.3000 
    190 H190       -2.1566  -21.5573  -45.1615 H         1 UNK         0.3000 
    191 H191       -4.0912  -23.7052  -45.4226 H         1 UNK         0.0600 
    192 H192       -2.8101  -24.7509  -43.6066 H         1 UNK         0.0600 
    193 H193       -3.0835  -23.0592  -43.2171 H         1 UNK         0.0600 
    194 H194       -1.5036  -23.5938  -43.7916 H         1 UNK         0.0600 
    195 H195       -0.6729  -23.1705  -46.3370 H         1 UNK         0.3000 
    196 H196       -0.1652  -25.6888  -47.5477 H         1 UNK         0.0600 
    197 H197        1.7021  -24.4959  -48.6582 H         1 UNK         0.0600 
    198 H198        1.5997  -24.0132  -46.9703 H         1 UNK         0.0600 
    199 H199        1.0045  -22.9399  -48.2354 H         1 UNK         0.0600 
    200 H200       -1.8213  -22.8101  -48.7556 H         1 UNK         0.3000 
    201 H201       -2.2666  -23.8720  -51.4397 H         1 UNK         0.0600 
    202 H202       -1.9474  -21.4309  -51.0021 H         1 UNK         0.0600 
    203 H203       -3.4111  -21.4052  -50.0333 H         1 UNK         0.0600 
    204 H204       -3.4970  -21.7539  -51.7580 H         1 UNK         0.0600 
    205 H205       -3.4390  -25.0955  -48.7203 H         1 UNK         0.3000 
    206 H206       -5.1633  -26.3165  -48.0963 H         1 UNK         0.0600 
    207 H207       -4.8530  -27.4149  -50.3164 H         1 UNK         0.0600 
    208 H208       -6.5328  -27.4569  -49.8061 H         1 UNK         0.0600 
    209 H209       -6.0235  -26.3142  -51.0400 H         1 UNK         0.0600 
    210 H210       -5.4241  -23.7382  -47.4864 H         1 UNK         0.3000 
    211 H211       -6.7666  -22.2142  -46.6323 H         1 UNK         0.0600 
    212 H212       -9.2081  -23.9193  -47.3465 H         1 UNK         0.0600 
    213 H213       -9.1510  -22.5693  -46.2263 H         1 UNK         0.0600 
    214 H214       -8.2855  -24.0502  -45.8492 H         1 UNK         0.0600 
    215 H215       -5.6716  -21.8948  -49.0183 H         1 UNK         0.3000 
    216 H216       -5.5306  -20.6408  -50.8364 H         1 UNK         0.0600 
    217 H217       -6.4167  -18.8735  -49.2470 H         1 UNK         0.0600 
    218 H218       -6.7426  -18.5360  -50.9400 H         1 UNK         0.0600 
    219 H219       -8.0268  -19.1426  -49.9044 H         1 UNK         0.0600 
    220 H220       -7.1974  -23.1170  -50.9848 H         1 UNK         0.3000 
    221 H221       -9.1775  -22.5903  -53.0927 H         1 UNK         0.0600 
    222 H222       -8.2210  -25.2161  -51.8409 H         1 UNK         0.0600 
    223 H223       -9.6191  -24.2835  -51.3086 H         1 UNK         0.0600 
    224 H224       -9.6060  -25.0165  -52.9067 H         1 UNK         0.0600 
    225 H225       -5.8400  -23.8020  -52.7897 H         1 UNK         0.3000 
    226 H226       -5.7206  -24.9230  -55.4703 H         1 UNK         0.0600 
    227 H227       -4.3596  -25.8134  -53.5654 H         1 UNK         0.0600 
    228 H228       -3.3473  -25.2965  -54.9067 H         1 UNK         0.0600 
    229 H229       -3.4850  -24.2867  -53.4748 H         1 UNK         0.0600 
    230 H230       -5.5658  -23.7073  -57.2716 H         1 UNK         0.3000 
    231 H231       -4.9905  -20.9268  -57.3538 H         1 UNK         0.0600 
    232 H232       -5.0011  -23.0263  -59.5906 H         1 UNK         0.0600 
    233 H233       -6.3917  -22.0896  -59.0413 H         1 UNK         0.0600 
    234 H234       -5.0443  -21.2833  -59.8274 H         1 UNK         0.0600 
    235 H235       -2.8918  -23.7154  -57.4995 H         1 UNK         0.3000 
    236 H236       -0.5255  -22.3537  -58.5007 H         1 UNK         0.0600 
    237 H237       -0.8911  -25.0495  -57.0809 H         1 UNK         0.0600 
    238 H238       -0.8848  -24.7956  -58.8265 H         1 UNK         0.0600 
    239 H239        0.5734  -24.5093  -57.8925 H         1 UNK         0.0600 
    240 H240       -2.1534  -22.2547  -55.4946 H         1 UNK         0.3000 
    241 H241       -1.7472  -21.5179  -53.5215 H         1 UNK         0.0600 
    242 H242        0.4073  -24.5925  -52.8288 H         1 UNK         0.3800 
    243 H243       -0.5917  -24.2653  -54.2199 H         1 UNK         0.3800 
    244 H244       -0.1010  -19.8242  -55.0974 H         1 UNK         0.0800 
    245 H245        0.9239  -20.2244  -53.7674 H         1 UNK         0.0800 
    246 H246       -0.2106  -19.9430  -51.0558 H         1 UNK         0.0800 
    247 H247        0.9465  -18.8339  -51.7443 H         1 UNK         0.0800 
@<TRIPOS>BOND
     1    1    2 1    
     2    1  127 1    
     3    1  128 1    
     4    1  129 1    
     5    2    3 2    
     6    2    4 am   BACKBONE|DICT|INTERRES
     7    4    5 1    
     8    4  130 1    
     9    5    6 1    
    10    5   65 1    
    11    5  131 1    
    12    6    7 1    
    13    6  132 1    
    14    6  133 1    
    15    7    8 1    
    16    8    9 1    
    17    8  134 1    
    18    8  135 1    
    19    9   10 ar   
    20    9   14 ar   
    21   10   11 ar   
    22   10  136 1    
    23   11   12 ar   
    24   11  126 1    
    25   12   13 ar   
    26   12  137 1    
    27   13   14 ar   
    28   13   15 1    
    29   14  138 1    
    30   15   16 1    
    31   15  139 1    
    32   15  140 1    
    33   16   17 1    
    34   17   18 1    
    35   17  141 1    
    36   17  142 1    
    37   18   19 1    
    38   18   67 1    
    39   18  143 1    
    40   19   20 am   BACKBONE|DICT|INTERRES
    41   19  144 1    
    42   20   21 2    
    43   20   22 1    
    44   22   23 1    
    45   22   24 1    
    46   22  145 1    
    47   23  146 1    
    48   23  147 1    
    49   23  148 1    
    50   24   25 am   BACKBONE|DICT|INTERRES
    51   24  149 1    
    52   25   26 2    
    53   25   27 1    
    54   27   28 1    
    55   27   29 1    
    56   27  150 1    
    57   28  151 1    
    58   28  152 1    
    59   28  153 1    
    60   29   30 am   BACKBONE|DICT|INTERRES
    61   29  154 1    
    62   30   31 2    
    63   30   32 1    
    64   32   33 1    
    65   32   34 1    
    66   32  155 1    
    67   33  156 1    
    68   33  157 1    
    69   33  158 1    
    70   34   35 am   BACKBONE|DICT|INTERRES
    71   34  159 1    
    72   35   36 2    
    73   35   37 1    
    74   37   38 1    
    75   37   39 1    
    76   37  160 1    
    77   38  161 1    
    78   38  162 1    
    79   38  163 1    
    80   39   40 am   BACKBONE|DICT|INTERRES
    81   39  164 1    
    82   40   41 2    
    83   40   42 1    
    84   42   43 1    
    85   42   44 1    
    86   42  165 1    
    87   43  166 1    
    88   43  167 1    
    89   43  168 1    
    90   44   45 am   BACKBONE|DICT|INTERRES
    91   44  169 1    
    92   45   46 2    
    93   45   47 1    
    94   47   48 1    
    95   47   49 1    
    96   47  170 1    
    97   48  171 1    
    98   48  172 1    
    99   48  173 1    
   100   49   50 am   BACKBONE|DICT|INTERRES
   101   49  174 1    
   102   50   51 2    
   103   50   52 1    
   104   52   53 1    
   105   52   54 1    
   106   52  175 1    
   107   53  176 1    
   108   53  177 1    
   109   53  178 1    
   110   54   55 am   BACKBONE|DICT|INTERRES
   111   54  179 1    
   112   55   56 2    
   113   55   57 1    
   114   57   58 1    
   115   57   59 1    
   116   57  180 1    
   117   58  181 1    
   118   58  182 1    
   119   58  183 1    
   120   59   60 am   BACKBONE|DICT|INTERRES
   121   59  184 1    
   122   60   61 2    
   123   60   62 1    
   124   62   63 1    
   125   62   64 1    
   126   62  185 1    
   127   63  186 1    
   128   63  187 1    
   129   63  188 1    
   130   64   65 am   BACKBONE|DICT|INTERRES
   131   64  189 1    
   132   65   66 2    
   133   67   68 2    
   134   67   69 am   BACKBONE|DICT|INTERRES
   135   69   70 1    
   136   69  190 1    
   137   70   71 1    
   138   70   72 1    
   139   70  191 1    
   140   71  192 1    
   141   71  193 1    
   142   71  194 1    
   143   72   73 2    
   144   72   74 am   BACKBONE|DICT|INTERRES
   145   74   75 1    
   146   74  195 1    
   147   75   76 1    
   148   75   77 1    
   149   75  196 1    
   150   76  197 1    
   151   76  198 1    
   152   76  199 1    
   153   77   78 2    
   154   77   79 am   BACKBONE|DICT|INTERRES
   155   79   80 1    
   156   79  200 1    
   157   80   81 1    
   158   80   82 1    
   159   80  201 1    
   160   81  202 1    
   161   81  203 1    
   162   81  204 1    
   163   82   83 2    
   164   82   84 am   BACKBONE|DICT|INTERRES
   165   84   85 1    
   166   84  205 1    
   167   85   86 1    
   168   85   87 1    
   169   85  206 1    
   170   86  207 1    
   171   86  208 1    
   172   86  209 1    
   173   87   88 2    
   174   87   89 am   BACKBONE|DICT|INTERRES
   175   89   90 1    
   176   89  210 1    
   177   90   91 1    
   178   90   92 1    
   179   90  211 1    
   180   91  212 1    
   181   91  213 1    
   182   91  214 1    
   183   92   93 2    
   184   92   94 am   BACKBONE|DICT|INTERRES
   185   94   95 1    
   186   94  215 1    
   187   95   96 1    
   188   95   97 1    
   189   95  216 1    
   190   96  217 1    
   191   96  218 1    
   192   96  219 1    
   193   97   98 2    
   194   97   99 am   BACKBONE|DICT|INTERRES
   195   99  100 1    
   196   99  220 1    
   197  100  101 1    
   198  100  102 1    
   199  100  221 1    
   200  101  222 1    
   201  101  223 1    
   202  101  224 1    
   203  102  103 2    
   204  102  104 am   BACKBONE|DICT|INTERRES
   205  104  105 1    
   206  104  225 1    
   207  105  106 1    
   208  105  107 1    
   209  105  226 1    
   210  106  227 1    
   211  106  228 1    
   212  106  229 1    
   213  107  108 2    
   214  107  109 am   BACKBONE|DICT|INTERRES
   215  109  110 1    
   216  109  230 1    
   217  110  111 1    
   218  110  112 1    
   219  110  231 1    
   220  111  232 1    
   221  111  233 1    
   222  111  234 1    
   223  112  113 2    
   224  112  114 am   BACKBONE|DICT|INTERRES
   225  114  115 1    
   226  114  235 1    
   227  115  116 1    
   228  115  117 1    
   229  115  236 1    
   230  116  237 1    
   231  116  238 1    
   232  116  239 1    
   233  117  118 2    
   234  117  119 am   BACKBONE|DICT|INTERRES
   235  119  120 1    
   236  119  240 1    
   237  120  121 1    
   238  120  124 1    
   239  120  241 1    
   240  121  122 am   BACKBONE|DICT|INTERRES
   241  121  123 2    
   242  122  242 1    
   243  122  243 1    
   244  124  125 1    
   245  124  244 1    
   246  124  245 1    
   247  125  126 1    
   248  126  246 1    
   249  126  247 1    
@<TRIPOS>SUBSTRUCTURE
     1 UNK         1 GROUP             0       ****    0 ROOT    
