@<TRIPOS>MOLECULE
3R540
247   249    1
SMALL
USER_CHARGES


@<TRIPOS>ATOM
      1 CA          6.7827  -10.0879  -50.0726 C.3       0 UNK        -0.1800 
      2 C           5.4005  -10.7119  -49.9438 C.2       0 UNK         0.5000 
      3 O           4.5587  -10.5171  -50.8195 O.2       0 UNK        -0.5000 
      4 N           5.1620  -11.4472  -48.8481 N.am      1 UNK        -0.5000 
      5 CA          3.9178  -12.1612  -48.5117 C.3       1 UNK         0.1400 
      6 C6          3.4728  -13.1513  -49.6249 C.3       23 UNK        -0.0398 
      7 S7          2.5591  -14.6047  -49.0014 S.3       23 UNK        -0.2404 
      8 C8          0.9788  -14.3880  -49.8764 C.3       23 UNK        -0.0205 
      9 C9          0.0081  -15.5284  -49.6095 C.ar      23 UNK        -0.0193 
     10 C10        -1.1694  -15.3019  -48.8914 C.ar      23 UNK        -0.1150 
     11 C11        -2.0956  -16.3321  -48.7024 C.ar      23 UNK        -0.0193 
     12 C12        -1.8250  -17.6035  -49.2174 C.ar      23 UNK        -0.1150 
     13 C13        -0.6517  -17.8421  -49.9384 C.ar      23 UNK        -0.0193 
     14 C14         0.2609  -16.8009  -50.1290 C.ar      23 UNK        -0.1150 
     15 C15        -0.3836  -19.2097  -50.5465 C.3       23 UNK        -0.0205 
     16 S16         0.3591  -20.3505  -49.3400 S.3       23 UNK        -0.2404 
     17 C17        -1.1210  -20.9303  -48.4479 C.3       23 UNK        -0.0398 
     18 CA         -0.8630  -22.2723  -47.7275 C.3       11 UNK         0.1400 
     19 N           0.0096  -22.1292  -46.5615 N.am      11 UNK        -0.5000 
     20 C           0.5346  -23.1506  -45.8713 C.2       10 UNK         0.5000 
     21 O           0.4025  -24.3317  -46.1915 O.2       10 UNK        -0.5000 
     22 CA          1.2879  -22.7980  -44.5758 C.3       10 UNK         0.1400 
     23 CB          2.7279  -22.3571  -44.8770 C.3       10 UNK        -0.1800 
     24 N           0.6034  -21.7681  -43.7909 N.am      10 UNK        -0.5000 
     25 C          -0.6107  -21.9219  -43.2421 C.2       9 UNK         0.5000 
     26 O          -1.2593  -22.9668  -43.3032 O.2       9 UNK        -0.5000 
     27 CA         -1.2236  -20.6965  -42.5405 C.3       9 UNK         0.1400 
     28 CB         -0.6516  -20.5383  -41.1241 C.3       9 UNK        -0.1800 
     29 N          -1.0351  -19.4553  -43.2924 N.am      9 UNK        -0.5000 
     30 C          -1.5537  -19.2111  -44.5048 C.2       8 UNK         0.5000 
     31 O          -2.2859  -19.9958  -45.1063 O.2       8 UNK        -0.5000 
     32 CA         -1.1392  -17.8953  -45.1887 C.3       8 UNK         0.1400 
     33 CB         -1.9323  -16.7065  -44.6272 C.3       8 UNK        -0.1800 
     34 N           0.2937  -17.6282  -45.0756 N.am      8 UNK        -0.5000 
     35 C           1.2560  -18.4378  -45.5405 C.2       7 UNK         0.5000 
     36 O           1.0387  -19.4861  -46.1443 O.2       7 UNK        -0.5000 
     37 CA          2.7037  -18.0475  -45.2081 C.3       7 UNK         0.1400 
     38 CB          3.2097  -16.9518  -46.1569 C.3       7 UNK        -0.1800 
     39 N           2.8316  -17.6108  -43.8175 N.am      7 UNK        -0.5000 
     40 C           2.7144  -18.4287  -42.7610 C.2       6 UNK         0.5000 
     41 O           2.5319  -19.6427  -42.8526 O.2       6 UNK        -0.5000 
     42 CA          2.7718  -17.7736  -41.3687 C.3       6 UNK         0.1400 
     43 CB          4.2276  -17.5515  -40.9327 C.3       6 UNK        -0.1800 
     44 N           2.0483  -16.5023  -41.3140 N.am      6 UNK        -0.5000 
     45 C           0.7191  -16.3825  -41.4406 C.2       5 UNK         0.5000 
     46 O          -0.0416  -17.3388  -41.5806 O.2       5 UNK        -0.5000 
     47 CA          0.1474  -14.9520  -41.4585 C.3       5 UNK         0.1400 
     48 CB         -0.1506  -14.4726  -40.0304 C.3       5 UNK        -0.1800 
     49 N           1.0165  -13.9782  -42.1248 N.am      5 UNK        -0.5000 
     50 C           1.4190  -14.0506  -43.3997 C.2       4 UNK         0.5000 
     51 O           1.1038  -14.9645  -44.1640 O.2       4 UNK        -0.5000 
     52 CA          2.3166  -12.9041  -43.8949 C.3       4 UNK         0.1400 
     53 CB          3.3048  -13.3706  -44.9741 C.3       4 UNK        -0.1800 
     54 N           1.5078  -11.8106  -44.4265 N.am      4 UNK        -0.5000 
     55 C           0.8660  -10.9021  -43.6781 C.2       3 UNK         0.5000 
     56 O           0.9102  -10.8916  -42.4459 O.2       3 UNK        -0.5000 
     57 CA          0.0388   -9.8340  -44.4297 C.3       3 UNK         0.1400 
     58 CB         -0.1653   -8.5446  -43.6062 C.3       3 UNK        -0.1800 
     59 N           0.5578   -9.5219  -45.7675 N.am      3 UNK        -0.5000 
     60 C           1.7593   -9.0116  -46.0743 C.2       2 UNK         0.5000 
     61 O           2.6152   -8.6936  -45.2461 O.2       2 UNK        -0.5000 
     62 CA          2.0689   -8.8782  -47.5768 C.3       2 UNK         0.1400 
     63 CB          2.6511   -7.4956  -47.9139 C.3       2 UNK        -0.1800 
     64 N           3.0056   -9.9096  -48.0200 N.am      2 UNK        -0.5000 
     65 C           2.7727  -11.2301  -48.0318 C.2       1 UNK         0.5000 
     66 O           1.7092  -11.7194  -47.6479 O.2       1 UNK        -0.5000 
     67 C          -2.1886  -22.9632  -47.3584 C.2       11 UNK         0.5000 
     68 O          -2.5858  -23.8942  -48.0574 O.2       11 UNK        -0.5000 
     69 N          -2.8363  -22.5379  -46.2638 N.am      12 UNK        -0.5000 
     70 CA         -4.0767  -23.1278  -45.7502 C.3       12 UNK         0.1400 
     71 CB         -4.5807  -22.3249  -44.5425 C.3       12 UNK        -0.1800 
     72 C          -3.9321  -24.6200  -45.3986 C.2       12 UNK         0.5000 
     73 O          -4.7942  -25.4156  -45.7738 O.2       12 UNK        -0.5000 
     74 N          -2.8123  -24.9796  -44.7548 N.am      13 UNK        -0.5000 
     75 CA         -2.4238  -26.3591  -44.4471 C.3       13 UNK         0.1400 
     76 CB         -1.1877  -26.3424  -43.5355 C.3       13 UNK        -0.1800 
     77 C          -2.1629  -27.2234  -45.6991 C.2       13 UNK         0.5000 
     78 O          -2.3421  -28.4399  -45.6424 O.2       13 UNK        -0.5000 
     79 N          -1.7881  -26.5815  -46.8128 N.am      14 UNK        -0.5000 
     80 CA         -1.5933  -27.1824  -48.1324 C.3       14 UNK         0.1400 
     81 CB         -0.4006  -26.4905  -48.8173 C.3       14 UNK        -0.1800 
     82 C          -2.8725  -27.1195  -48.9967 C.2       14 UNK         0.5000 
     83 O          -2.7731  -27.0954  -50.2245 O.2       14 UNK        -0.5000 
     84 N          -4.0499  -27.0789  -48.3529 N.am      15 UNK        -0.5000 
     85 CA         -5.3896  -27.0244  -48.9499 C.3       15 UNK         0.1400 
     86 CB         -5.7040  -28.3295  -49.7112 C.3       15 UNK        -0.1800 
     87 C          -5.5929  -25.7612  -49.8088 C.2       15 UNK         0.5000 
     88 O          -6.0045  -25.8522  -50.9669 O.2       15 UNK        -0.5000 
     89 N          -5.2495  -24.6049  -49.2238 N.am      16 UNK        -0.5000 
     90 CA         -5.2288  -23.2750  -49.8443 C.3       16 UNK         0.1400 
     91 CB         -6.6581  -22.8035  -50.1840 C.3       16 UNK        -0.1800 
     92 C          -4.2663  -23.2255  -51.0482 C.2       16 UNK         0.5000 
     93 O          -4.6314  -22.7281  -52.1131 O.2       16 UNK        -0.5000 
     94 N          -3.0655  -23.7895  -50.8525 N.am      17 UNK        -0.5000 
     95 CA         -2.0011  -23.9922  -51.8400 C.3       17 UNK         0.1400 
     96 CB         -1.3438  -22.6451  -52.2006 C.3       17 UNK        -0.1800 
     97 C          -2.4953  -24.7786  -53.0717 C.2       17 UNK         0.5000 
     98 O          -2.3411  -24.3200  -54.2036 O.2       17 UNK        -0.5000 
     99 N          -3.1302  -25.9310  -52.8123 N.am      18 UNK        -0.5000 
    100 CA        -3.8182  -26.7968  -53.7766 C.3       18 UNK         0.1400 
    101 CB        -2.8015  -27.4956  -54.7027 C.3       18 UNK        -0.1800 
    102 C         -4.9322  -26.0507  -54.5450 C.2       18 UNK         0.5000 
    103 O         -5.0134  -26.1377  -55.7717 O.2       18 UNK        -0.5000 
    104 N         -5.7560  -25.3121  -53.7887 N.am      19 UNK        -0.5000 
    105 CA        -6.8804  -24.4782  -54.2239 C.3       19 UNK         0.1400 
    106 CB        -7.9919  -25.3441  -54.8531 C.3       19 UNK        -0.1800 
    107 C         -6.4964  -23.2683  -55.1070 C.2       19 UNK         0.5000 
    108 O         -7.3693  -22.7103  -55.7748 O.2       19 UNK        -0.5000 
    109 N         -5.2222  -22.8520  -55.0837 N.am      20 UNK        -0.5000 
    110 CA        -4.7425  -21.6356  -55.7473 C.3       20 UNK         0.1400 
    111 CB        -3.2205  -21.7171  -55.9307 C.3       20 UNK        -0.1800 
    112 C         -5.1221  -20.3534  -54.9794 C.2       20 UNK         0.5000 
    113 O         -5.2654  -19.2990  -55.6008 O.2       20 UNK        -0.5000 
    114 N         -5.2901  -20.4765  -53.6547 N.am      21 UNK        -0.5000 
    115 CA        -5.6282  -19.4310  -52.6885 C.3       21 UNK         0.1400 
    116 CB        -7.0388  -18.8654  -52.9686 C.3       21 UNK        -0.1800 
    117 C         -4.5352  -18.3473  -52.5578 C.2       21 UNK         0.5000 
    118 O         -3.3747  -18.5890  -52.8978 O.2       21 UNK        -0.5000 
    119 N         -4.9200  -17.1882  -52.0133 N.am      22 UNK        -0.5000 
    120 CA        -4.0310  -16.0577  -51.6929 C.3       22 UNK         0.1400 
    121 C         -3.7315  -15.1103  -52.8921 C.2       22 UNK         0.5000 
    122 N         -4.2666  -15.3492  -54.0833 N.am      22 UNK        -0.7600 
    123 O         -2.9936  -14.1404  -52.7431 O.2       22 UNK        -0.5000 
    124 C124       -4.5426  -15.2646  -50.4580 C.3       23 UNK        -0.0398 
    125 S125       -4.8703  -16.3334  -49.0089 S.3       23 UNK        -0.2404 
    126 C126       -3.4001  -16.0608  -47.9659 C.3       23 UNK        -0.0205 
    127 H127        7.4209  -10.3351  -49.2238 H         1 UNK         0.0600 
    128 H128        6.7007   -9.0026  -50.1317 H         1 UNK         0.0600 
    129 H129        7.2712  -10.4437  -50.9797 H         1 UNK         0.0600 
    130 H130        5.9019  -11.5468  -48.1661 H         1 UNK         0.3000 
    131 H131        4.1910  -12.7582  -47.6423 H         1 UNK         0.0600 
    132 H132        2.8967  -12.6360  -50.3952 H         1 UNK         0.0800 
    133 H133        4.3507  -13.5479  -50.1366 H         1 UNK         0.0800 
    134 H134        0.5393  -13.4329  -49.5838 H         1 UNK         0.0800 
    135 H135        1.1643  -14.3281  -50.9498 H         1 UNK         0.0800 
    136 H136       -1.3751  -14.3155  -48.4999 H         1 UNK         0.1150 
    137 H137       -2.5455  -18.3975  -49.0833 H         1 UNK         0.1150 
    138 H138        1.1663  -16.9754  -50.6932 H         1 UNK         0.1150 
    139 H139       -1.3051  -19.6275  -50.9553 H         1 UNK         0.0800 
    140 H140        0.2975  -19.1115  -51.3930 H         1 UNK         0.0800 
    141 H141       -1.9314  -21.0346  -49.1721 H         1 UNK         0.0800 
    142 H142       -1.4331  -20.1629  -47.7383 H         1 UNK         0.0800 
    143 H143       -0.3563  -22.9372  -48.4306 H         1 UNK         0.0600 
    144 H144        0.2303  -21.1779  -46.2747 H         1 UNK         0.3000 
    145 H145        1.3339  -23.7022  -43.9654 H         1 UNK         0.0600 
    146 H146        3.2845  -22.1752  -43.9576 H         1 UNK         0.0600 
    147 H147        3.2624  -23.1271  -45.4345 H         1 UNK         0.0600 
    148 H148        2.7560  -21.4436  -45.4708 H         1 UNK         0.0600 
    149 H149        1.0927  -20.8880  -43.6680 H         1 UNK         0.3000 
    150 H150       -2.2979  -20.8692  -42.4520 H         1 UNK         0.0600 
    151 H151       -0.7863  -21.4516  -40.5434 H         1 UNK         0.0600 
    152 H152       -1.1526  -19.7339  -40.5853 H         1 UNK         0.0600 
    153 H153        0.4153  -20.3139  -41.1428 H         1 UNK         0.0600 
    154 H154       -0.4841  -18.7314  -42.8397 H         1 UNK         0.3000 
    155 H155       -1.3695  -17.9888  -46.2514 H         1 UNK         0.0600 
    156 H156       -3.0059  -16.8731  -44.7204 H         1 UNK         0.0600 
    157 H157       -1.6942  -15.7865  -45.1618 H         1 UNK         0.0600 
    158 H158       -1.7205  -16.5447  -43.5712 H         1 UNK         0.0600 
    159 H159        0.5658  -16.7607  -44.6212 H         1 UNK         0.3000 
    160 H160        3.3323  -18.9296  -45.3468 H         1 UNK         0.0600 
    161 H161        2.5850  -16.0602  -46.1139 H         1 UNK         0.0600 
    162 H162        3.1989  -17.3014  -47.1901 H         1 UNK         0.0600 
    163 H163        4.2332  -16.6604  -45.9215 H         1 UNK         0.0600 
    164 H164        2.9125  -16.6178  -43.6589 H         1 UNK         0.3000 
    165 H165        2.3046  -18.4602  -40.6593 H         1 UNK         0.0600 
    166 H166        4.2794  -17.1614  -39.9160 H         1 UNK         0.0600 
    167 H167        4.7863  -18.4883  -40.9489 H         1 UNK         0.0600 
    168 H168        4.7441  -16.8497  -41.5888 H         1 UNK         0.0600 
    169 H169        2.5989  -15.6643  -41.1993 H         1 UNK         0.3000 
    170 H170       -0.7942  -14.9805  -42.0094 H         1 UNK         0.0600 
    171 H171       -0.8165  -15.1670  -39.5163 H         1 UNK         0.0600 
    172 H172        0.7595  -14.3882  -39.4352 H         1 UNK         0.0600 
    173 H173       -0.6402  -13.4985  -40.0356 H         1 UNK         0.0600 
    174 H174        1.2721  -13.1596  -41.5888 H         1 UNK         0.3000 
    175 H175        2.9045  -12.5382  -43.0502 H         1 UNK         0.0600 
    176 H176        2.7880  -13.6885  -45.8801 H         1 UNK         0.0600 
    177 H177        3.9947  -12.5702  -45.2404 H         1 UNK         0.0600 
    178 H178        3.9035  -14.2116  -44.6223 H         1 UNK         0.0600 
    179 H179        1.4068  -11.7710  -45.4339 H         1 UNK         0.3000 
    180 H180       -0.9449  -10.2791  -44.5853 H         1 UNK         0.0600 
    181 H181        0.7836   -8.0754  -43.3451 H         1 UNK         0.0600 
    182 H182       -0.6924   -8.7539  -42.6746 H         1 UNK         0.0600 
    183 H183       -0.7605   -7.8154  -44.1559 H         1 UNK         0.0600 
    184 H184       -0.0424   -9.7968  -46.5332 H         1 UNK         0.3000 
    185 H185        1.1419   -8.9974  -48.1416 H         1 UNK         0.0600 
    186 H186        1.9762   -6.7005  -47.5942 H         1 UNK         0.0600 
    187 H187        3.6108   -7.3290  -47.4230 H         1 UNK         0.0600 
    188 H188        2.8005   -7.3823  -48.9879 H         1 UNK         0.0600 
    189 H189        3.9131   -9.5910  -48.3246 H         1 UNK         0.3000 
    190 H190       -2.4760  -21.7327  -45.7562 H         1 UNK         0.3000 
    191 H191       -4.8270  -23.0475  -46.5388 H         1 UNK         0.0600 
    192 H192       -4.7635  -21.2840  -44.8098 H         1 UNK         0.0600 
    193 H193       -5.5195  -22.7332  -44.1664 H         1 UNK         0.0600 
    194 H194       -3.8650  -22.3385  -43.7210 H         1 UNK         0.0600 
    195 H195       -2.1745  -24.2505  -44.4456 H         1 UNK         0.3000 
    196 H196       -3.2465  -26.8206  -43.8975 H         1 UNK         0.0600 
    197 H197       -0.8888  -27.3549  -43.2613 H         1 UNK         0.0600 
    198 H198       -1.3871  -25.8003  -42.6109 H         1 UNK         0.0600 
    199 H199       -0.3356  -25.8682  -44.0233 H         1 UNK         0.0600 
    200 H200       -1.6774  -25.5761  -46.7707 H         1 UNK         0.3000 
    201 H201       -1.3420  -28.2384  -48.0174 H         1 UNK         0.0600 
    202 H202        0.4948  -26.5481  -48.1982 H         1 UNK         0.0600 
    203 H203       -0.6019  -25.4373  -49.0111 H         1 UNK         0.0600 
    204 H204       -0.1638  -26.9621  -49.7717 H         1 UNK         0.0600 
    205 H205       -4.0268  -27.0403  -47.3426 H         1 UNK         0.3000 
    206 H206       -6.0943  -26.9483  -48.1206 H         1 UNK         0.0600 
    207 H207       -5.5730  -29.2009  -49.0698 H         1 UNK         0.0600 
    208 H208       -6.7371  -28.3365  -50.0608 H         1 UNK         0.0600 
    209 H209       -5.0645  -28.4573  -50.5851 H         1 UNK         0.0600 
    210 H210       -4.8416  -24.6599  -48.3001 H         1 UNK         0.3000 
    211 H211       -4.8256  -22.5865  -49.1010 H         1 UNK         0.0600 
    212 H212       -7.1182  -23.4175  -50.9577 H         1 UNK         0.0600 
    213 H213       -6.6566  -21.7746  -50.5433 H         1 UNK         0.0600 
    214 H214       -7.3014  -22.8373  -49.3049 H         1 UNK         0.0600 
    215 H215       -2.8769  -24.1489  -49.9209 H         1 UNK         0.3000 
    216 H216       -1.2431  -24.6145  -51.3625 H         1 UNK         0.0600 
    217 H217       -0.5325  -22.7814  -52.9164 H         1 UNK         0.0600 
    218 H218       -0.9167  -22.1755  -51.3168 H         1 UNK         0.0600 
    219 H219       -2.0566  -21.9463  -52.6392 H         1 UNK         0.0600 
    220 H220       -3.1718  -26.2421  -51.8435 H         1 UNK         0.3000 
    221 H221       -4.3164  -27.5699  -53.1897 H         1 UNK         0.0600 
    222 H222       -2.2865  -26.7854  -55.3503 H         1 UNK         0.0600 
    223 H223       -2.0476  -28.0310  -54.1256 H         1 UNK         0.0600 
    224 H224       -3.2963  -28.2247  -55.3452 H         1 UNK         0.0600 
    225 H225       -5.6220  -25.3456  -52.7807 H         1 UNK         0.3000 
    226 H226       -7.2880  -24.0476  -53.3089 H         1 UNK         0.0600 
    227 H227       -8.2611  -26.1745  -54.2003 H         1 UNK         0.0600 
    228 H228       -8.8977  -24.7603  -55.0205 H         1 UNK         0.0600 
    229 H229       -7.6881  -25.7570  -55.8153 H         1 UNK         0.0600 
    230 H230       -4.5618  -23.3421  -54.4930 H         1 UNK         0.3000 
    231 H231       -5.1969  -21.5778  -56.7386 H         1 UNK         0.0600 
    232 H232       -2.7020  -21.7316  -54.9719 H         1 UNK         0.0600 
    233 H233       -2.8489  -20.8575  -56.4897 H         1 UNK         0.0600 
    234 H234       -2.9351  -22.6137  -56.4812 H         1 UNK         0.0600 
    235 H235       -5.0857  -21.3837  -53.2383 H         1 UNK         0.3000 
    236 H236       -5.6614  -19.9308  -51.7202 H         1 UNK         0.0600 
    237 H237       -7.7588  -19.6698  -53.1209 H         1 UNK         0.0600 
    238 H238       -7.4050  -18.2700  -52.1318 H         1 UNK         0.0600 
    239 H239       -7.0546  -18.2337  -53.8573 H         1 UNK         0.0600 
    240 H240       -5.8882  -17.0693  -51.7549 H         1 UNK         0.3000 
    241 H241       -3.0587  -16.4720  -51.4254 H         1 UNK         0.0600 
    242 H242       -4.0625  -14.7312  -54.8530 H         1 UNK         0.3800 
    243 H243       -4.8539  -16.1551  -54.2283 H         1 UNK         0.3800 
    244 H244       -5.4691  -14.7440  -50.7048 H         1 UNK         0.0800 
    245 H245       -3.8293  -14.4889  -50.1742 H         1 UNK         0.0800 
    246 H246       -3.4647  -16.7236  -47.1036 H         1 UNK         0.0800 
    247 H247       -3.4245  -15.0421  -47.5759 H         1 UNK         0.0800 
@<TRIPOS>BOND
     1    1    2 1    
     2    1  127 1    
     3    1  128 1    
     4    1  129 1    
     5    2    3 2    
     6    2    4 am   BACKBONE|DICT|INTERRES
     7    4    5 1    
     8    4  130 1    
     9    5    6 1    
    10    5   65 1    
    11    5  131 1    
    12    6    7 1    
    13    6  132 1    
    14    6  133 1    
    15    7    8 1    
    16    8    9 1    
    17    8  134 1    
    18    8  135 1    
    19    9   10 ar   
    20    9   14 ar   
    21   10   11 ar   
    22   10  136 1    
    23   11   12 ar   
    24   11  126 1    
    25   12   13 ar   
    26   12  137 1    
    27   13   14 ar   
    28   13   15 1    
    29   14  138 1    
    30   15   16 1    
    31   15  139 1    
    32   15  140 1    
    33   16   17 1    
    34   17   18 1    
    35   17  141 1    
    36   17  142 1    
    37   18   19 1    
    38   18   67 1    
    39   18  143 1    
    40   19   20 am   BACKBONE|DICT|INTERRES
    41   19  144 1    
    42   20   21 2    
    43   20   22 1    
    44   22   23 1    
    45   22   24 1    
    46   22  145 1    
    47   23  146 1    
    48   23  147 1    
    49   23  148 1    
    50   24   25 am   BACKBONE|DICT|INTERRES
    51   24  149 1    
    52   25   26 2    
    53   25   27 1    
    54   27   28 1    
    55   27   29 1    
    56   27  150 1    
    57   28  151 1    
    58   28  152 1    
    59   28  153 1    
    60   29   30 am   BACKBONE|DICT|INTERRES
    61   29  154 1    
    62   30   31 2    
    63   30   32 1    
    64   32   33 1    
    65   32   34 1    
    66   32  155 1    
    67   33  156 1    
    68   33  157 1    
    69   33  158 1    
    70   34   35 am   BACKBONE|DICT|INTERRES
    71   34  159 1    
    72   35   36 2    
    73   35   37 1    
    74   37   38 1    
    75   37   39 1    
    76   37  160 1    
    77   38  161 1    
    78   38  162 1    
    79   38  163 1    
    80   39   40 am   BACKBONE|DICT|INTERRES
    81   39  164 1    
    82   40   41 2    
    83   40   42 1    
    84   42   43 1    
    85   42   44 1    
    86   42  165 1    
    87   43  166 1    
    88   43  167 1    
    89   43  168 1    
    90   44   45 am   BACKBONE|DICT|INTERRES
    91   44  169 1    
    92   45   46 2    
    93   45   47 1    
    94   47   48 1    
    95   47   49 1    
    96   47  170 1    
    97   48  171 1    
    98   48  172 1    
    99   48  173 1    
   100   49   50 am   BACKBONE|DICT|INTERRES
   101   49  174 1    
   102   50   51 2    
   103   50   52 1    
   104   52   53 1    
   105   52   54 1    
   106   52  175 1    
   107   53  176 1    
   108   53  177 1    
   109   53  178 1    
   110   54   55 am   BACKBONE|DICT|INTERRES
   111   54  179 1    
   112   55   56 2    
   113   55   57 1    
   114   57   58 1    
   115   57   59 1    
   116   57  180 1    
   117   58  181 1    
   118   58  182 1    
   119   58  183 1    
   120   59   60 am   BACKBONE|DICT|INTERRES
   121   59  184 1    
   122   60   61 2    
   123   60   62 1    
   124   62   63 1    
   125   62   64 1    
   126   62  185 1    
   127   63  186 1    
   128   63  187 1    
   129   63  188 1    
   130   64   65 am   BACKBONE|DICT|INTERRES
   131   64  189 1    
   132   65   66 2    
   133   67   68 2    
   134   67   69 am   BACKBONE|DICT|INTERRES
   135   69   70 1    
   136   69  190 1    
   137   70   71 1    
   138   70   72 1    
   139   70  191 1    
   140   71  192 1    
   141   71  193 1    
   142   71  194 1    
   143   72   73 2    
   144   72   74 am   BACKBONE|DICT|INTERRES
   145   74   75 1    
   146   74  195 1    
   147   75   76 1    
   148   75   77 1    
   149   75  196 1    
   150   76  197 1    
   151   76  198 1    
   152   76  199 1    
   153   77   78 2    
   154   77   79 am   BACKBONE|DICT|INTERRES
   155   79   80 1    
   156   79  200 1    
   157   80   81 1    
   158   80   82 1    
   159   80  201 1    
   160   81  202 1    
   161   81  203 1    
   162   81  204 1    
   163   82   83 2    
   164   82   84 am   BACKBONE|DICT|INTERRES
   165   84   85 1    
   166   84  205 1    
   167   85   86 1    
   168   85   87 1    
   169   85  206 1    
   170   86  207 1    
   171   86  208 1    
   172   86  209 1    
   173   87   88 2    
   174   87   89 am   BACKBONE|DICT|INTERRES
   175   89   90 1    
   176   89  210 1    
   177   90   91 1    
   178   90   92 1    
   179   90  211 1    
   180   91  212 1    
   181   91  213 1    
   182   91  214 1    
   183   92   93 2    
   184   92   94 am   BACKBONE|DICT|INTERRES
   185   94   95 1    
   186   94  215 1    
   187   95   96 1    
   188   95   97 1    
   189   95  216 1    
   190   96  217 1    
   191   96  218 1    
   192   96  219 1    
   193   97   98 2    
   194   97   99 am   BACKBONE|DICT|INTERRES
   195   99  100 1    
   196   99  220 1    
   197  100  101 1    
   198  100  102 1    
   199  100  221 1    
   200  101  222 1    
   201  101  223 1    
   202  101  224 1    
   203  102  103 2    
   204  102  104 am   BACKBONE|DICT|INTERRES
   205  104  105 1    
   206  104  225 1    
   207  105  106 1    
   208  105  107 1    
   209  105  226 1    
   210  106  227 1    
   211  106  228 1    
   212  106  229 1    
   213  107  108 2    
   214  107  109 am   BACKBONE|DICT|INTERRES
   215  109  110 1    
   216  109  230 1    
   217  110  111 1    
   218  110  112 1    
   219  110  231 1    
   220  111  232 1    
   221  111  233 1    
   222  111  234 1    
   223  112  113 2    
   224  112  114 am   BACKBONE|DICT|INTERRES
   225  114  115 1    
   226  114  235 1    
   227  115  116 1    
   228  115  117 1    
   229  115  236 1    
   230  116  237 1    
   231  116  238 1    
   232  116  239 1    
   233  117  118 2    
   234  117  119 am   BACKBONE|DICT|INTERRES
   235  119  120 1    
   236  119  240 1    
   237  120  121 1    
   238  120  124 1    
   239  120  241 1    
   240  121  122 am   BACKBONE|DICT|INTERRES
   241  121  123 2    
   242  122  242 1    
   243  122  243 1    
   244  124  125 1    
   245  124  244 1    
   246  124  245 1    
   247  125  126 1    
   248  126  246 1    
   249  126  247 1    
@<TRIPOS>SUBSTRUCTURE
     1 UNK         1 GROUP             0       ****    0 ROOT    
