@<TRIPOS>MOLECULE
3R540
247   249    1
SMALL
USER_CHARGES


@<TRIPOS>ATOM
      1 CA         -3.6366  -14.7208  -45.7444 C.3       0 UNK        -0.1800 
      2 C          -3.0148  -13.5611  -46.5070 C.2       0 UNK         0.5000 
      3 O          -3.6363  -12.5070  -46.6446 O.2       0 UNK        -0.5000 
      4 N          -1.7827  -13.7459  -46.9955 N.am      1 UNK        -0.5000 
      5 CA         -0.9975  -12.7733  -47.7655 C.3       1 UNK         0.1400 
      6 C6          0.0242  -13.4659  -48.7103 C.3       23 UNK        -0.0398 
      7 S7          1.0240  -14.7891  -47.9385 S.3       23 UNK        -0.2404 
      8 C8          1.5647  -15.7375  -49.4008 C.3       23 UNK        -0.0205 
      9 C9          0.7667  -17.0176  -49.6439 C.ar      23 UNK        -0.0193 
     10 C10        -0.6330  -17.0096  -49.6821 C.ar      23 UNK        -0.1150 
     11 C11        -1.3486  -18.1852  -49.9311 C.ar      23 UNK        -0.0193 
     12 C12        -0.6520  -19.3732  -50.1691 C.ar      23 UNK        -0.1150 
     13 C13         0.7442  -19.3935  -50.1651 C.ar      23 UNK        -0.0193 
     14 C14         1.4459  -18.2172  -49.8858 C.ar      23 UNK        -0.1150 
     15 C15         1.4913  -20.6723  -50.5182 C.3       23 UNK        -0.0205 
     16 S16         1.8540  -21.7019  -49.0637 S.3       23 UNK        -0.2404 
     17 C17         0.1833  -22.2690  -48.6083 C.3       23 UNK        -0.0398 
     18 CA          0.1985  -23.4168  -47.5736 C.3       11 UNK         0.1400 
     19 N           0.7635  -23.0125  -46.2839 N.am      11 UNK        -0.5000 
     20 C           1.0524  -23.8513  -45.2799 C.2       10 UNK         0.5000 
     21 O           0.9391  -25.0746  -45.3598 O.2       10 UNK        -0.5000 
     22 CA          1.4981  -23.2172  -43.9487 C.3       10 UNK         0.1400 
     23 CB          2.9980  -22.8862  -43.9648 C.3       10 UNK        -0.1800 
     24 N           0.7289  -22.0167  -43.6156 N.am      10 UNK        -0.5000 
     25 C          -0.5762  -22.0197  -43.3074 C.2       9 UNK         0.5000 
     26 O          -1.2567  -23.0430  -43.2306 O.2       9 UNK        -0.5000 
     27 CA         -1.2440  -20.6483  -43.0899 C.3       9 UNK         0.1400 
     28 CB         -0.9537  -20.1146  -41.6794 C.3       9 UNK        -0.1800 
     29 N          -0.8331  -19.6529  -44.0794 N.am      9 UNK        -0.5000 
     30 C          -1.0513  -19.7520  -45.3979 C.2       8 UNK         0.5000 
     31 O          -1.6724  -20.6719  -45.9238 O.2       8 UNK        -0.5000 
     32 CA         -0.4245  -18.6681  -46.2876 C.3       8 UNK         0.1400 
     33 CB         -1.3220  -17.4237  -46.3099 C.3       8 UNK        -0.1800 
     34 N           0.9375  -18.3145  -45.8787 N.am      8 UNK        -0.5000 
     35 C           1.9579  -19.1848  -45.8233 C.2       7 UNK         0.5000 
     36 O           1.8573  -20.3759  -46.1049 O.2       7 UNK        -0.5000 
     37 CA          3.2988  -18.6546  -45.2970 C.3       7 UNK         0.1400 
     38 CB          4.0362  -17.8638  -46.3891 C.3       7 UNK        -0.1800 
     39 N           3.1049  -17.8239  -44.1101 N.am      7 UNK        -0.5000 
     40 C           2.7341  -18.2973  -42.9098 C.2       6 UNK         0.5000 
     41 O           2.6139  -19.4973  -42.6594 O.2       6 UNK        -0.5000 
     42 CA          2.3910  -17.2581  -41.8198 C.3       6 UNK         0.1400 
     43 CB          3.6467  -16.8778  -41.0218 C.3       6 UNK        -0.1800 
     44 N           1.7791  -16.0429  -42.3632 N.am      6 UNK        -0.5000 
     45 C           0.6177  -16.0167  -43.0303 C.2       5 UNK         0.5000 
     46 O          -0.1310  -16.9905  -43.1073 O.2       5 UNK        -0.5000 
     47 CA          0.2434  -14.7246  -43.7897 C.3       5 UNK         0.1400 
     48 CB         -0.9258  -14.0141  -43.0938 C.3       5 UNK        -0.1800 
     49 N           1.3319  -13.7647  -44.0305 N.am      5 UNK        -0.5000 
     50 C           2.4888  -14.0273  -44.6631 C.2       4 UNK         0.5000 
     51 O           2.8084  -15.1581  -45.0252 O.2       4 UNK        -0.5000 
     52 CA          3.4666  -12.8660  -44.9278 C.3       4 UNK         0.1400 
     53 CB          3.9611  -12.8700  -46.3848 C.3       4 UNK        -0.1800 
     54 N           2.8820  -11.5597  -44.6323 N.am      4 UNK        -0.5000 
     55 C           3.0458  -10.8856  -43.4861 C.2       3 UNK         0.5000 
     56 O           3.7222  -11.2994  -42.5440 O.2       3 UNK        -0.5000 
     57 CA          2.3308   -9.5244  -43.3568 C.3       3 UNK         0.1400 
     58 CB          3.3245   -8.3732  -43.5765 C.3       3 UNK        -0.1800 
     59 N           1.2027   -9.3552  -44.2758 N.am      3 UNK        -0.5000 
     60 C           0.0656  -10.0614  -44.2332 C.2       2 UNK         0.5000 
     61 O          -0.1544  -10.9323  -43.3917 O.2       2 UNK        -0.5000 
     62 CA         -0.9960   -9.7719  -45.3148 C.3       2 UNK         0.1400 
     63 CB         -0.6758   -8.5480  -46.2026 C.3       2 UNK        -0.1800 
     64 N          -1.2654  -10.9418  -46.1561 N.am      2 UNK        -0.5000 
     65 C          -0.3903  -11.6596  -46.8754 C.2       1 UNK         0.5000 
     66 O           0.8250  -11.4557  -46.8644 O.2       1 UNK        -0.5000 
     67 C          -1.2156  -24.0072  -47.4084 C.2       11 UNK         0.5000 
     68 O          -1.4973  -25.0584  -47.9807 O.2       11 UNK        -0.5000 
     69 N          -2.0700  -23.3457  -46.6143 N.am      12 UNK        -0.5000 
     70 CA         -3.4468  -23.7584  -46.3332 C.3       12 UNK         0.1400 
     71 CB         -4.1810  -22.6432  -45.5757 C.3       12 UNK        -0.1800 
     72 C          -3.5467  -25.0921  -45.5761 C.2       12 UNK         0.5000 
     73 O          -4.4899  -25.8484  -45.8094 O.2       12 UNK        -0.5000 
     74 N          -2.5572  -25.3759  -44.7176 N.am      13 UNK        -0.5000 
     75 CA         -2.4047  -26.6539  -44.0213 C.3       13 UNK         0.1400 
     76 CB         -1.3140  -26.5232  -42.9476 C.3       13 UNK        -0.1800 
     77 C          -2.1032  -27.8318  -44.9714 C.2       13 UNK         0.5000 
     78 O          -2.4404  -28.9687  -44.6381 O.2       13 UNK        -0.5000 
     79 N          -1.4984  -27.5456  -46.1336 N.am      14 UNK        -0.5000 
     80 CA         -1.3093  -28.5000  -47.2216 C.3       14 UNK         0.1400 
     81 CB         -0.0267  -28.1625  -48.0026 C.3       14 UNK        -0.1800 
     82 C          -2.5571  -28.5238  -48.1220 C.2       14 UNK         0.5000 
     83 O          -3.2704  -29.5277  -48.1300 O.2       14 UNK        -0.5000 
     84 N          -2.8068  -27.4160  -48.8341 N.am      15 UNK        -0.5000 
     85 CA         -3.9256  -27.1901  -49.7493 C.3       15 UNK         0.1400 
     86 CB         -3.9943  -28.2673  -50.8569 C.3       15 UNK        -0.1800 
     87 C          -3.7773  -25.7925  -50.3740 C.2       15 UNK         0.5000 
     88 O          -3.0321  -25.6357  -51.3432 O.2       15 UNK        -0.5000 
     89 N          -4.4892  -24.8068  -49.8194 N.am      16 UNK        -0.5000 
     90 CA         -4.6077  -23.4373  -50.3209 C.3       16 UNK         0.1400 
     91 CB         -3.2948  -22.6503  -50.1305 C.3       16 UNK        -0.1800 
     92 C          -5.7652  -22.7507  -49.5786 C.2       16 UNK         0.5000 
     93 O          -6.2162  -23.2601  -48.5487 O.2       16 UNK        -0.5000 
     94 N          -6.2090  -21.6025  -50.0988 N.am      17 UNK        -0.5000 
     95 CA         -7.2286  -20.7441  -49.4948 C.3       17 UNK         0.1400 
     96 CB         -8.6299  -21.3842  -49.5756 C.3       17 UNK        -0.1800 
     97 C          -7.2047  -19.3735  -50.1811 C.2       17 UNK         0.5000 
     98 O          -7.0135  -18.3549  -49.5166 O.2       17 UNK        -0.5000 
     99 N          -7.3651  -19.3873  -51.5077 N.am      18 UNK        -0.5000 
    100 CA        -7.2842  -18.2386  -52.4001 C.3       18 UNK         0.1400 
    101 CB        -8.5933  -17.4304  -52.3576 C.3       18 UNK        -0.1800 
    102 C         -7.0061  -18.7733  -53.8104 C.2       18 UNK         0.5000 
    103 O         -7.4514  -19.8795  -54.1326 O.2       18 UNK        -0.5000 
    104 N         -6.2787  -17.9823  -54.6121 N.am      19 UNK        -0.5000 
    105 CA        -5.7544  -18.3177  -55.9440 C.3       19 UNK         0.1400 
    106 CB        -6.9108  -18.5002  -56.9517 C.3       19 UNK        -0.1800 
    107 C         -4.7828  -19.5222  -55.9235 C.2       19 UNK         0.5000 
    108 O         -4.3568  -19.9529  -54.8487 O.2       19 UNK        -0.5000 
    109 N         -4.4210  -20.0247  -57.1143 N.am      20 UNK        -0.5000 
    110 CA        -3.5366  -21.1715  -57.3576 C.3       20 UNK         0.1400 
    111 CB        -4.2662  -22.4873  -57.0042 C.3       20 UNK        -0.1800 
    112 C         -2.1718  -21.0057  -56.6556 C.2       20 UNK         0.5000 
    113 O         -1.3696  -20.1769  -57.0902 O.2       20 UNK        -0.5000 
    114 N         -1.9574  -21.7467  -55.5588 N.am      21 UNK        -0.5000 
    115 CA        -0.7878  -21.6686  -54.6797 C.3       21 UNK         0.1400 
    116 CB        -0.9308  -22.7233  -53.5706 C.3       21 UNK        -0.1800 
    117 C         -0.5576  -20.2737  -54.0627 C.2       21 UNK         0.5000 
    118 O          0.5908  -19.9214  -53.7927 O.2       21 UNK        -0.5000 
    119 N         -1.6379  -19.5033  -53.8786 N.am      22 UNK        -0.5000 
    120 CA        -1.6024  -18.1069  -53.4183 C.3       22 UNK         0.1400 
    121 C         -1.1889  -17.0851  -54.5197 C.2       22 UNK         0.5000 
    122 N         -1.0234  -17.4757  -55.7792 N.am      22 UNK        -0.7600 
    123 O         -1.0119  -15.9064  -54.2254 O.2       22 UNK        -0.5000 
    124 C124       -2.9321  -17.6717  -52.7420 C.3       23 UNK        -0.0398 
    125 S125       -3.5653  -18.8457  -51.4928 S.3       23 UNK        -0.2404 
    126 C126       -2.8720  -18.1706  -49.9483 C.3       23 UNK        -0.0205 
    127 H127       -2.9231  -15.1546  -45.0456 H         1 UNK         0.0600 
    128 H128       -3.9643  -15.4968  -46.4359 H         1 UNK         0.0600 
    129 H129       -4.5019  -14.3852  -45.1727 H         1 UNK         0.0600 
    130 H130       -1.3126  -14.6249  -46.8394 H         1 UNK         0.3000 
    131 H131       -1.6935  -12.2487  -48.4240 H         1 UNK         0.0600 
    132 H132       -0.5226  -13.9003  -49.5471 H         1 UNK         0.0800 
    133 H133        0.6981  -12.7363  -49.1627 H         1 UNK         0.0800 
    134 H134        1.5190  -15.1129  -50.2936 H         1 UNK         0.0800 
    135 H135        2.6190  -15.9782  -49.2569 H         1 UNK         0.0800 
    136 H136       -1.1698  -16.0893  -49.5091 H         1 UNK         0.1150 
    137 H137       -1.2007  -20.2780  -50.3876 H         1 UNK         0.1150 
    138 H138        2.5266  -18.2339  -49.8828 H         1 UNK         0.1150 
    139 H139        0.9196  -21.2525  -51.2430 H         1 UNK         0.0800 
    140 H140        2.4307  -20.4217  -51.0129 H         1 UNK         0.0800 
    141 H141       -0.3830  -21.4194  -48.2254 H         1 UNK         0.0800 
    142 H142       -0.3148  -22.5916  -49.5239 H         1 UNK         0.0800 
    143 H143        0.8309  -24.2146  -47.9694 H         1 UNK         0.0600 
    144 H144        0.9649  -22.0217  -46.1670 H         1 UNK         0.3000 
    145 H145        1.3258  -23.9524  -43.1597 H         1 UNK         0.0600 
    146 H146        3.3219  -22.4790  -43.0068 H         1 UNK         0.0600 
    147 H147        3.5912  -23.7811  -44.1566 H         1 UNK         0.0600 
    148 H148        3.2460  -22.1583  -44.7371 H         1 UNK         0.0600 
    149 H149        1.2182  -21.1323  -43.6675 H         1 UNK         0.3000 
    150 H150       -2.3228  -20.7853  -43.1865 H         1 UNK         0.0600 
    151 H151       -1.2792  -20.8248  -40.9184 H         1 UNK         0.0600 
    152 H152       -1.4795  -19.1771  -41.4973 H         1 UNK         0.0600 
    153 H153        0.1109  -19.9342  -41.5277 H         1 UNK         0.0600 
    154 H154       -0.3650  -18.8221  -43.7291 H         1 UNK         0.3000 
    155 H155       -0.3617  -19.0644  -47.3017 H         1 UNK         0.0600 
    156 H156       -0.8870  -16.6307  -46.9109 H         1 UNK         0.0600 
    157 H157       -1.4977  -17.0334  -45.3092 H         1 UNK         0.0600 
    158 H158       -2.2954  -17.6597  -46.7413 H         1 UNK         0.0600 
    159 H159        1.1087  -17.3551  -45.6182 H         1 UNK         0.3000 
    160 H160        3.9191  -19.5097  -45.0199 H         1 UNK         0.0600 
    161 H161        3.4403  -17.0301  -46.7623 H         1 UNK         0.0600 
    162 H162        4.2637  -18.5047  -47.2419 H         1 UNK         0.0600 
    163 H163        4.9800  -17.4631  -46.0194 H         1 UNK         0.0600 
    164 H164        3.1231  -16.8183  -44.2647 H         1 UNK         0.3000 
    165 H165        1.6749  -17.7190  -41.1362 H         1 UNK         0.0600 
    166 H166        4.3909  -16.3886  -41.6516 H         1 UNK         0.0600 
    167 H167        3.4034  -16.2024  -40.2014 H         1 UNK         0.0600 
    168 H168        4.1144  -17.7619  -40.5863 H         1 UNK         0.0600 
    169 H169        2.3397  -15.2041  -42.3508 H         1 UNK         0.3000 
    170 H170       -0.1040  -15.0455  -44.7727 H         1 UNK         0.0600 
    171 H171       -1.7273  -14.7120  -42.8476 H         1 UNK         0.0600 
    172 H172       -0.6098  -13.5365  -42.1658 H         1 UNK         0.0600 
    173 H173       -1.3583  -13.2492  -43.7384 H         1 UNK         0.0600 
    174 H174        1.1433  -12.8070  -43.7626 H         1 UNK         0.3000 
    175 H175        4.3347  -13.0379  -44.2886 H         1 UNK         0.0600 
    176 H176        3.1416  -12.7353  -47.0904 H         1 UNK         0.0600 
    177 H177        4.6844  -12.0730  -46.5569 H         1 UNK         0.0600 
    178 H178        4.4528  -13.8115  -46.6329 H         1 UNK         0.0600 
    179 H179        2.2659  -11.1836  -45.3458 H         1 UNK         0.3000 
    180 H180        1.9470   -9.4548  -42.3369 H         1 UNK         0.0600 
    181 H181        2.8516   -7.4054  -43.4087 H         1 UNK         0.0600 
    182 H182        4.1661   -8.4454  -42.8862 H         1 UNK         0.0600 
    183 H183        3.7294   -8.3797  -44.5893 H         1 UNK         0.0600 
    184 H184        1.3175   -8.6730  -45.0112 H         1 UNK         0.3000 
    185 H185       -1.9215   -9.5575  -44.7788 H         1 UNK         0.0600 
    186 H186       -0.5419   -7.6471  -45.6024 H         1 UNK         0.0600 
    187 H187        0.2265   -8.6940  -46.7978 H         1 UNK         0.0600 
    188 H188       -1.4941   -8.3483  -46.8947 H         1 UNK         0.0600 
    189 H189       -2.2370  -11.2357  -46.2044 H         1 UNK         0.3000 
    190 H190       -1.7843  -22.4513  -46.2189 H         1 UNK         0.3000 
    191 H191       -3.9467  -23.8992  -47.2898 H         1 UNK         0.0600 
    192 H192       -5.2124  -22.9279  -45.3643 H         1 UNK         0.0600 
    193 H193       -4.2144  -21.7260  -46.1640 H         1 UNK         0.0600 
    194 H194       -3.6974  -22.4176  -44.6250 H         1 UNK         0.0600 
    195 H195       -1.8550  -24.6682  -44.5342 H         1 UNK         0.3000 
    196 H196       -3.3488  -26.8732  -43.5185 H         1 UNK         0.0600 
    197 H197       -1.2150  -27.4478  -42.3778 H         1 UNK         0.0600 
    198 H198       -1.5501  -25.7286  -42.2395 H         1 UNK         0.0600 
    199 H199       -0.3407  -26.3031  -43.3855 H         1 UNK         0.0600 
    200 H200       -1.2837  -26.5789  -46.3417 H         1 UNK         0.3000 
    201 H201       -1.1784  -29.5022  -46.8075 H         1 UNK         0.0600 
    202 H202        0.8495  -28.2257  -47.3572 H         1 UNK         0.0600 
    203 H203       -0.0476  -27.1611  -48.4306 H         1 UNK         0.0600 
    204 H204        0.1230  -28.8652  -48.8231 H         1 UNK         0.0600 
    205 H205       -2.2009  -26.6075  -48.6981 H         1 UNK         0.3000 
    206 H206       -4.8527  -27.2207  -49.1737 H         1 UNK         0.0600 
    207 H207       -4.3068  -29.2347  -50.4659 H         1 UNK         0.0600 
    208 H208       -4.7196  -27.9929  -51.6241 H         1 UNK         0.0600 
    209 H209       -3.0304  -28.3994  -51.3497 H         1 UNK         0.0600 
    210 H210       -5.0923  -24.9958  -49.0272 H         1 UNK         0.3000 
    211 H211       -4.8551  -23.4815  -51.3835 H         1 UNK         0.0600 
    212 H212       -3.0973  -22.4408  -49.0803 H         1 UNK         0.0600 
    213 H213       -3.3420  -21.6914  -50.6450 H         1 UNK         0.0600 
    214 H214       -2.4361  -23.1838  -50.5356 H         1 UNK         0.0600 
    215 H215       -5.7517  -21.2224  -50.9169 H         1 UNK         0.3000 
    216 H216       -6.9741  -20.5910  -48.4437 H         1 UNK         0.0600 
    217 H217       -9.3938  -20.6971  -49.2095 H         1 UNK         0.0600 
    218 H218       -8.6936  -22.2856  -48.9666 H         1 UNK         0.0600 
    219 H219       -8.8935  -21.6548  -50.5985 H         1 UNK         0.0600 
    220 H220       -7.5149  -20.2636  -51.9931 H         1 UNK         0.3000 
    221 H221       -6.4499  -17.6052  -52.0908 H         1 UNK         0.0600 
    222 H222       -9.4505  -18.0419  -52.6420 H         1 UNK         0.0600 
    223 H223       -8.7823  -17.0319  -51.3608 H         1 UNK         0.0600 
    224 H224       -8.5513  -16.5829  -53.0427 H         1 UNK         0.0600 
    225 H225       -5.9709  -17.0937  -54.2446 H         1 UNK         0.3000 
    226 H226       -5.1658  -17.4557  -56.2611 H         1 UNK         0.0600 
    227 H227       -7.6227  -17.6773  -56.8860 H         1 UNK         0.0600 
    228 H228       -6.5458  -18.5216  -57.9788 H         1 UNK         0.0600 
    229 H229       -7.4576  -19.4278  -56.7792 H         1 UNK         0.0600 
    230 H230       -4.7825  -19.5790  -57.9454 H         1 UNK         0.3000 
    231 H231       -3.3287  -21.1875  -58.4285 H         1 UNK         0.0600 
    232 H232       -3.6302  -23.3536  -57.1911 H         1 UNK         0.0600 
    233 H233       -5.1597  -22.6094  -57.6166 H         1 UNK         0.0600 
    234 H234       -4.5805  -22.5210  -55.9604 H         1 UNK         0.0600 
    235 H235       -2.6988  -22.3620  -55.2579 H         1 UNK         0.3000 
    236 H236        0.0915  -21.9129  -55.2789 H         1 UNK         0.0600 
    237 H237       -1.0339  -23.7256  -53.9867 H         1 UNK         0.0600 
    238 H238       -0.0538  -22.7324  -52.9228 H         1 UNK         0.0600 
    239 H239       -1.8014  -22.5293  -52.9427 H         1 UNK         0.0600 
    240 H240       -2.5542  -19.8572  -54.1395 H         1 UNK         0.3000 
    241 H241       -0.8192  -18.0361  -52.6632 H         1 UNK         0.0600 
    242 H242       -1.1437  -18.4444  -56.0533 H         1 UNK         0.3800 
    243 H243       -0.7501  -16.7965  -56.4715 H         1 UNK         0.3800 
    244 H244       -2.8187  -16.6913  -52.2762 H         1 UNK         0.0800 
    245 H245       -3.7088  -17.5558  -53.4974 H         1 UNK         0.0800 
    246 H246       -3.2361  -18.7681  -49.1115 H         1 UNK         0.0800 
    247 H247       -3.2574  -17.1613  -49.7968 H         1 UNK         0.0800 
@<TRIPOS>BOND
     1    1    2 1    
     2    1  127 1    
     3    1  128 1    
     4    1  129 1    
     5    2    3 2    
     6    2    4 am   BACKBONE|DICT|INTERRES
     7    4    5 1    
     8    4  130 1    
     9    5    6 1    
    10    5   65 1    
    11    5  131 1    
    12    6    7 1    
    13    6  132 1    
    14    6  133 1    
    15    7    8 1    
    16    8    9 1    
    17    8  134 1    
    18    8  135 1    
    19    9   10 ar   
    20    9   14 ar   
    21   10   11 ar   
    22   10  136 1    
    23   11   12 ar   
    24   11  126 1    
    25   12   13 ar   
    26   12  137 1    
    27   13   14 ar   
    28   13   15 1    
    29   14  138 1    
    30   15   16 1    
    31   15  139 1    
    32   15  140 1    
    33   16   17 1    
    34   17   18 1    
    35   17  141 1    
    36   17  142 1    
    37   18   19 1    
    38   18   67 1    
    39   18  143 1    
    40   19   20 am   BACKBONE|DICT|INTERRES
    41   19  144 1    
    42   20   21 2    
    43   20   22 1    
    44   22   23 1    
    45   22   24 1    
    46   22  145 1    
    47   23  146 1    
    48   23  147 1    
    49   23  148 1    
    50   24   25 am   BACKBONE|DICT|INTERRES
    51   24  149 1    
    52   25   26 2    
    53   25   27 1    
    54   27   28 1    
    55   27   29 1    
    56   27  150 1    
    57   28  151 1    
    58   28  152 1    
    59   28  153 1    
    60   29   30 am   BACKBONE|DICT|INTERRES
    61   29  154 1    
    62   30   31 2    
    63   30   32 1    
    64   32   33 1    
    65   32   34 1    
    66   32  155 1    
    67   33  156 1    
    68   33  157 1    
    69   33  158 1    
    70   34   35 am   BACKBONE|DICT|INTERRES
    71   34  159 1    
    72   35   36 2    
    73   35   37 1    
    74   37   38 1    
    75   37   39 1    
    76   37  160 1    
    77   38  161 1    
    78   38  162 1    
    79   38  163 1    
    80   39   40 am   BACKBONE|DICT|INTERRES
    81   39  164 1    
    82   40   41 2    
    83   40   42 1    
    84   42   43 1    
    85   42   44 1    
    86   42  165 1    
    87   43  166 1    
    88   43  167 1    
    89   43  168 1    
    90   44   45 am   BACKBONE|DICT|INTERRES
    91   44  169 1    
    92   45   46 2    
    93   45   47 1    
    94   47   48 1    
    95   47   49 1    
    96   47  170 1    
    97   48  171 1    
    98   48  172 1    
    99   48  173 1    
   100   49   50 am   BACKBONE|DICT|INTERRES
   101   49  174 1    
   102   50   51 2    
   103   50   52 1    
   104   52   53 1    
   105   52   54 1    
   106   52  175 1    
   107   53  176 1    
   108   53  177 1    
   109   53  178 1    
   110   54   55 am   BACKBONE|DICT|INTERRES
   111   54  179 1    
   112   55   56 2    
   113   55   57 1    
   114   57   58 1    
   115   57   59 1    
   116   57  180 1    
   117   58  181 1    
   118   58  182 1    
   119   58  183 1    
   120   59   60 am   BACKBONE|DICT|INTERRES
   121   59  184 1    
   122   60   61 2    
   123   60   62 1    
   124   62   63 1    
   125   62   64 1    
   126   62  185 1    
   127   63  186 1    
   128   63  187 1    
   129   63  188 1    
   130   64   65 am   BACKBONE|DICT|INTERRES
   131   64  189 1    
   132   65   66 2    
   133   67   68 2    
   134   67   69 am   BACKBONE|DICT|INTERRES
   135   69   70 1    
   136   69  190 1    
   137   70   71 1    
   138   70   72 1    
   139   70  191 1    
   140   71  192 1    
   141   71  193 1    
   142   71  194 1    
   143   72   73 2    
   144   72   74 am   BACKBONE|DICT|INTERRES
   145   74   75 1    
   146   74  195 1    
   147   75   76 1    
   148   75   77 1    
   149   75  196 1    
   150   76  197 1    
   151   76  198 1    
   152   76  199 1    
   153   77   78 2    
   154   77   79 am   BACKBONE|DICT|INTERRES
   155   79   80 1    
   156   79  200 1    
   157   80   81 1    
   158   80   82 1    
   159   80  201 1    
   160   81  202 1    
   161   81  203 1    
   162   81  204 1    
   163   82   83 2    
   164   82   84 am   BACKBONE|DICT|INTERRES
   165   84   85 1    
   166   84  205 1    
   167   85   86 1    
   168   85   87 1    
   169   85  206 1    
   170   86  207 1    
   171   86  208 1    
   172   86  209 1    
   173   87   88 2    
   174   87   89 am   BACKBONE|DICT|INTERRES
   175   89   90 1    
   176   89  210 1    
   177   90   91 1    
   178   90   92 1    
   179   90  211 1    
   180   91  212 1    
   181   91  213 1    
   182   91  214 1    
   183   92   93 2    
   184   92   94 am   BACKBONE|DICT|INTERRES
   185   94   95 1    
   186   94  215 1    
   187   95   96 1    
   188   95   97 1    
   189   95  216 1    
   190   96  217 1    
   191   96  218 1    
   192   96  219 1    
   193   97   98 2    
   194   97   99 am   BACKBONE|DICT|INTERRES
   195   99  100 1    
   196   99  220 1    
   197  100  101 1    
   198  100  102 1    
   199  100  221 1    
   200  101  222 1    
   201  101  223 1    
   202  101  224 1    
   203  102  103 2    
   204  102  104 am   BACKBONE|DICT|INTERRES
   205  104  105 1    
   206  104  225 1    
   207  105  106 1    
   208  105  107 1    
   209  105  226 1    
   210  106  227 1    
   211  106  228 1    
   212  106  229 1    
   213  107  108 2    
   214  107  109 am   BACKBONE|DICT|INTERRES
   215  109  110 1    
   216  109  230 1    
   217  110  111 1    
   218  110  112 1    
   219  110  231 1    
   220  111  232 1    
   221  111  233 1    
   222  111  234 1    
   223  112  113 2    
   224  112  114 am   BACKBONE|DICT|INTERRES
   225  114  115 1    
   226  114  235 1    
   227  115  116 1    
   228  115  117 1    
   229  115  236 1    
   230  116  237 1    
   231  116  238 1    
   232  116  239 1    
   233  117  118 2    
   234  117  119 am   BACKBONE|DICT|INTERRES
   235  119  120 1    
   236  119  240 1    
   237  120  121 1    
   238  120  124 1    
   239  120  241 1    
   240  121  122 am   BACKBONE|DICT|INTERRES
   241  121  123 2    
   242  122  242 1    
   243  122  243 1    
   244  124  125 1    
   245  124  244 1    
   246  124  245 1    
   247  125  126 1    
   248  126  246 1    
   249  126  247 1    
@<TRIPOS>SUBSTRUCTURE
     1 UNK         1 GROUP             0       ****    0 ROOT    
