@<TRIPOS>MOLECULE
3R540
247   249    1
SMALL
USER_CHARGES


@<TRIPOS>ATOM
      1 CA         -1.5746  -15.4188  -48.2446 C.3       0 UNK        -0.1800 
      2 C          -0.9239  -14.0584  -48.0357 C.2       0 UNK         0.5000 
      3 O          -1.2544  -13.3653  -47.0738 O.2       0 UNK        -0.5000 
      4 N          -0.0026  -13.6776  -48.9321 N.am      1 UNK        -0.5000 
      5 CA          0.6415  -12.3566  -49.0127 C.3       1 UNK         0.1400 
      6 C6          1.6356  -12.2620  -50.1967 C.3       23 UNK        -0.0398 
      7 S7          0.8683  -12.5747  -51.8240 S.3       23 UNK        -0.2404 
      8 C8          1.8394  -13.9869  -52.4432 C.3       23 UNK        -0.0205 
      9 C9          1.2335  -15.3163  -52.0212 C.ar      23 UNK        -0.0193 
     10 C10         0.3347  -15.9703  -52.8689 C.ar      23 UNK        -0.1150 
     11 C11        -0.2266  -17.1961  -52.5019 C.ar      23 UNK        -0.0193 
     12 C12         0.1001  -17.7567  -51.2652 C.ar      23 UNK        -0.1150 
     13 C13         1.0002  -17.1147  -50.4091 C.ar      23 UNK        -0.0193 
     14 C14         1.5729  -15.8992  -50.7965 C.ar      23 UNK        -0.1150 
     15 C15         1.3112  -17.7150  -49.0484 C.3       23 UNK        -0.0205 
     16 S16         2.0646  -19.3678  -49.1751 S.3       23 UNK        -0.2404 
     17 C17         1.8895  -19.9334  -47.4503 C.3       23 UNK        -0.0398 
     18 CA          0.7063  -20.9071  -47.2209 C.3       11 UNK         0.1400 
     19 N           0.7793  -21.4905  -45.8839 N.am      11 UNK        -0.5000 
     20 C           0.0948  -22.5502  -45.4408 C.2       10 UNK         0.5000 
     21 O          -0.6681  -23.2027  -46.1533 O.2       10 UNK        -0.5000 
     22 CA          0.2392  -22.8909  -43.9395 C.3       10 UNK         0.1400 
     23 CB          0.2485  -24.4099  -43.6757 C.3       10 UNK        -0.1800 
     24 N           1.3726  -22.2179  -43.2863 N.am      10 UNK        -0.5000 
     25 C           2.6836  -22.4080  -43.5070 C.2       9 UNK         0.5000 
     26 O           3.1316  -23.2778  -44.2542 O.2       9 UNK        -0.5000 
     27 CA          3.6693  -21.4335  -42.8269 C.3       9 UNK         0.1400 
     28 CB          4.3326  -20.5343  -43.8832 C.3       9 UNK        -0.1800 
     29 N           3.0524  -20.5763  -41.8121 N.am      9 UNK        -0.5000 
     30 C           2.7309  -20.9652  -40.5710 C.2       8 UNK         0.5000 
     31 O           2.9578  -22.0909  -40.1269 O.2       8 UNK        -0.5000 
     32 CA          2.0004  -19.9312  -39.6905 C.3       8 UNK         0.1400 
     33 CB          3.0081  -19.0156  -38.9797 C.3       8 UNK        -0.1800 
     34 N           1.0403  -19.1127  -40.4371 N.am      8 UNK        -0.5000 
     35 C          -0.0434  -19.5924  -41.0649 C.2       7 UNK         0.5000 
     36 O          -0.3657  -20.7803  -41.0656 O.2       7 UNK        -0.5000 
     37 CA         -0.8683  -18.5919  -41.8911 C.3       7 UNK         0.1400 
     38 CB         -1.7912  -17.7490  -40.9997 C.3       7 UNK        -0.1800 
     39 N          -0.0225  -17.7160  -42.7019 N.am      7 UNK        -0.5000 
     40 C           0.7467  -18.1333  -43.7149 C.2       6 UNK         0.5000 
     41 O           0.7443  -19.2870  -44.1394 O.2       6 UNK        -0.5000 
     42 CA          1.6912  -17.1059  -44.3564 C.3       6 UNK         0.1400 
     43 CB          0.9823  -16.3472  -45.4884 C.3       6 UNK        -0.1800 
     44 N           2.2430  -16.1799  -43.3675 N.am      6 UNK        -0.5000 
     45 C           3.1423  -16.5382  -42.4381 C.2       5 UNK         0.5000 
     46 O           3.6425  -17.6608  -42.3743 O.2       5 UNK        -0.5000 
     47 CA          3.4978  -15.4930  -41.3663 C.3       5 UNK         0.1400 
     48 CB          4.6799  -14.6210  -41.8086 C.3       5 UNK        -0.1800 
     49 N           2.3546  -14.6457  -41.0261 N.am      5 UNK        -0.5000 
     50 C           1.3101  -15.0733  -40.3024 C.2       4 UNK         0.5000 
     51 O           1.2341  -16.2056  -39.8246 O.2       4 UNK        -0.5000 
     52 CA          0.1325  -14.0963  -40.1234 C.3       4 UNK         0.1400 
     53 CB          0.3518  -13.2083  -38.8899 C.3       4 UNK        -0.1800 
     54 N          -0.1079  -13.2483  -41.2933 N.am      4 UNK        -0.5000 
     55 C          -0.4315  -13.6976  -42.5136 C.2       3 UNK         0.5000 
     56 O          -0.5613  -14.8923  -42.7789 O.2       3 UNK        -0.5000 
     57 CA         -0.6176  -12.6565  -43.6359 C.3       3 UNK         0.1400 
     58 CB         -0.7496  -11.2032  -43.1286 C.3       3 UNK        -0.1800 
     59 N           0.4322  -12.7400  -44.6566 N.am      3 UNK        -0.5000 
     60 C           1.7586  -12.6331  -44.4734 C.2       2 UNK         0.5000 
     61 O           2.2834  -12.5472  -43.3621 O.2       2 UNK        -0.5000 
     62 CA          2.6606  -12.6167  -45.7280 C.3       2 UNK         0.1400 
     63 CB          3.8261  -13.6145  -45.6183 C.3       2 UNK        -0.1800 
     64 N           1.9310  -12.8645  -46.9752 N.am      2 UNK        -0.5000 
     65 C           1.3520  -11.9090  -47.7159 C.2       1 UNK         0.5000 
     66 O           1.3603  -10.7146  -47.4153 O.2       1 UNK        -0.5000 
     67 C          -0.6657  -20.2347  -47.4389 C.2       11 UNK         0.5000 
     68 O          -1.2651  -20.4009  -48.5006 O.2       11 UNK        -0.5000 
     69 N          -1.1670  -19.5260  -46.4143 N.am      12 UNK        -0.5000 
     70 CA         -2.4957  -18.9062  -46.4386 C.3       12 UNK         0.1400 
     71 CB         -2.6441  -17.9121  -45.2785 C.3       12 UNK        -0.1800 
     72 C          -3.6254  -19.9513  -46.4034 C.2       12 UNK         0.5000 
     73 O          -4.6624  -19.7417  -47.0302 O.2       12 UNK        -0.5000 
     74 N          -3.3895  -21.0748  -45.7097 N.am      13 UNK        -0.5000 
     75 CA         -4.2921  -22.2260  -45.6795 C.3       13 UNK         0.1400 
     76 CB         -3.8607  -23.2030  -44.5753 C.3       13 UNK        -0.1800 
     77 C          -4.3696  -22.9249  -47.0484 C.2       13 UNK         0.5000 
     78 O          -5.4670  -23.2552  -47.4948 O.2       13 UNK        -0.5000 
     79 N          -3.2159  -23.0826  -47.7147 N.am      14 UNK        -0.5000 
     80 CA         -3.1164  -23.5786  -49.0882 C.3       14 UNK         0.1400 
     81 CB         -1.6414  -23.8014  -49.4561 C.3       14 UNK        -0.1800 
     82 C          -3.8096  -22.6463  -50.0997 C.2       14 UNK         0.5000 
     83 O          -4.5394  -23.1317  -50.9613 O.2       14 UNK        -0.5000 
     84 N          -3.6168  -21.3277  -49.9448 N.am      15 UNK        -0.5000 
     85 CA         -4.2796  -20.2966  -50.7453 C.3       15 UNK         0.1400 
     86 CB         -3.7065  -18.9145  -50.3980 C.3       15 UNK        -0.1800 
     87 C          -5.8128  -20.3108  -50.5848 C.2       15 UNK         0.5000 
     88 O          -6.5295  -20.2230  -51.5830 O.2       15 UNK        -0.5000 
     89 N          -6.2879  -20.4573  -49.3394 N.am      16 UNK        -0.5000 
     90 CA         -7.7058  -20.5899  -48.9994 C.3       16 UNK         0.1400 
     91 CB         -7.8792  -20.5147  -47.4752 C.3       16 UNK        -0.1800 
     92 C          -8.3419  -21.8771  -49.5575 C.2       16 UNK         0.5000 
     93 O          -9.4996  -21.8482  -49.9778 O.2       16 UNK        -0.5000 
     94 N          -7.5698  -22.9709  -49.5991 N.am      17 UNK        -0.5000 
     95 CA         -7.9390  -24.2691  -50.1676 C.3       17 UNK         0.1400 
     96 CB         -7.0424  -25.3558  -49.5471 C.3       17 UNK        -0.1800 
     97 C          -7.9013  -24.2755  -51.7135 C.2       17 UNK         0.5000 
     98 O          -7.2519  -25.1331  -52.3149 O.2       17 UNK        -0.5000 
     99 N          -8.6213  -23.3228  -52.3233 N.am      18 UNK        -0.5000 
    100 CA        -8.8037  -23.1158  -53.7629 C.3       18 UNK         0.1400 
    101 CB        -9.6407  -24.2610  -54.3710 C.3       18 UNK        -0.1800 
    102 C         -7.4760  -22.8732  -54.5099 C.2       18 UNK         0.5000 
    103 O         -7.1994  -23.5316  -55.5148 O.2       18 UNK        -0.5000 
    104 N         -6.6707  -21.9360  -53.9897 N.am      19 UNK        -0.5000 
    105 CA        -5.3763  -21.4521  -54.4894 C.3       19 UNK         0.1400 
    106 CB        -5.4947  -20.9019  -55.9233 C.3       19 UNK        -0.1800 
    107 C         -4.2124  -22.4556  -54.3676 C.2       19 UNK         0.5000 
    108 O         -3.0983  -22.0338  -54.0531 O.2       19 UNK        -0.5000 
    109 N         -4.4788  -23.7453  -54.6178 N.am      20 UNK        -0.5000 
    110 CA        -3.5516  -24.8786  -54.5809 C.3       20 UNK         0.1400 
    111 CB        -3.1888  -25.2266  -53.1210 C.3       20 UNK        -0.1800 
    112 C         -2.3306  -24.6324  -55.4903 C.2       20 UNK         0.5000 
    113 O         -2.4893  -24.5968  -56.7121 O.2       20 UNK        -0.5000 
    114 N         -1.1523  -24.4160  -54.8895 N.am      21 UNK        -0.5000 
    115 CA         0.1030  -24.0782  -55.5652 C.3       21 UNK         0.1400 
    116 CB         1.2286  -24.0227  -54.5210 C.3       21 UNK        -0.1800 
    117 C          0.0508  -22.7634  -56.3713 C.2       21 UNK         0.5000 
    118 O          0.7951  -22.6267  -57.3433 O.2       21 UNK        -0.5000 
    119 N         -0.8338  -21.8386  -55.9762 N.am      22 UNK        -0.5000 
    120 CA        -1.1313  -20.5988  -56.7099 C.3       22 UNK         0.1400 
    121 C         -2.1541  -20.7861  -57.8710 C.2       22 UNK         0.5000 
    122 N         -2.7172  -21.9679  -58.0990 N.am      22 UNK        -0.7600 
    123 O         -2.4377  -19.8355  -58.5945 O.2       22 UNK        -0.5000 
    124 C124       -1.5625  -19.4546  -55.7555 C.3       23 UNK        -0.0398 
    125 S125       -0.2510  -19.0068  -54.5718 S.3       23 UNK        -0.2404 
    126 C126       -1.1735  -17.9155  -53.4486 C.3       23 UNK        -0.0205 
    127 H127       -1.2534  -16.1137  -47.4715 H         1 UNK         0.0600 
    128 H128       -2.6592  -15.3273  -48.1880 H         1 UNK         0.0600 
    129 H129       -1.3256  -15.8431  -49.2171 H         1 UNK         0.0600 
    130 H130        0.2012  -14.2931  -49.7077 H         1 UNK         0.3000 
    131 H131       -0.1592  -11.6358  -49.1911 H         1 UNK         0.0600 
    132 H132        2.0722  -11.2623  -50.2435 H         1 UNK         0.0800 
    133 H133        2.4733  -12.9437  -50.0428 H         1 UNK         0.0800 
    134 H134        2.8771  -13.9160  -52.1142 H         1 UNK         0.0800 
    135 H135        1.8717  -13.9297  -53.5323 H         1 UNK         0.0800 
    136 H136        0.0792  -15.5300  -53.8227 H         1 UNK         0.1150 
    137 H137       -0.3338  -18.7023  -50.9708 H         1 UNK         0.1150 
    138 H138        2.2741  -15.4015  -50.1416 H         1 UNK         0.1150 
    139 H139        1.9752  -17.0651  -48.4764 H         1 UNK         0.0800 
    140 H140        0.3778  -17.7779  -48.4904 H         1 UNK         0.0800 
    141 H141        1.8270  -19.0745  -46.7819 H         1 UNK         0.0800 
    142 H142        2.8225  -20.4361  -47.1911 H         1 UNK         0.0800 
    143 H143        0.7915  -21.7237  -47.9413 H         1 UNK         0.0600 
    144 H144        1.2752  -20.9465  -45.1882 H         1 UNK         0.3000 
    145 H145       -0.6532  -22.4860  -43.4603 H         1 UNK         0.0600 
    146 H146        0.3499  -24.6244  -42.6119 H         1 UNK         0.0600 
    147 H147       -0.6818  -24.8698  -44.0110 H         1 UNK         0.0600 
    148 H148        1.0627  -24.9103  -44.1999 H         1 UNK         0.0600 
    149 H149        1.1134  -21.4748  -42.6494 H         1 UNK         0.3000 
    150 H150        4.4478  -22.0341  -42.3522 H         1 UNK         0.0600 
    151 H151        4.8413  -21.1275  -44.6441 H         1 UNK         0.0600 
    152 H152        5.0790  -19.8806  -43.4313 H         1 UNK         0.0600 
    153 H153        3.6013  -19.9052  -44.3913 H         1 UNK         0.0600 
    154 H154        2.8983  -19.6084  -42.0718 H         1 UNK         0.3000 
    155 H155        1.4442  -20.4808  -38.9283 H         1 UNK         0.0600 
    156 H156        3.5884  -18.4274  -39.6908 H         1 UNK         0.0600 
    157 H157        3.7118  -19.5977  -38.3834 H         1 UNK         0.0600 
    158 H158        2.5045  -18.3232  -38.3049 H         1 UNK         0.0600 
    159 H159        1.2057  -18.1110  -40.4449 H         1 UNK         0.3000 
    160 H160       -1.4944  -19.1783  -42.5644 H         1 UNK         0.0600 
    161 H161       -2.3998  -17.0691  -41.5963 H         1 UNK         0.0600 
    162 H162       -1.2287  -17.1520  -40.2827 H         1 UNK         0.0600 
    163 H163       -2.4720  -18.3853  -40.4331 H         1 UNK         0.0600 
    164 H164       -0.0414  -16.7240  -42.4843 H         1 UNK         0.3000 
    165 H165        2.5202  -17.6611  -44.8000 H         1 UNK         0.0600 
    166 H166        1.6836  -15.7627  -46.0795 H         1 UNK         0.0600 
    167 H167        0.5002  -17.0441  -46.1726 H         1 UNK         0.0600 
    168 H168        0.2109  -15.6742  -45.1168 H         1 UNK         0.0600 
    169 H169        1.8244  -15.2630  -43.3082 H         1 UNK         0.3000 
    170 H170        3.8049  -16.0348  -40.4692 H         1 UNK         0.0600 
    171 H171        5.5404  -15.2348  -42.0782 H         1 UNK         0.0600 
    172 H172        4.4277  -14.0097  -42.6726 H         1 UNK         0.0600 
    173 H173        4.9952  -13.9519  -41.0079 H         1 UNK         0.0600 
    174 H174        2.3272  -13.7208  -41.4392 H         1 UNK         0.3000 
    175 H175       -0.7666  -14.6931  -39.9578 H         1 UNK         0.0600 
    176 H176       -0.5152  -12.5753  -38.7000 H         1 UNK         0.0600 
    177 H177        0.5125  -13.8137  -37.9968 H         1 UNK         0.0600 
    178 H178        1.2217  -12.5611  -39.0091 H         1 UNK         0.0600 
    179 H179        0.0074  -12.2538  -41.1640 H         1 UNK         0.3000 
    180 H180       -1.5519  -12.9168  -44.1356 H         1 UNK         0.0600 
    181 H181        0.1657  -10.8432  -42.6576 H         1 UNK         0.0600 
    182 H182       -1.5597  -11.1096  -42.4041 H         1 UNK         0.0600 
    183 H183       -0.9800  -10.5272  -43.9523 H         1 UNK         0.0600 
    184 H184        0.0875  -12.8578  -45.6038 H         1 UNK         0.3000 
    185 H185        3.1029  -11.6194  -45.7740 H         1 UNK         0.0600 
    186 H186        3.4931  -14.6210  -45.3730 H         1 UNK         0.0600 
    187 H187        4.3929  -13.6658  -46.5481 H         1 UNK         0.0600 
    188 H188        4.5248  -13.3032  -44.8424 H         1 UNK         0.0600 
    189 H189        1.8618  -13.8224  -47.2840 H         1 UNK         0.3000 
    190 H190       -0.6264  -19.4534  -45.5589 H         1 UNK         0.3000 
    191 H191       -2.5880  -18.3465  -47.3715 H         1 UNK         0.0600 
    192 H192       -2.6529  -18.4165  -44.3145 H         1 UNK         0.0600 
    193 H193       -3.5825  -17.3624  -45.3617 H         1 UNK         0.0600 
    194 H194       -1.8418  -17.1760  -45.2699 H         1 UNK         0.0600 
    195 H195       -2.5040  -21.1745  -45.2397 H         1 UNK         0.3000 
    196 H196       -5.2924  -21.8627  -45.4340 H         1 UNK         0.0600 
    197 H197       -4.5643  -24.0329  -44.4984 H         1 UNK         0.0600 
    198 H198       -3.8307  -22.7123  -43.6024 H         1 UNK         0.0600 
    199 H199       -2.8770  -23.6295  -44.7674 H         1 UNK         0.0600 
    200 H200       -2.3446  -22.8434  -47.2541 H         1 UNK         0.3000 
    201 H201       -3.6219  -24.5456  -49.1277 H         1 UNK         0.0600 
    202 H202       -1.1627  -24.4928  -48.7624 H         1 UNK         0.0600 
    203 H203       -1.0741  -22.8711  -49.4440 H         1 UNK         0.0600 
    204 H204       -1.5487  -24.2274  -50.4553 H         1 UNK         0.0600 
    205 H205       -2.9444  -21.0102  -49.2527 H         1 UNK         0.3000 
    206 H206       -4.0452  -20.5026  -51.7902 H         1 UNK         0.0600 
    207 H207       -2.6222  -18.8998  -50.4961 H         1 UNK         0.0600 
    208 H208       -4.1052  -18.1498  -51.0655 H         1 UNK         0.0600 
    209 H209       -3.9520  -18.6180  -49.3789 H         1 UNK         0.0600 
    210 H210       -5.6334  -20.4596  -48.5624 H         1 UNK         0.3000 
    211 H211       -8.2341  -19.7432  -49.4423 H         1 UNK         0.0600 
    212 H212       -7.3483  -21.3212  -46.9691 H         1 UNK         0.0600 
    213 H213       -8.9312  -20.5879  -47.1971 H         1 UNK         0.0600 
    214 H214       -7.5040  -19.5695  -47.0823 H         1 UNK         0.0600 
    215 H215       -6.6357  -22.9101  -49.2093 H         1 UNK         0.3000 
    216 H216       -8.9677  -24.4906  -49.8764 H         1 UNK         0.0600 
    217 H217       -7.3263  -26.3484  -49.8986 H         1 UNK         0.0600 
    218 H218       -7.1248  -25.3619  -48.4602 H         1 UNK         0.0600 
    219 H219       -5.9934  -25.2031  -49.8020 H         1 UNK         0.0600 
    220 H220       -9.1031  -22.6651  -51.7173 H         1 UNK         0.3000 
    221 H221       -9.3827  -22.1973  -53.8687 H         1 UNK         0.0600 
    222 H222       -9.1146  -25.2153  -54.3295 H         1 UNK         0.0600 
    223 H223      -10.5887  -24.3780  -53.8460 H         1 UNK         0.0600 
    224 H224       -9.8731  -24.0614  -55.4177 H         1 UNK         0.0600 
    225 H225       -6.9574  -21.4958  -53.1207 H         1 UNK         0.3000 
    226 H226       -5.1211  -20.6054  -53.8529 H         1 UNK         0.0600 
    227 H227       -5.6533  -21.6944  -56.6551 H         1 UNK         0.0600 
    228 H228       -4.5866  -20.3742  -56.2116 H         1 UNK         0.0600 
    229 H229       -6.3187  -20.1936  -56.0090 H         1 UNK         0.0600 
    230 H230       -5.4256  -23.9580  -54.9180 H         1 UNK         0.3000 
    231 H231       -4.0849  -25.7315  -55.0028 H         1 UNK         0.0600 
    232 H232       -4.0851  -25.4673  -52.5483 H         1 UNK         0.0600 
    233 H233       -2.6921  -24.3998  -52.6135 H         1 UNK         0.0600 
    234 H234       -2.5325  -26.0962  -53.0716 H         1 UNK         0.0600 
    235 H235       -1.1287  -24.4250  -53.8805 H         1 UNK         0.3000 
    236 H236        0.3259  -24.8830  -56.2685 H         1 UNK         0.0600 
    237 H237        1.3342  -24.9754  -54.0017 H         1 UNK         0.0600 
    238 H238        2.1878  -23.8025  -54.9915 H         1 UNK         0.0600 
    239 H239        1.0446  -23.2495  -53.7737 H         1 UNK         0.0600 
    240 H240       -1.4304  -22.0310  -55.1775 H         1 UNK         0.3000 
    241 H241       -0.2121  -20.2691  -57.1979 H         1 UNK         0.0600 
    242 H242       -3.3657  -22.0594  -58.8644 H         1 UNK         0.3800 
    243 H243       -2.4941  -22.7834  -57.5389 H         1 UNK         0.3800 
    244 H244       -1.8130  -18.5545  -56.3196 H         1 UNK         0.0800 
    245 H245       -2.4606  -19.7317  -55.2034 H         1 UNK         0.0800 
    246 H246       -1.9002  -18.5047  -52.8876 H         1 UNK         0.0800 
    247 H247       -1.7430  -17.1872  -54.0281 H         1 UNK         0.0800 
@<TRIPOS>BOND
     1    1    2 1    
     2    1  127 1    
     3    1  128 1    
     4    1  129 1    
     5    2    3 2    
     6    2    4 am   BACKBONE|DICT|INTERRES
     7    4    5 1    
     8    4  130 1    
     9    5    6 1    
    10    5   65 1    
    11    5  131 1    
    12    6    7 1    
    13    6  132 1    
    14    6  133 1    
    15    7    8 1    
    16    8    9 1    
    17    8  134 1    
    18    8  135 1    
    19    9   10 ar   
    20    9   14 ar   
    21   10   11 ar   
    22   10  136 1    
    23   11   12 ar   
    24   11  126 1    
    25   12   13 ar   
    26   12  137 1    
    27   13   14 ar   
    28   13   15 1    
    29   14  138 1    
    30   15   16 1    
    31   15  139 1    
    32   15  140 1    
    33   16   17 1    
    34   17   18 1    
    35   17  141 1    
    36   17  142 1    
    37   18   19 1    
    38   18   67 1    
    39   18  143 1    
    40   19   20 am   BACKBONE|DICT|INTERRES
    41   19  144 1    
    42   20   21 2    
    43   20   22 1    
    44   22   23 1    
    45   22   24 1    
    46   22  145 1    
    47   23  146 1    
    48   23  147 1    
    49   23  148 1    
    50   24   25 am   BACKBONE|DICT|INTERRES
    51   24  149 1    
    52   25   26 2    
    53   25   27 1    
    54   27   28 1    
    55   27   29 1    
    56   27  150 1    
    57   28  151 1    
    58   28  152 1    
    59   28  153 1    
    60   29   30 am   BACKBONE|DICT|INTERRES
    61   29  154 1    
    62   30   31 2    
    63   30   32 1    
    64   32   33 1    
    65   32   34 1    
    66   32  155 1    
    67   33  156 1    
    68   33  157 1    
    69   33  158 1    
    70   34   35 am   BACKBONE|DICT|INTERRES
    71   34  159 1    
    72   35   36 2    
    73   35   37 1    
    74   37   38 1    
    75   37   39 1    
    76   37  160 1    
    77   38  161 1    
    78   38  162 1    
    79   38  163 1    
    80   39   40 am   BACKBONE|DICT|INTERRES
    81   39  164 1    
    82   40   41 2    
    83   40   42 1    
    84   42   43 1    
    85   42   44 1    
    86   42  165 1    
    87   43  166 1    
    88   43  167 1    
    89   43  168 1    
    90   44   45 am   BACKBONE|DICT|INTERRES
    91   44  169 1    
    92   45   46 2    
    93   45   47 1    
    94   47   48 1    
    95   47   49 1    
    96   47  170 1    
    97   48  171 1    
    98   48  172 1    
    99   48  173 1    
   100   49   50 am   BACKBONE|DICT|INTERRES
   101   49  174 1    
   102   50   51 2    
   103   50   52 1    
   104   52   53 1    
   105   52   54 1    
   106   52  175 1    
   107   53  176 1    
   108   53  177 1    
   109   53  178 1    
   110   54   55 am   BACKBONE|DICT|INTERRES
   111   54  179 1    
   112   55   56 2    
   113   55   57 1    
   114   57   58 1    
   115   57   59 1    
   116   57  180 1    
   117   58  181 1    
   118   58  182 1    
   119   58  183 1    
   120   59   60 am   BACKBONE|DICT|INTERRES
   121   59  184 1    
   122   60   61 2    
   123   60   62 1    
   124   62   63 1    
   125   62   64 1    
   126   62  185 1    
   127   63  186 1    
   128   63  187 1    
   129   63  188 1    
   130   64   65 am   BACKBONE|DICT|INTERRES
   131   64  189 1    
   132   65   66 2    
   133   67   68 2    
   134   67   69 am   BACKBONE|DICT|INTERRES
   135   69   70 1    
   136   69  190 1    
   137   70   71 1    
   138   70   72 1    
   139   70  191 1    
   140   71  192 1    
   141   71  193 1    
   142   71  194 1    
   143   72   73 2    
   144   72   74 am   BACKBONE|DICT|INTERRES
   145   74   75 1    
   146   74  195 1    
   147   75   76 1    
   148   75   77 1    
   149   75  196 1    
   150   76  197 1    
   151   76  198 1    
   152   76  199 1    
   153   77   78 2    
   154   77   79 am   BACKBONE|DICT|INTERRES
   155   79   80 1    
   156   79  200 1    
   157   80   81 1    
   158   80   82 1    
   159   80  201 1    
   160   81  202 1    
   161   81  203 1    
   162   81  204 1    
   163   82   83 2    
   164   82   84 am   BACKBONE|DICT|INTERRES
   165   84   85 1    
   166   84  205 1    
   167   85   86 1    
   168   85   87 1    
   169   85  206 1    
   170   86  207 1    
   171   86  208 1    
   172   86  209 1    
   173   87   88 2    
   174   87   89 am   BACKBONE|DICT|INTERRES
   175   89   90 1    
   176   89  210 1    
   177   90   91 1    
   178   90   92 1    
   179   90  211 1    
   180   91  212 1    
   181   91  213 1    
   182   91  214 1    
   183   92   93 2    
   184   92   94 am   BACKBONE|DICT|INTERRES
   185   94   95 1    
   186   94  215 1    
   187   95   96 1    
   188   95   97 1    
   189   95  216 1    
   190   96  217 1    
   191   96  218 1    
   192   96  219 1    
   193   97   98 2    
   194   97   99 am   BACKBONE|DICT|INTERRES
   195   99  100 1    
   196   99  220 1    
   197  100  101 1    
   198  100  102 1    
   199  100  221 1    
   200  101  222 1    
   201  101  223 1    
   202  101  224 1    
   203  102  103 2    
   204  102  104 am   BACKBONE|DICT|INTERRES
   205  104  105 1    
   206  104  225 1    
   207  105  106 1    
   208  105  107 1    
   209  105  226 1    
   210  106  227 1    
   211  106  228 1    
   212  106  229 1    
   213  107  108 2    
   214  107  109 am   BACKBONE|DICT|INTERRES
   215  109  110 1    
   216  109  230 1    
   217  110  111 1    
   218  110  112 1    
   219  110  231 1    
   220  111  232 1    
   221  111  233 1    
   222  111  234 1    
   223  112  113 2    
   224  112  114 am   BACKBONE|DICT|INTERRES
   225  114  115 1    
   226  114  235 1    
   227  115  116 1    
   228  115  117 1    
   229  115  236 1    
   230  116  237 1    
   231  116  238 1    
   232  116  239 1    
   233  117  118 2    
   234  117  119 am   BACKBONE|DICT|INTERRES
   235  119  120 1    
   236  119  240 1    
   237  120  121 1    
   238  120  124 1    
   239  120  241 1    
   240  121  122 am   BACKBONE|DICT|INTERRES
   241  121  123 2    
   242  122  242 1    
   243  122  243 1    
   244  124  125 1    
   245  124  244 1    
   246  124  245 1    
   247  125  126 1    
   248  126  246 1    
   249  126  247 1    
@<TRIPOS>SUBSTRUCTURE
     1 UNK         1 GROUP             0       ****    0 ROOT    
