@<TRIPOS>MOLECULE
3R540
247   249    1
SMALL
USER_CHARGES


@<TRIPOS>ATOM
      1 CA         -3.3338  -16.2581  -45.8648 C.3       0 UNK        -0.1800 
      2 C          -3.1768  -14.7441  -45.7982 C.2       0 UNK         0.5000 
      3 O          -3.8849  -14.0879  -45.0343 O.2       0 UNK        -0.5000 
      4 N          -2.2626  -14.1883  -46.6024 N.am      1 UNK        -0.5000 
      5 CA         -1.9174  -12.7669  -46.6305 C.3       1 UNK         0.1400 
      6 C6         -1.1666  -12.3868  -47.9327 C.3       23 UNK        -0.0398 
      7 S7          0.4445  -13.2265  -48.1723 S.3       23 UNK        -0.2404 
      8 C8          0.2699  -13.9583  -49.8303 C.3       23 UNK        -0.0205 
      9 C9         -0.2292  -15.3962  -49.7870 C.ar      23 UNK        -0.0193 
     10 C10        -1.5880  -15.6715  -49.6165 C.ar      23 UNK        -0.1150 
     11 C11        -2.0504  -16.9899  -49.6405 C.ar      23 UNK        -0.0193 
     12 C12        -1.1443  -18.0360  -49.8380 C.ar      23 UNK        -0.1150 
     13 C13         0.2201  -17.7792  -50.0227 C.ar      23 UNK        -0.0193 
     14 C14         0.6656  -16.4539  -49.9798 C.ar      23 UNK        -0.1150 
     15 C15         1.2399  -18.8795  -50.3343 C.3       23 UNK        -0.0205 
     16 S16         0.7036  -20.6004  -50.0188 S.3       23 UNK        -0.2404 
     17 C17         0.6778  -20.5750  -48.2045 C.3       23 UNK        -0.0398 
     18 CA          0.2392  -21.9008  -47.5402 C.3       11 UNK         0.1400 
     19 N           0.6074  -21.9067  -46.1229 N.am      11 UNK        -0.5000 
     20 C           0.5464  -22.9611  -45.3000 C.2       10 UNK         0.5000 
     21 O           0.2545  -24.0983  -45.6676 O.2       10 UNK        -0.5000 
     22 CA          0.8267  -22.6886  -43.8072 C.3       10 UNK         0.1400 
     23 CB          2.3307  -22.7733  -43.5080 C.3       10 UNK        -0.1800 
     24 N           0.3133  -21.3903  -43.3597 N.am      10 UNK        -0.5000 
     25 C          -0.9882  -21.0680  -43.3119 C.2       9 UNK         0.5000 
     26 O          -1.8948  -21.8566  -43.5739 O.2       9 UNK        -0.5000 
     27 CA         -1.3322  -19.6025  -42.9867 C.3       9 UNK         0.1400 
     28 CB         -1.2797  -19.3380  -41.4751 C.3       9 UNK        -0.1800 
     29 N          -0.4520  -18.6672  -43.6864 N.am      9 UNK        -0.5000 
     30 C          -0.3960  -18.5361  -45.0183 C.2       8 UNK         0.5000 
     31 O          -1.1518  -19.1230  -45.7879 O.2       8 UNK        -0.5000 
     32 CA          0.7119  -17.6373  -45.5899 C.3       8 UNK         0.1400 
     33 CB          0.2344  -16.1852  -45.6603 C.3       8 UNK        -0.1800 
     34 N           1.9405  -17.7283  -44.8021 N.am      8 UNK        -0.5000 
     35 C           2.7637  -18.7862  -44.8205 C.2       7 UNK         0.5000 
     36 O           2.5911  -19.7651  -45.5442 O.2       7 UNK        -0.5000 
     37 CA          3.9422  -18.7801  -43.8307 C.3       7 UNK         0.1400 
     38 CB          5.2078  -18.1945  -44.4728 C.3       7 UNK        -0.1800 
     39 N           3.6220  -18.0509  -42.6038 N.am      7 UNK        -0.5000 
     40 C           2.7929  -18.5243  -41.6624 C.2       6 UNK         0.5000 
     41 O           2.2751  -19.6408  -41.7148 O.2       6 UNK        -0.5000 
     42 CA          2.4383  -17.5767  -40.5001 C.3       6 UNK         0.1400 
     43 CB          3.4507  -17.7253  -39.3552 C.3       6 UNK        -0.1800 
     44 N           2.3615  -16.1683  -40.8981 N.am      6 UNK        -0.5000 
     45 C           1.4998  -15.6705  -41.7959 C.2       5 UNK         0.5000 
     46 O           0.6628  -16.3593  -42.3773 O.2       5 UNK        -0.5000 
     47 CA          1.5965  -14.1681  -42.1281 C.3       5 UNK         0.1400 
     48 CB          2.3644  -13.3446  -41.0710 C.3       5 UNK        -0.1800 
     49 N           2.1547  -13.9179  -43.4610 N.am      5 UNK        -0.5000 
     50 C           3.3389  -14.3295  -43.9423 C.2       4 UNK         0.5000 
     51 O           4.0830  -15.1077  -43.3439 O.2       4 UNK        -0.5000 
     52 CA          3.7997  -13.7530  -45.2968 C.3       4 UNK         0.1400 
     53 CB          3.6512  -14.7530  -46.4572 C.3       4 UNK        -0.1800 
     54 N           3.1196  -12.5006  -45.6372 N.am      4 UNK        -0.5000 
     55 C           3.6006  -11.2840  -45.3458 C.2       3 UNK         0.5000 
     56 O           4.6824  -11.0855  -44.7912 O.2       3 UNK        -0.5000 
     57 CA          2.7179  -10.0830  -45.7307 C.3       3 UNK         0.1400 
     58 CB          2.7675   -9.8302  -47.2459 C.3       3 UNK        -0.1800 
     59 N           1.3260  -10.2460  -45.3125 N.am      3 UNK        -0.5000 
     60 C           0.9027  -10.2805  -44.0401 C.2       2 UNK         0.5000 
     61 O           1.6473  -10.1499  -43.0687 O.2       2 UNK        -0.5000 
     62 CA         -0.6082  -10.4908  -43.8062 C.3       2 UNK         0.1400 
     63 CB         -1.2864   -9.1595  -43.4480 C.3       2 UNK        -0.1800 
     64 N          -1.3094  -11.0880  -44.9476 N.am      2 UNK        -0.5000 
     65 C          -1.1253  -12.3442  -45.3732 C.2       1 UNK         0.5000 
     66 O          -0.3266  -13.1228  -44.8471 O.2       1 UNK        -0.5000 
     67 C          -1.2682  -22.1862  -47.7276 C.2       11 UNK         0.5000 
     68 O          -1.6321  -23.0831  -48.4876 O.2       11 UNK        -0.5000 
     69 N          -2.1165  -21.4592  -46.9863 N.am      12 UNK        -0.5000 
     70 CA         -3.5713  -21.6206  -46.9641 C.3       12 UNK         0.1400 
     71 CB         -4.1956  -20.4898  -46.1341 C.3       12 UNK        -0.1800 
     72 C          -4.0287  -22.9968  -46.4456 C.2       12 UNK         0.5000 
     73 O          -5.0355  -23.5173  -46.9243 O.2       12 UNK        -0.5000 
     74 N          -3.2694  -23.5879  -45.5129 N.am      13 UNK        -0.5000 
     75 CA         -3.5116  -24.9236  -44.9616 C.3       13 UNK         0.1400 
     76 CB         -2.5730  -25.1701  -43.7709 C.3       13 UNK        -0.1800 
     77 C          -3.3993  -26.0668  -45.9922 C.2       13 UNK         0.5000 
     78 O          -3.9477  -27.1430  -45.7478 O.2       13 UNK        -0.5000 
     79 N          -2.7431  -25.8259  -47.1379 N.am      14 UNK        -0.5000 
     80 CA         -2.6613  -26.7484  -48.2728 C.3       14 UNK         0.1400 
     81 CB         -1.4285  -26.3966  -49.1242 C.3       14 UNK        -0.1800 
     82 C          -3.9701  -26.7518  -49.0936 C.2       14 UNK         0.5000 
     83 O          -3.9674  -26.3820  -50.2699 O.2       14 UNK        -0.5000 
     84 N          -5.0696  -27.1495  -48.4369 N.am      15 UNK        -0.5000 
     85 CA         -6.4319  -27.2946  -48.9610 C.3       15 UNK         0.1400 
     86 CB         -6.5102  -28.5152  -49.9005 C.3       15 UNK        -0.1800 
     87 C          -6.9780  -25.9967  -49.5931 C.2       15 UNK         0.5000 
     88 O          -7.4100  -26.0018  -50.7468 O.2       15 UNK        -0.5000 
     89 N          -6.9184  -24.9030  -48.8171 N.am      16 UNK        -0.5000 
     90 CA         -7.2821  -23.5292  -49.1921 C.3       16 UNK         0.1400 
     91 CB         -8.7787  -23.4202  -49.5564 C.3       16 UNK        -0.1800 
     92 C          -6.3443  -22.9475  -50.2714 C.2       16 UNK         0.5000 
     93 O          -6.7909  -22.1704  -51.1164 O.2       16 UNK        -0.5000 
     94 N          -5.0647  -23.3530  -50.2150 N.am      17 UNK        -0.5000 
     95 CA         -3.9949  -23.0952  -51.1833 C.3       17 UNK         0.1400 
     96 CB         -3.5818  -21.6107  -51.1759 C.3       17 UNK        -0.1800 
     97 C          -4.3872  -23.5959  -52.5862 C.2       17 UNK         0.5000 
     98 O          -4.5453  -22.7965  -53.5105 O.2       17 UNK        -0.5000 
     99 N          -4.5619  -24.9192  -52.7090 N.am      18 UNK        -0.5000 
    100 CA        -5.0903  -25.6179  -53.8892 C.3       18 UNK         0.1400 
    101 CB        -5.1658  -27.1206  -53.5837 C.3       18 UNK        -0.1800 
    102 C         -4.3333  -25.3740  -55.2128 C.2       18 UNK         0.5000 
    103 O         -4.9160  -25.5488  -56.2835 O.2       18 UNK        -0.5000 
    104 N         -3.0674  -24.9465  -55.1229 N.am      19 UNK        -0.5000 
    105 CA        -2.2361  -24.5119  -56.2479 C.3       19 UNK         0.1400 
    106 CB        -0.7659  -24.5440  -55.7976 C.3       19 UNK        -0.1800 
    107 C         -2.6026  -23.1127  -56.7978 C.2       19 UNK         0.5000 
    108 O         -2.0090  -22.6946  -57.7924 O.2       19 UNK        -0.5000 
    109 N         -3.5332  -22.4053  -56.1350 N.am      20 UNK        -0.5000 
    110 CA        -3.9419  -21.0118  -56.3601 C.3       20 UNK         0.1400 
    111 CB        -4.5084  -20.7986  -57.7794 C.3       20 UNK        -0.1800 
    112 C         -2.8267  -20.0126  -55.9880 C.2       20 UNK         0.5000 
    113 O         -2.7244  -18.9343  -56.5774 O.2       20 UNK        -0.5000 
    114 N         -2.0114  -20.3953  -54.9952 N.am      21 UNK        -0.5000 
    115 CA        -0.8115  -19.6878  -54.5461 C.3       21 UNK         0.1400 
    116 CB        -0.0388  -20.5993  -53.5836 C.3       21 UNK        -0.1800 
    117 C         -1.0745  -18.3062  -53.9140 C.2       21 UNK         0.5000 
    118 O         -0.1484  -17.4969  -53.8496 O.2       21 UNK        -0.5000 
    119 N         -2.3207  -18.0454  -53.4942 N.am      22 UNK        -0.5000 
    120 CA        -2.7791  -16.7246  -53.0309 C.3       22 UNK         0.1400 
    121 C         -2.8789  -15.6521  -54.1579 C.2       22 UNK         0.5000 
    122 N         -2.8491  -16.0169  -55.4361 N.am      22 UNK        -0.7600 
    123 O         -2.9868  -14.4644  -53.8661 O.2       22 UNK        -0.5000 
    124 C124       -4.1162  -16.7849  -52.2394 C.3       23 UNK        -0.0398 
    125 S125       -4.2140  -18.0993  -50.9755 S.3       23 UNK        -0.2404 
    126 C126       -3.5345  -17.2877  -49.4937 C.3       23 UNK        -0.0205 
    127 H127       -4.3606  -16.5202  -46.1193 H         1 UNK         0.0600 
    128 H128       -2.6771  -16.7041  -46.6116 H         1 UNK         0.0600 
    129 H129       -3.0965  -16.7035  -44.8986 H         1 UNK         0.0600 
    130 H130       -1.6781  -14.7774  -47.1770 H         1 UNK         0.3000 
    131 H131       -2.8569  -12.2097  -46.6258 H         1 UNK         0.0600 
    132 H132       -1.8148  -12.5899  -48.7853 H         1 UNK         0.0800 
    133 H133       -0.9897  -11.3105  -47.9643 H         1 UNK         0.0800 
    134 H134        1.2449  -13.9214  -50.3183 H         1 UNK         0.0800 
    135 H135       -0.3900  -13.3507  -50.4509 H         1 UNK         0.0800 
    136 H136       -2.2888  -14.8585  -49.4928 H         1 UNK         0.1150 
    137 H137       -1.5246  -19.0459  -49.8841 H         1 UNK         0.1150 
    138 H138        1.7145  -16.2413  -50.1330 H         1 UNK         0.1150 
    139 H139        1.5077  -18.7950  -51.3877 H         1 UNK         0.0800 
    140 H140        2.1565  -18.6941  -49.7721 H         1 UNK         0.0800 
    141 H141        0.0469  -19.7491  -47.8840 H         1 UNK         0.0800 
    142 H142        1.6906  -20.3255  -47.8883 H         1 UNK         0.0800 
    143 H143        0.7900  -22.7157  -48.0149 H         1 UNK         0.0600 
    144 H144        0.9368  -21.0271  -45.7437 H         1 UNK         0.3000 
    145 H145        0.3215  -23.4647  -43.2286 H         1 UNK         0.0600 
    146 H146        2.5305  -22.6278  -42.4462 H         1 UNK         0.0600 
    147 H147        2.7281  -23.7508  -43.7839 H         1 UNK         0.0600 
    148 H148        2.8956  -22.0223  -44.0600 H         1 UNK         0.0600 
    149 H149        0.9970  -20.6974  -43.0772 H         1 UNK         0.3000 
    150 H150       -2.3528  -19.4154  -43.3269 H         1 UNK         0.0600 
    151 H151       -1.9862  -19.9779  -40.9451 H         1 UNK         0.0600 
    152 H152       -1.5402  -18.3044  -41.2465 H         1 UNK         0.0600 
    153 H153       -0.2905  -19.5326  -41.0621 H         1 UNK         0.0600 
    154 H154        0.1376  -18.0670  -43.1177 H         1 UNK         0.3000 
    155 H155        0.9412  -17.9623  -46.6065 H         1 UNK         0.0600 
    156 H156       -0.4098  -15.9172  -44.8218 H         1 UNK         0.0600 
    157 H157       -0.3252  -16.0292  -46.5804 H         1 UNK         0.0600 
    158 H158        1.0565  -15.4783  -45.6626 H         1 UNK         0.0600 
    159 H159        2.1004  -16.9972  -44.1238 H         1 UNK         0.3000 
    160 H160        4.1551  -19.8191  -43.5696 H         1 UNK         0.0600 
    161 H161        6.0620  -18.2772  -43.8008 H         1 UNK         0.0600 
    162 H162        5.0874  -17.1431  -44.7283 H         1 UNK         0.0600 
    163 H163        5.4628  -18.7280  -45.3894 H         1 UNK         0.0600 
    164 H164        3.9684  -17.1005  -42.5301 H         1 UNK         0.3000 
    165 H165        1.4550  -17.8696  -40.1265 H         1 UNK         0.0600 
    166 H166        3.1616  -17.1252  -38.4922 H         1 UNK         0.0600 
    167 H167        3.5138  -18.7622  -39.0221 H         1 UNK         0.0600 
    168 H168        4.4514  -17.4165  -39.6600 H         1 UNK         0.0600 
    169 H169        3.0390  -15.5431  -40.4867 H         1 UNK         0.3000 
    170 H170        0.5706  -13.7976  -42.1519 H         1 UNK         0.0600 
    171 H171        1.9439  -13.4900  -40.0751 H         1 UNK         0.0600 
    172 H172        3.4225  -13.6052  -41.0302 H         1 UNK         0.0600 
    173 H173        2.3001  -12.2790  -41.2917 H         1 UNK         0.0600 
    174 H174        1.5525  -13.3731  -44.0682 H         1 UNK         0.3000 
    175 H175        4.8704  -13.5691  -45.1844 H         1 UNK         0.0600 
    176 H176        2.6584  -14.7348  -46.9004 H         1 UNK         0.0600 
    177 H177        4.3547  -14.5153  -47.2550 H         1 UNK         0.0600 
    178 H178        3.8563  -15.7763  -46.1441 H         1 UNK         0.0600 
    179 H179        2.2196  -12.5763  -46.0905 H         1 UNK         0.3000 
    180 H180        3.1187   -9.2004  -45.2274 H         1 UNK         0.0600 
    181 H181        2.3432  -10.6613  -47.8106 H         1 UNK         0.0600 
    182 H182        3.7953   -9.6944  -47.5850 H         1 UNK         0.0600 
    183 H183        2.2169   -8.9281  -47.5131 H         1 UNK         0.0600 
    184 H184        0.6407  -10.3485  -46.0450 H         1 UNK         0.3000 
    185 H185       -0.7123  -11.1667  -42.9545 H         1 UNK         0.0600 
    186 H186       -0.8116   -8.6994  -42.5802 H         1 UNK         0.0600 
    187 H187       -1.2298   -8.4449  -44.2701 H         1 UNK         0.0600 
    188 H188       -2.3380   -9.3059  -43.2003 H         1 UNK         0.0600 
    189 H189       -1.9746  -10.4952  -45.4234 H         1 UNK         0.3000 
    190 H190       -1.7411  -20.7060  -46.4125 H         1 UNK         0.3000 
    191 H191       -3.9329  -21.5239  -47.9886 H         1 UNK         0.0600 
    192 H192       -3.8583  -20.5198  -45.0977 H         1 UNK         0.0600 
    193 H193       -5.2838  -20.5626  -46.1294 H         1 UNK         0.0600 
    194 H194       -3.9359  -19.5122  -46.5410 H         1 UNK         0.0600 
    195 H195       -2.5016  -23.0614  -45.1102 H         1 UNK         0.3000 
    196 H196       -4.5365  -24.9367  -44.5855 H         1 UNK         0.0600 
    197 H197       -2.7762  -26.1364  -43.3076 H         1 UNK         0.0600 
    198 H198       -2.7024  -24.4101  -43.0004 H         1 UNK         0.0600 
    199 H199       -1.5270  -25.1685  -44.0741 H         1 UNK         0.0600 
    200 H200       -2.3422  -24.9069  -47.2809 H         1 UNK         0.3000 
    201 H201       -2.5145  -27.7608  -47.8910 H         1 UNK         0.0600 
    202 H202       -0.5207  -26.3836  -48.5206 H         1 UNK         0.0600 
    203 H203       -1.5277  -25.4217  -49.6009 H         1 UNK         0.0600 
    204 H204       -1.2826  -27.1313  -49.9169 H         1 UNK         0.0600 
    205 H205       -4.9487  -27.3801  -47.4551 H         1 UNK         0.3000 
    206 H206       -7.0735  -27.5036  -48.1038 H         1 UNK         0.0600 
    207 H207       -6.2388  -29.4303  -49.3744 H         1 UNK         0.0600 
    208 H208       -7.5206  -28.6528  -50.2872 H         1 UNK         0.0600 
    209 H209       -5.8401  -28.4144  -50.7533 H         1 UNK         0.0600 
    210 H210       -6.4907  -24.9857  -47.9029 H         1 UNK         0.3000 
    211 H211       -7.1317  -22.9163  -48.3032 H         1 UNK         0.0600 
    212 H212       -9.0087  -23.9226  -50.4962 H         1 UNK         0.0600 
    213 H213       -9.0765  -22.3769  -49.6663 H         1 UNK         0.0600 
    214 H214       -9.4069  -23.8553  -48.7793 H         1 UNK         0.0600 
    215 H215       -4.8296  -24.0060  -49.4809 H         1 UNK         0.3000 
    216 H216       -3.1309  -23.6801  -50.8642 H         1 UNK         0.0600 
    217 H217       -4.4070  -20.9644  -51.4726 H         1 UNK         0.0600 
    218 H218       -2.7626  -21.4305  -51.8711 H         1 UNK         0.0600 
    219 H219       -3.2408  -21.2937  -50.1917 H         1 UNK         0.0600 
    220 H220       -4.4095  -25.4950  -51.8830 H         1 UNK         0.3000 
    221 H221       -6.1084  -25.2546  -54.0418 H         1 UNK         0.0600 
    222 H222       -4.1929  -27.5232  -53.2994 H         1 UNK         0.0600 
    223 H223       -5.8627  -27.3128  -52.7693 H         1 UNK         0.0600 
    224 H224       -5.5193  -27.6848  -54.4477 H         1 UNK         0.0600 
    225 H225       -2.6720  -24.8404  -54.2005 H         1 UNK         0.3000 
    226 H226       -2.3588  -25.2240  -57.0665 H         1 UNK         0.0600 
    227 H227       -0.4771  -25.5409  -55.4638 H         1 UNK         0.0600 
    228 H228       -0.0971  -24.2727  -56.6155 H         1 UNK         0.0600 
    229 H229       -0.5810  -23.8483  -54.9783 H         1 UNK         0.0600 
    230 H230       -3.9400  -22.8224  -55.3011 H         1 UNK         0.3000 
    231 H231       -4.7546  -20.8249  -55.6568 H         1 UNK         0.0600 
    232 H232       -5.2752  -21.5371  -58.0130 H         1 UNK         0.0600 
    233 H233       -3.7337  -20.8635  -58.5435 H         1 UNK         0.0600 
    234 H234       -4.9685  -19.8140  -57.8693 H         1 UNK         0.0600 
    235 H235       -2.1965  -21.2857  -54.5583 H         1 UNK         0.3000 
    236 H236       -0.1860  -19.5199  -55.4252 H         1 UNK         0.0600 
    237 H237        0.9002  -20.1374  -53.2781 H         1 UNK         0.0600 
    238 H238       -0.6141  -20.8064  -52.6818 H         1 UNK         0.0600 
    239 H239        0.2101  -21.5518  -54.0514 H         1 UNK         0.0600 
    240 H240       -3.0211  -18.7675  -53.5631 H         1 UNK         0.3000 
    241 H241       -2.0144  -16.3536  -52.3480 H         1 UNK         0.0600 
    242 H242       -2.7640  -16.9909  -55.7023 H         1 UNK         0.3800 
    243 H243       -2.9132  -15.3109  -56.1523 H         1 UNK         0.3800 
    244 H244       -4.3140  -15.8251  -51.7590 H         1 UNK         0.0800 
    245 H245       -4.9466  -16.9502  -52.9280 H         1 UNK         0.0800 
    246 H246       -4.1028  -16.3809  -49.2813 H         1 UNK         0.0800 
    247 H247       -3.6761  -17.9492  -48.6381 H         1 UNK         0.0800 
@<TRIPOS>BOND
     1    1    2 1    
     2    1  127 1    
     3    1  128 1    
     4    1  129 1    
     5    2    3 2    
     6    2    4 am   BACKBONE|DICT|INTERRES
     7    4    5 1    
     8    4  130 1    
     9    5    6 1    
    10    5   65 1    
    11    5  131 1    
    12    6    7 1    
    13    6  132 1    
    14    6  133 1    
    15    7    8 1    
    16    8    9 1    
    17    8  134 1    
    18    8  135 1    
    19    9   10 ar   
    20    9   14 ar   
    21   10   11 ar   
    22   10  136 1    
    23   11   12 ar   
    24   11  126 1    
    25   12   13 ar   
    26   12  137 1    
    27   13   14 ar   
    28   13   15 1    
    29   14  138 1    
    30   15   16 1    
    31   15  139 1    
    32   15  140 1    
    33   16   17 1    
    34   17   18 1    
    35   17  141 1    
    36   17  142 1    
    37   18   19 1    
    38   18   67 1    
    39   18  143 1    
    40   19   20 am   BACKBONE|DICT|INTERRES
    41   19  144 1    
    42   20   21 2    
    43   20   22 1    
    44   22   23 1    
    45   22   24 1    
    46   22  145 1    
    47   23  146 1    
    48   23  147 1    
    49   23  148 1    
    50   24   25 am   BACKBONE|DICT|INTERRES
    51   24  149 1    
    52   25   26 2    
    53   25   27 1    
    54   27   28 1    
    55   27   29 1    
    56   27  150 1    
    57   28  151 1    
    58   28  152 1    
    59   28  153 1    
    60   29   30 am   BACKBONE|DICT|INTERRES
    61   29  154 1    
    62   30   31 2    
    63   30   32 1    
    64   32   33 1    
    65   32   34 1    
    66   32  155 1    
    67   33  156 1    
    68   33  157 1    
    69   33  158 1    
    70   34   35 am   BACKBONE|DICT|INTERRES
    71   34  159 1    
    72   35   36 2    
    73   35   37 1    
    74   37   38 1    
    75   37   39 1    
    76   37  160 1    
    77   38  161 1    
    78   38  162 1    
    79   38  163 1    
    80   39   40 am   BACKBONE|DICT|INTERRES
    81   39  164 1    
    82   40   41 2    
    83   40   42 1    
    84   42   43 1    
    85   42   44 1    
    86   42  165 1    
    87   43  166 1    
    88   43  167 1    
    89   43  168 1    
    90   44   45 am   BACKBONE|DICT|INTERRES
    91   44  169 1    
    92   45   46 2    
    93   45   47 1    
    94   47   48 1    
    95   47   49 1    
    96   47  170 1    
    97   48  171 1    
    98   48  172 1    
    99   48  173 1    
   100   49   50 am   BACKBONE|DICT|INTERRES
   101   49  174 1    
   102   50   51 2    
   103   50   52 1    
   104   52   53 1    
   105   52   54 1    
   106   52  175 1    
   107   53  176 1    
   108   53  177 1    
   109   53  178 1    
   110   54   55 am   BACKBONE|DICT|INTERRES
   111   54  179 1    
   112   55   56 2    
   113   55   57 1    
   114   57   58 1    
   115   57   59 1    
   116   57  180 1    
   117   58  181 1    
   118   58  182 1    
   119   58  183 1    
   120   59   60 am   BACKBONE|DICT|INTERRES
   121   59  184 1    
   122   60   61 2    
   123   60   62 1    
   124   62   63 1    
   125   62   64 1    
   126   62  185 1    
   127   63  186 1    
   128   63  187 1    
   129   63  188 1    
   130   64   65 am   BACKBONE|DICT|INTERRES
   131   64  189 1    
   132   65   66 2    
   133   67   68 2    
   134   67   69 am   BACKBONE|DICT|INTERRES
   135   69   70 1    
   136   69  190 1    
   137   70   71 1    
   138   70   72 1    
   139   70  191 1    
   140   71  192 1    
   141   71  193 1    
   142   71  194 1    
   143   72   73 2    
   144   72   74 am   BACKBONE|DICT|INTERRES
   145   74   75 1    
   146   74  195 1    
   147   75   76 1    
   148   75   77 1    
   149   75  196 1    
   150   76  197 1    
   151   76  198 1    
   152   76  199 1    
   153   77   78 2    
   154   77   79 am   BACKBONE|DICT|INTERRES
   155   79   80 1    
   156   79  200 1    
   157   80   81 1    
   158   80   82 1    
   159   80  201 1    
   160   81  202 1    
   161   81  203 1    
   162   81  204 1    
   163   82   83 2    
   164   82   84 am   BACKBONE|DICT|INTERRES
   165   84   85 1    
   166   84  205 1    
   167   85   86 1    
   168   85   87 1    
   169   85  206 1    
   170   86  207 1    
   171   86  208 1    
   172   86  209 1    
   173   87   88 2    
   174   87   89 am   BACKBONE|DICT|INTERRES
   175   89   90 1    
   176   89  210 1    
   177   90   91 1    
   178   90   92 1    
   179   90  211 1    
   180   91  212 1    
   181   91  213 1    
   182   91  214 1    
   183   92   93 2    
   184   92   94 am   BACKBONE|DICT|INTERRES
   185   94   95 1    
   186   94  215 1    
   187   95   96 1    
   188   95   97 1    
   189   95  216 1    
   190   96  217 1    
   191   96  218 1    
   192   96  219 1    
   193   97   98 2    
   194   97   99 am   BACKBONE|DICT|INTERRES
   195   99  100 1    
   196   99  220 1    
   197  100  101 1    
   198  100  102 1    
   199  100  221 1    
   200  101  222 1    
   201  101  223 1    
   202  101  224 1    
   203  102  103 2    
   204  102  104 am   BACKBONE|DICT|INTERRES
   205  104  105 1    
   206  104  225 1    
   207  105  106 1    
   208  105  107 1    
   209  105  226 1    
   210  106  227 1    
   211  106  228 1    
   212  106  229 1    
   213  107  108 2    
   214  107  109 am   BACKBONE|DICT|INTERRES
   215  109  110 1    
   216  109  230 1    
   217  110  111 1    
   218  110  112 1    
   219  110  231 1    
   220  111  232 1    
   221  111  233 1    
   222  111  234 1    
   223  112  113 2    
   224  112  114 am   BACKBONE|DICT|INTERRES
   225  114  115 1    
   226  114  235 1    
   227  115  116 1    
   228  115  117 1    
   229  115  236 1    
   230  116  237 1    
   231  116  238 1    
   232  116  239 1    
   233  117  118 2    
   234  117  119 am   BACKBONE|DICT|INTERRES
   235  119  120 1    
   236  119  240 1    
   237  120  121 1    
   238  120  124 1    
   239  120  241 1    
   240  121  122 am   BACKBONE|DICT|INTERRES
   241  121  123 2    
   242  122  242 1    
   243  122  243 1    
   244  124  125 1    
   245  124  244 1    
   246  124  245 1    
   247  125  126 1    
   248  126  246 1    
   249  126  247 1    
@<TRIPOS>SUBSTRUCTURE
     1 UNK         1 GROUP             0       ****    0 ROOT    
