@<TRIPOS>MOLECULE
3R540
247   249    1
SMALL
USER_CHARGES


@<TRIPOS>ATOM
      1 CA          4.8298  -14.9693  -48.5859 C.3       0 UNK        -0.1800 
      2 C           3.6697  -15.5796  -49.3597 C.2       0 UNK         0.5000 
      3 O           3.6277  -15.4651  -50.5848 O.2       0 UNK        -0.5000 
      4 N           2.7383  -16.2224  -48.6484 N.am      1 UNK        -0.5000 
      5 CA          1.5942  -16.9479  -49.1967 C.3       1 UNK         0.1400 
      6 C6          0.2647  -16.5287  -48.5129 C.3       23 UNK        -0.0398 
      7 S7         -0.1000  -14.7504  -48.6970 S.3       23 UNK        -0.2404 
      8 C8         -1.5435  -14.5729  -47.6015 C.3       23 UNK        -0.0205 
      9 C9         -2.7367  -15.3708  -48.1013 C.ar      23 UNK        -0.0193 
     10 C10        -3.4722  -14.9256  -49.2021 C.ar      23 UNK        -0.1150 
     11 C11        -4.5515  -15.6724  -49.6880 C.ar      23 UNK        -0.0193 
     12 C12        -4.8960  -16.8680  -49.0474 C.ar      23 UNK        -0.1150 
     13 C13        -4.1833  -17.3129  -47.9295 C.ar      23 UNK        -0.0193 
     14 C14        -3.1076  -16.5544  -47.4606 C.ar      23 UNK        -0.1150 
     15 C15        -4.6060  -18.5859  -47.2071 C.3       23 UNK        -0.0205 
     16 S16        -3.2305  -19.7563  -46.9763 S.3       23 UNK        -0.2404 
     17 C17        -4.1394  -21.1764  -46.2877 C.3       23 UNK        -0.0398 
     18 CA         -3.2054  -22.3625  -45.9545 C.3       11 UNK         0.1400 
     19 N          -2.2508  -22.0387  -44.8825 N.am      11 UNK        -0.5000 
     20 C          -1.2285  -22.8180  -44.5053 C.2       10 UNK         0.5000 
     21 O          -1.0237  -23.9283  -44.9984 O.2       10 UNK        -0.5000 
     22 CA         -0.2942  -22.2779  -43.4079 C.3       10 UNK         0.1400 
     23 CB          0.9860  -23.1211  -43.2651 C.3       10 UNK        -0.1800 
     24 N           0.0948  -20.9008  -43.6877 N.am      10 UNK        -0.5000 
     25 C          -0.5010  -19.8024  -43.2204 C.2       9 UNK         0.5000 
     26 O          -1.5230  -19.8162  -42.5304 O.2       9 UNK        -0.5000 
     27 CA          0.1394  -18.4667  -43.6416 C.3       9 UNK         0.1400 
     28 CB         -0.5938  -17.8960  -44.8604 C.3       9 UNK        -0.1800 
     29 N           0.1387  -17.4658  -42.5747 N.am      9 UNK        -0.5000 
     30 C           0.7174  -17.6086  -41.3719 C.2       8 UNK         0.5000 
     31 O           1.3386  -18.6154  -41.0287 O.2       8 UNK        -0.5000 
     32 CA          0.6141  -16.4320  -40.3805 C.3       8 UNK         0.1400 
     33 CB          1.9923  -15.7904  -40.1509 C.3       8 UNK        -0.1800 
     34 N          -0.3299  -15.3988  -40.8085 N.am      8 UNK        -0.5000 
     35 C          -1.6596  -15.4803  -40.6585 C.2       7 UNK         0.5000 
     36 O          -2.2214  -16.4194  -40.0937 O.2       7 UNK        -0.5000 
     37 CA         -2.5151  -14.3291  -41.2269 C.3       7 UNK         0.1400 
     38 CB         -3.0545  -13.4480  -40.0891 C.3       7 UNK        -0.1800 
     39 N          -1.8150  -13.4743  -42.1888 N.am      7 UNK        -0.5000 
     40 C          -1.4156  -13.8485  -43.4112 C.2       6 UNK         0.5000 
     41 O          -1.5836  -14.9839  -43.8572 O.2       6 UNK        -0.5000 
     42 CA         -0.7132  -12.7829  -44.2831 C.3       6 UNK         0.1400 
     43 CB         -0.3484  -11.4879  -43.5218 C.3       6 UNK        -0.1800 
     44 N           0.4719  -13.2960  -44.9786 N.am      6 UNK        -0.5000 
     45 C           1.5364  -13.8953  -44.4275 C.2       5 UNK         0.5000 
     46 O           1.6431  -14.1593  -43.2276 O.2       5 UNK        -0.5000 
     47 CA          2.7072  -14.1721  -45.3854 C.3       5 UNK         0.1400 
     48 CB          3.5618  -12.9052  -45.5513 C.3       5 UNK        -0.1800 
     49 N           3.5665  -15.2490  -44.8953 N.am      5 UNK        -0.5000 
     50 C           3.3768  -16.5439  -45.1613 C.2       4 UNK         0.5000 
     51 O           2.4640  -16.9651  -45.8760 O.2       4 UNK        -0.5000 
     52 CA          4.4041  -17.5243  -44.5776 C.3       4 UNK         0.1400 
     53 CB          4.2328  -17.6980  -43.0599 C.3       4 UNK        -0.1800 
     54 N           4.2435  -18.8124  -45.2410 N.am      4 UNK        -0.5000 
     55 C           5.1940  -19.7210  -45.4682 C.2       3 UNK         0.5000 
     56 O           6.3592  -19.5854  -45.0925 O.2       3 UNK        -0.5000 
     57 CA          4.8080  -20.9865  -46.2682 C.3       3 UNK         0.1400 
     58 CB          4.6393  -22.1996  -45.3311 C.3       3 UNK        -0.1800 
     59 N           3.6491  -20.8483  -47.1672 N.am      3 UNK        -0.5000 
     60 C           2.3589  -20.6948  -46.8443 C.2       2 UNK         0.5000 
     61 O           1.9547  -20.5596  -45.6903 O.2       2 UNK        -0.5000 
     62 CA          1.3590  -20.6172  -48.0092 C.3       2 UNK         0.1400 
     63 CB          0.0266  -21.2979  -47.6624 C.3       2 UNK        -0.1800 
     64 N           1.1002  -19.2202  -48.3431 N.am      2 UNK        -0.5000 
     65 C           1.9250  -18.4508  -49.0659 C.2       1 UNK         0.5000 
     66 O           2.9414  -18.8912  -49.6085 O.2       1 UNK        -0.5000 
     67 C          -4.0301  -23.6431  -45.6836 C.2       11 UNK         0.5000 
     68 O          -4.5079  -24.2655  -46.6314 O.2       11 UNK        -0.5000 
     69 N          -4.1615  -24.0296  -44.4084 N.am      12 UNK        -0.5000 
     70 CA         -4.8342  -25.2529  -43.9741 C.3       12 UNK         0.1400 
     71 CB         -5.3089  -25.0544  -42.5254 C.3       12 UNK        -0.1800 
     72 C          -3.9570  -26.5193  -44.0797 C.2       12 UNK         0.5000 
     73 O          -4.5021  -27.6182  -43.9649 O.2       12 UNK        -0.5000 
     74 N          -2.6356  -26.3647  -44.2563 N.am      13 UNK        -0.5000 
     75 CA         -1.6652  -27.4618  -44.2104 C.3       13 UNK         0.1400 
     76 CB         -0.8028  -27.3237  -42.9439 C.3       13 UNK        -0.1800 
     77 C          -0.7923  -27.5116  -45.4728 C.2       13 UNK         0.5000 
     78 O          -0.7686  -28.5378  -46.1534 O.2       13 UNK        -0.5000 
     79 N          -0.0853  -26.4123  -45.7620 N.am      14 UNK        -0.5000 
     80 CA          0.7916  -26.2694  -46.9238 C.3       14 UNK         0.1400 
     81 CB          1.8218  -25.1610  -46.6494 C.3       14 UNK        -0.1800 
     82 C          -0.0049  -25.9625  -48.2017 C.2       14 UNK         0.5000 
     83 O           0.3488  -26.4625  -49.2704 O.2       14 UNK        -0.5000 
     84 N          -1.0679  -25.1564  -48.0554 N.am      15 UNK        -0.5000 
     85 CA         -2.0252  -24.7010  -49.0719 C.3       15 UNK         0.1400 
     86 CB         -2.8015  -25.8803  -49.6877 C.3       15 UNK        -0.1800 
     87 C          -1.4186  -23.7935  -50.1571 C.2       15 UNK         0.5000 
     88 O          -1.8860  -22.6682  -50.3302 O.2       15 UNK        -0.5000 
     89 N          -0.4133  -24.3034  -50.8829 N.am      16 UNK        -0.5000 
     90 CA          0.3890  -23.6488  -51.9288 C.3       16 UNK         0.1400 
     91 CB          1.2941  -22.5798  -51.2863 C.3       16 UNK        -0.1800 
     92 C          -0.4145  -23.0660  -53.1154 C.2       16 UNK         0.5000 
     93 O           0.1308  -22.2721  -53.8834 O.2       16 UNK        -0.5000 
     94 N          -1.6982  -23.4419  -53.2231 N.am      17 UNK        -0.5000 
     95 CA         -2.7328  -22.8531  -54.0796 C.3       17 UNK         0.1400 
     96 CB         -2.4478  -23.1402  -55.5684 C.3       17 UNK        -0.1800 
     97 C          -2.9754  -21.3518  -53.7966 C.2       17 UNK         0.5000 
     98 O          -3.4132  -20.6310  -54.6940 O.2       17 UNK        -0.5000 
     99 N          -2.7040  -20.8997  -52.5599 N.am      18 UNK        -0.5000 
    100 CA        -2.7527  -19.4931  -52.1455 C.3       18 UNK         0.1400 
    101 CB        -2.2979  -19.3690  -50.6829 C.3       18 UNK        -0.1800 
    102 C         -4.1308  -18.8391  -52.3465 C.2       18 UNK         0.5000 
    103 O         -4.2059  -17.7095  -52.8259 O.2       18 UNK        -0.5000 
    104 N         -5.1970  -19.5913  -52.0412 N.am      19 UNK        -0.5000 
    105 CA        -6.5889  -19.1773  -52.2262 C.3       19 UNK         0.1400 
    106 CB        -7.5116  -20.2296  -51.5940 C.3       19 UNK        -0.1800 
    107 C         -6.9726  -18.9308  -53.6997 C.2       19 UNK         0.5000 
    108 O         -7.8196  -18.0775  -53.9653 O.2       19 UNK        -0.5000 
    109 N         -6.3396  -19.6653  -54.6253 N.am      20 UNK        -0.5000 
    110 CA        -6.5043  -19.4907  -56.0674 C.3       20 UNK         0.1400 
    111 CB        -6.2181  -20.8198  -56.7836 C.3       20 UNK        -0.1800 
    112 C         -5.5949  -18.3721  -56.6028 C.2       20 UNK         0.5000 
    113 O         -6.0367  -17.5799  -57.4361 O.2       20 UNK        -0.5000 
    114 N         -4.3530  -18.3091  -56.0989 N.am      21 UNK        -0.5000 
    115 CA        -3.3241  -17.3358  -56.4782 C.3       21 UNK         0.1400 
    116 CB        -2.0159  -17.6651  -55.7442 C.3       21 UNK        -0.1800 
    117 C         -3.7263  -15.8684  -56.2343 C.2       21 UNK         0.5000 
    118 O         -3.3140  -14.9963  -57.0006 O.2       21 UNK        -0.5000 
    119 N         -4.5470  -15.6268  -55.2043 N.am      22 UNK        -0.5000 
    120 CA        -5.1792  -14.3253  -54.9285 C.3       22 UNK         0.1400 
    121 C         -6.2906  -13.9104  -55.9421 C.2       22 UNK         0.5000 
    122 N         -6.7375  -14.7667  -56.8539 N.am      22 UNK        -0.7600 
    123 O         -6.7556  -12.7742  -55.9056 O.2       22 UNK        -0.5000 
    124 C124       -5.7118  -14.2323  -53.4765 C.3       23 UNK        -0.0398 
    125 S125       -4.4065  -14.4591  -52.2229 S.3       23 UNK        -0.2404 
    126 C126       -5.3875  -15.1842  -50.8673 C.3       23 UNK        -0.0205 
    127 H127        5.7782  -15.2796  -49.0244 H         1 UNK         0.0600 
    128 H128        4.8277  -15.2763  -47.5407 H         1 UNK         0.0600 
    129 H129        4.7748  -13.8815  -48.6249 H         1 UNK         0.0600 
    130 H130        2.8398  -16.3242  -47.6436 H         1 UNK         0.3000 
    131 H131        1.4914  -16.7475  -50.2649 H         1 UNK         0.0600 
    132 H132       -0.5716  -17.0852  -48.9391 H         1 UNK         0.0800 
    133 H133        0.2899  -16.7542  -47.4473 H         1 UNK         0.0800 
    134 H134       -1.2710  -14.8857  -46.5929 H         1 UNK         0.0800 
    135 H135       -1.8152  -13.5185  -47.5365 H         1 UNK         0.0800 
    136 H136       -3.1952  -13.9985  -49.6835 H         1 UNK         0.1150 
    137 H137       -5.7358  -17.4447  -49.4086 H         1 UNK         0.1150 
    138 H138       -2.5563  -16.8894  -46.5955 H         1 UNK         0.1150 
    139 H139       -5.0171  -18.3183  -46.2328 H         1 UNK         0.0800 
    140 H140       -5.4043  -19.0865  -47.7575 H         1 UNK         0.0800 
    141 H141       -4.8874  -21.4717  -47.0264 H         1 UNK         0.0800 
    142 H142       -4.6879  -20.8563  -45.4001 H         1 UNK         0.0800 
    143 H143       -2.6093  -22.5674  -46.8447 H         1 UNK         0.0600 
    144 H144       -2.3595  -21.1377  -44.4376 H         1 UNK         0.3000 
    145 H145       -0.8381  -22.3270  -42.4627 H         1 UNK         0.0600 
    146 H146        1.6313  -22.7256  -42.4806 H         1 UNK         0.0600 
    147 H147        0.7535  -24.1530  -43.0016 H         1 UNK         0.0600 
    148 H148        1.5612  -23.1373  -44.1916 H         1 UNK         0.0600 
    149 H149        0.8744  -20.7888  -44.3370 H         1 UNK         0.3000 
    150 H150        1.1799  -18.6449  -43.9174 H         1 UNK         0.0600 
    151 H151       -0.5269  -18.5746  -45.7107 H         1 UNK         0.0600 
    152 H152       -0.1654  -16.9416  -45.1648 H         1 UNK         0.0600 
    153 H153       -1.6506  -17.7348  -44.6448 H         1 UNK         0.0600 
    154 H154       -0.3620  -16.6083  -42.7701 H         1 UNK         0.3000 
    155 H155        0.2761  -16.8423  -39.4265 H         1 UNK         0.0600 
    156 H156        2.4182  -15.4032  -41.0761 H         1 UNK         0.0600 
    157 H157        2.6987  -16.5179  -39.7491 H         1 UNK         0.0600 
    158 H158        1.9330  -14.9686  -39.4372 H         1 UNK         0.0600 
    159 H159        0.0589  -14.6158  -41.3172 H         1 UNK         0.3000 
    160 H160       -3.3657  -14.7836  -41.7391 H         1 UNK         0.0600 
    161 H161       -2.2477  -12.9514  -39.5485 H         1 UNK         0.0600 
    162 H162       -3.6170  -14.0411  -39.3667 H         1 UNK         0.0600 
    163 H163       -3.7282  -12.6798  -40.4693 H         1 UNK         0.0600 
    164 H164       -1.6274  -12.5276  -41.8922 H         1 UNK         0.3000 
    165 H165       -1.4308  -12.5159  -45.0600 H         1 UNK         0.0600 
    166 H166        0.1368  -10.7715  -44.1850 H         1 UNK         0.0600 
    167 H167       -1.2351  -10.9945  -43.1222 H         1 UNK         0.0600 
    168 H168        0.3340  -11.6806  -42.6928 H         1 UNK         0.0600 
    169 H169        0.4832  -13.1379  -45.9759 H         1 UNK         0.3000 
    170 H170        2.3004  -14.4421  -46.3623 H         1 UNK         0.0600 
    171 H171        2.9735  -12.0855  -45.9656 H         1 UNK         0.0600 
    172 H172        3.9683  -12.5667  -44.5972 H         1 UNK         0.0600 
    173 H173        4.3985  -13.0759  -46.2281 H         1 UNK         0.0600 
    174 H174        4.3033  -14.9759  -44.2615 H         1 UNK         0.3000 
    175 H175        5.3988  -17.1268  -44.7895 H         1 UNK         0.0600 
    176 H176        3.2798  -18.1663  -42.8205 H         1 UNK         0.0600 
    177 H177        5.0219  -18.3254  -42.6454 H         1 UNK         0.0600 
    178 H178        4.2718  -16.7407  -42.5391 H         1 UNK         0.0600 
    179 H179        3.3073  -18.9968  -45.5858 H         1 UNK         0.3000 
    180 H180        5.6551  -21.1984  -46.9225 H         1 UNK         0.0600 
    181 H181        4.4006  -23.1037  -45.8912 H         1 UNK         0.0600 
    182 H182        3.8497  -22.0409  -44.5962 H         1 UNK         0.0600 
    183 H183        5.5592  -22.3930  -44.7780 H         1 UNK         0.0600 
    184 H184        3.8802  -20.8439  -48.1519 H         1 UNK         0.3000 
    185 H185        1.7862  -21.1275  -48.8728 H         1 UNK         0.0600 
    186 H186       -0.6855  -21.2072  -48.4814 H         1 UNK         0.0600 
    187 H187        0.1664  -22.3607  -47.4668 H         1 UNK         0.0600 
    188 H188       -0.4336  -20.8574  -46.7786 H         1 UNK         0.0600 
    189 H189        0.3010  -18.8028  -47.8921 H         1 UNK         0.3000 
    190 H190       -3.7445  -23.4603  -43.6868 H         1 UNK         0.3000 
    191 H191       -5.7156  -25.4141  -44.5987 H         1 UNK         0.0600 
    192 H192       -5.8556  -25.9282  -42.1681 H         1 UNK         0.0600 
    193 H193       -5.9799  -24.1991  -42.4435 H         1 UNK         0.0600 
    194 H194       -4.4712  -24.8916  -41.8460 H         1 UNK         0.0600 
    195 H195       -2.2633  -25.4344  -44.4057 H         1 UNK         0.3000 
    196 H196       -2.1763  -28.4249  -44.1515 H         1 UNK         0.0600 
    197 H197       -0.2881  -26.3636  -42.9047 H         1 UNK         0.0600 
    198 H198       -1.4131  -27.4101  -42.0448 H         1 UNK         0.0600 
    199 H199       -0.0448  -28.1067  -42.8982 H         1 UNK         0.0600 
    200 H200       -0.2210  -25.5753  -45.2029 H         1 UNK         0.3000 
    201 H201        1.3324  -27.2055  -47.0790 H         1 UNK         0.0600 
    202 H202        1.3443  -24.1981  -46.4681 H         1 UNK         0.0600 
    203 H203        2.4984  -25.0371  -47.4959 H         1 UNK         0.0600 
    204 H204        2.4318  -25.3981  -45.7777 H         1 UNK         0.0600 
    205 H205       -1.2300  -24.7995  -47.1226 H         1 UNK         0.3000 
    206 H206       -2.7545  -24.0885  -48.5459 H         1 UNK         0.0600 
    207 H207       -3.3107  -26.4563  -48.9147 H         1 UNK         0.0600 
    208 H208       -3.5646  -25.5239  -50.3805 H         1 UNK         0.0600 
    209 H209       -2.1530  -26.5615  -50.2389 H         1 UNK         0.0600 
    210 H210       -0.1019  -25.2342  -50.6139 H         1 UNK         0.3000 
    211 H211        1.0317  -24.4237  -52.3486 H         1 UNK         0.0600 
    212 H212        2.0155  -22.1875  -52.0039 H         1 UNK         0.0600 
    213 H213        1.8617  -22.9946  -50.4534 H         1 UNK         0.0600 
    214 H214        0.7109  -21.7362  -50.9152 H         1 UNK         0.0600 
    215 H215       -2.0314  -24.1010  -52.5347 H         1 UNK         0.3000 
    216 H216       -3.6638  -23.3588  -53.8208 H         1 UNK         0.0600 
    217 H217       -1.5758  -22.5931  -55.9275 H         1 UNK         0.0600 
    218 H218       -3.2934  -22.8487  -56.1922 H         1 UNK         0.0600 
    219 H219       -2.2722  -24.2022  -55.7391 H         1 UNK         0.0600 
    220 H220       -2.3720  -21.5585  -51.8604 H         1 UNK         0.3000 
    221 H221       -2.0380  -18.9487  -52.7644 H         1 UNK         0.0600 
    222 H222       -1.2735  -19.7198  -50.5561 H         1 UNK         0.0600 
    223 H223       -2.9341  -19.9511  -50.0155 H         1 UNK         0.0600 
    224 H224       -2.3327  -18.3317  -50.3468 H         1 UNK         0.0600 
    225 H225       -5.0392  -20.5168  -51.6709 H         1 UNK         0.3000 
    226 H226       -6.7307  -18.2374  -51.6905 H         1 UNK         0.0600 
    227 H227       -7.3953  -21.2045  -52.0692 H         1 UNK         0.0600 
    228 H228       -7.3058  -20.3467  -50.5298 H         1 UNK         0.0600 
    229 H229       -8.5587  -19.9397  -51.6912 H         1 UNK         0.0600 
    230 H230       -5.6085  -20.2970  -54.3281 H         1 UNK         0.3000 
    231 H231       -7.5392  -19.2140  -56.2807 H         1 UNK         0.0600 
    232 H232       -5.1914  -21.1527  -56.6310 H         1 UNK         0.0600 
    233 H233       -6.3730  -20.7223  -57.8588 H         1 UNK         0.0600 
    234 H234       -6.8821  -21.6087  -56.4299 H         1 UNK         0.0600 
    235 H235       -4.0628  -19.0329  -55.4467 H         1 UNK         0.3000 
    236 H236       -3.1506  -17.4531  -57.5496 H         1 UNK         0.0600 
    237 H237       -2.1203  -17.5360  -54.6672 H         1 UNK         0.0600 
    238 H238       -1.7011  -18.6918  -55.9323 H         1 UNK         0.0600 
    239 H239       -1.2085  -17.0105  -56.0746 H         1 UNK         0.0600 
    240 H240       -4.7758  -16.3877  -54.5761 H         1 UNK         0.3000 
    241 H241       -4.4005  -13.5672  -55.0310 H         1 UNK         0.0600 
    242 H242       -7.4523  -14.4672  -57.4978 H         1 UNK         0.3800 
    243 H243       -6.3693  -15.7097  -56.9266 H         1 UNK         0.3800 
    244 H244       -6.1703  -13.2590  -53.2928 H         1 UNK         0.0800 
    245 H245       -6.4977  -14.9746  -53.3264 H         1 UNK         0.0800 
    246 H246       -6.1024  -14.4432  -50.5078 H         1 UNK         0.0800 
    247 H247       -5.9701  -16.0123  -51.2716 H         1 UNK         0.0800 
@<TRIPOS>BOND
     1    1    2 1    
     2    1  127 1    
     3    1  128 1    
     4    1  129 1    
     5    2    3 2    
     6    2    4 am   BACKBONE|DICT|INTERRES
     7    4    5 1    
     8    4  130 1    
     9    5    6 1    
    10    5   65 1    
    11    5  131 1    
    12    6    7 1    
    13    6  132 1    
    14    6  133 1    
    15    7    8 1    
    16    8    9 1    
    17    8  134 1    
    18    8  135 1    
    19    9   10 ar   
    20    9   14 ar   
    21   10   11 ar   
    22   10  136 1    
    23   11   12 ar   
    24   11  126 1    
    25   12   13 ar   
    26   12  137 1    
    27   13   14 ar   
    28   13   15 1    
    29   14  138 1    
    30   15   16 1    
    31   15  139 1    
    32   15  140 1    
    33   16   17 1    
    34   17   18 1    
    35   17  141 1    
    36   17  142 1    
    37   18   19 1    
    38   18   67 1    
    39   18  143 1    
    40   19   20 am   BACKBONE|DICT|INTERRES
    41   19  144 1    
    42   20   21 2    
    43   20   22 1    
    44   22   23 1    
    45   22   24 1    
    46   22  145 1    
    47   23  146 1    
    48   23  147 1    
    49   23  148 1    
    50   24   25 am   BACKBONE|DICT|INTERRES
    51   24  149 1    
    52   25   26 2    
    53   25   27 1    
    54   27   28 1    
    55   27   29 1    
    56   27  150 1    
    57   28  151 1    
    58   28  152 1    
    59   28  153 1    
    60   29   30 am   BACKBONE|DICT|INTERRES
    61   29  154 1    
    62   30   31 2    
    63   30   32 1    
    64   32   33 1    
    65   32   34 1    
    66   32  155 1    
    67   33  156 1    
    68   33  157 1    
    69   33  158 1    
    70   34   35 am   BACKBONE|DICT|INTERRES
    71   34  159 1    
    72   35   36 2    
    73   35   37 1    
    74   37   38 1    
    75   37   39 1    
    76   37  160 1    
    77   38  161 1    
    78   38  162 1    
    79   38  163 1    
    80   39   40 am   BACKBONE|DICT|INTERRES
    81   39  164 1    
    82   40   41 2    
    83   40   42 1    
    84   42   43 1    
    85   42   44 1    
    86   42  165 1    
    87   43  166 1    
    88   43  167 1    
    89   43  168 1    
    90   44   45 am   BACKBONE|DICT|INTERRES
    91   44  169 1    
    92   45   46 2    
    93   45   47 1    
    94   47   48 1    
    95   47   49 1    
    96   47  170 1    
    97   48  171 1    
    98   48  172 1    
    99   48  173 1    
   100   49   50 am   BACKBONE|DICT|INTERRES
   101   49  174 1    
   102   50   51 2    
   103   50   52 1    
   104   52   53 1    
   105   52   54 1    
   106   52  175 1    
   107   53  176 1    
   108   53  177 1    
   109   53  178 1    
   110   54   55 am   BACKBONE|DICT|INTERRES
   111   54  179 1    
   112   55   56 2    
   113   55   57 1    
   114   57   58 1    
   115   57   59 1    
   116   57  180 1    
   117   58  181 1    
   118   58  182 1    
   119   58  183 1    
   120   59   60 am   BACKBONE|DICT|INTERRES
   121   59  184 1    
   122   60   61 2    
   123   60   62 1    
   124   62   63 1    
   125   62   64 1    
   126   62  185 1    
   127   63  186 1    
   128   63  187 1    
   129   63  188 1    
   130   64   65 am   BACKBONE|DICT|INTERRES
   131   64  189 1    
   132   65   66 2    
   133   67   68 2    
   134   67   69 am   BACKBONE|DICT|INTERRES
   135   69   70 1    
   136   69  190 1    
   137   70   71 1    
   138   70   72 1    
   139   70  191 1    
   140   71  192 1    
   141   71  193 1    
   142   71  194 1    
   143   72   73 2    
   144   72   74 am   BACKBONE|DICT|INTERRES
   145   74   75 1    
   146   74  195 1    
   147   75   76 1    
   148   75   77 1    
   149   75  196 1    
   150   76  197 1    
   151   76  198 1    
   152   76  199 1    
   153   77   78 2    
   154   77   79 am   BACKBONE|DICT|INTERRES
   155   79   80 1    
   156   79  200 1    
   157   80   81 1    
   158   80   82 1    
   159   80  201 1    
   160   81  202 1    
   161   81  203 1    
   162   81  204 1    
   163   82   83 2    
   164   82   84 am   BACKBONE|DICT|INTERRES
   165   84   85 1    
   166   84  205 1    
   167   85   86 1    
   168   85   87 1    
   169   85  206 1    
   170   86  207 1    
   171   86  208 1    
   172   86  209 1    
   173   87   88 2    
   174   87   89 am   BACKBONE|DICT|INTERRES
   175   89   90 1    
   176   89  210 1    
   177   90   91 1    
   178   90   92 1    
   179   90  211 1    
   180   91  212 1    
   181   91  213 1    
   182   91  214 1    
   183   92   93 2    
   184   92   94 am   BACKBONE|DICT|INTERRES
   185   94   95 1    
   186   94  215 1    
   187   95   96 1    
   188   95   97 1    
   189   95  216 1    
   190   96  217 1    
   191   96  218 1    
   192   96  219 1    
   193   97   98 2    
   194   97   99 am   BACKBONE|DICT|INTERRES
   195   99  100 1    
   196   99  220 1    
   197  100  101 1    
   198  100  102 1    
   199  100  221 1    
   200  101  222 1    
   201  101  223 1    
   202  101  224 1    
   203  102  103 2    
   204  102  104 am   BACKBONE|DICT|INTERRES
   205  104  105 1    
   206  104  225 1    
   207  105  106 1    
   208  105  107 1    
   209  105  226 1    
   210  106  227 1    
   211  106  228 1    
   212  106  229 1    
   213  107  108 2    
   214  107  109 am   BACKBONE|DICT|INTERRES
   215  109  110 1    
   216  109  230 1    
   217  110  111 1    
   218  110  112 1    
   219  110  231 1    
   220  111  232 1    
   221  111  233 1    
   222  111  234 1    
   223  112  113 2    
   224  112  114 am   BACKBONE|DICT|INTERRES
   225  114  115 1    
   226  114  235 1    
   227  115  116 1    
   228  115  117 1    
   229  115  236 1    
   230  116  237 1    
   231  116  238 1    
   232  116  239 1    
   233  117  118 2    
   234  117  119 am   BACKBONE|DICT|INTERRES
   235  119  120 1    
   236  119  240 1    
   237  120  121 1    
   238  120  124 1    
   239  120  241 1    
   240  121  122 am   BACKBONE|DICT|INTERRES
   241  121  123 2    
   242  122  242 1    
   243  122  243 1    
   244  124  125 1    
   245  124  244 1    
   246  124  245 1    
   247  125  126 1    
   248  126  246 1    
   249  126  247 1    
@<TRIPOS>SUBSTRUCTURE
     1 UNK         1 GROUP             0       ****    0 ROOT    
