@<TRIPOS>MOLECULE
3R540
247   249    1
SMALL
USER_CHARGES


@<TRIPOS>ATOM
      1 CA          0.9672  -17.3358  -49.5730 C.3       0 UNK        -0.1800 
      2 C           0.2972  -16.5894  -48.4310 C.2       0 UNK         0.5000 
      3 O           0.9776  -16.1827  -47.4887 O.2       0 UNK        -0.5000 
      4 N          -1.0249  -16.3859  -48.5135 N.am      1 UNK        -0.5000 
      5 CA         -1.8274  -15.6233  -47.5482 C.3       1 UNK         0.1400 
      6 C6         -3.3236  -16.0229  -47.5535 C.3       23 UNK        -0.0398 
      7 S7         -3.5805  -17.7184  -46.9259 S.3       23 UNK        -0.2404 
      8 C8         -4.3704  -18.5413  -48.3399 C.3       23 UNK        -0.0205 
      9 C9         -3.3798  -18.8087  -49.4596 C.ar      23 UNK        -0.0193 
     10 C10        -3.3179  -17.9594  -50.5662 C.ar      23 UNK        -0.1150 
     11 C11        -2.4378  -18.2166  -51.6221 C.ar      23 UNK        -0.0193 
     12 C12        -1.5947  -19.3316  -51.5395 C.ar      23 UNK        -0.1150 
     13 C13        -1.6382  -20.1823  -50.4319 C.ar      23 UNK        -0.0193 
     14 C14        -2.5403  -19.9218  -49.3989 C.ar      23 UNK        -0.1150 
     15 C15        -0.7448  -21.4096  -50.3773 C.3       23 UNK        -0.0205 
     16 S16         0.9071  -21.0608  -49.6939 S.3       23 UNK        -0.2404 
     17 C17         0.5929  -20.7782  -47.9161 C.3       23 UNK        -0.0398 
     18 CA          0.6577  -22.0830  -47.0818 C.3       11 UNK         0.1400 
     19 N           1.1800  -21.8669  -45.7287 N.am      11 UNK        -0.5000 
     20 C           1.5175  -22.8563  -44.8880 C.2       10 UNK         0.5000 
     21 O           1.4208  -24.0507  -45.1656 O.2       10 UNK        -0.5000 
     22 CA          1.9985  -22.4557  -43.4840 C.3       10 UNK         0.1400 
     23 CB          3.4382  -21.9227  -43.5268 C.3       10 UNK        -0.1800 
     24 N           1.1164  -21.4807  -42.8449 N.am      10 UNK        -0.5000 
     25 C          -0.1720  -21.7093  -42.5489 C.2       9 UNK         0.5000 
     26 O          -0.7444  -22.7788  -42.7571 O.2       9 UNK        -0.5000 
     27 CA         -0.9698  -20.5350  -41.9582 C.3       9 UNK         0.1400 
     28 CB         -0.6809  -20.3815  -40.4576 C.3       9 UNK        -0.1800 
     29 N          -0.7073  -19.2689  -42.6403 N.am      9 UNK        -0.5000 
     30 C          -0.9434  -19.0352  -43.9397 C.2       8 UNK         0.5000 
     31 O          -1.4191  -19.8639  -44.7158 O.2       8 UNK        -0.5000 
     32 CA         -0.5110  -17.6600  -44.4724 C.3       8 UNK         0.1400 
     33 CB         -1.4288  -16.5459  -43.9400 C.3       8 UNK        -0.1800 
     34 N           0.8769  -17.3513  -44.1362 N.am      8 UNK        -0.5000 
     35 C           1.9368  -18.0834  -44.5090 C.2       7 UNK         0.5000 
     36 O           1.8705  -19.0904  -45.2146 O.2       7 UNK        -0.5000 
     37 CA          3.2968  -17.6483  -43.9410 C.3       7 UNK         0.1400 
     38 CB          3.8943  -16.5023  -44.7712 C.3       7 UNK        -0.1800 
     39 N           3.1932  -17.2478  -42.5368 N.am      7 UNK        -0.5000 
     40 C           2.9332  -18.0938  -41.5286 C.2       6 UNK         0.5000 
     41 O           2.7883  -19.3073  -41.6726 O.2       6 UNK        -0.5000 
     42 CA          2.7629  -17.4719  -40.1309 C.3       6 UNK         0.1400 
     43 CB          4.1299  -17.1923  -39.4886 C.3       6 UNK        -0.1800 
     44 N           1.9765  -16.2384  -40.1602 N.am      6 UNK        -0.5000 
     45 C           0.6786  -16.1773  -40.4897 C.2       5 UNK         0.5000 
     46 O          -0.0043  -17.1652  -40.7576 O.2       5 UNK        -0.5000 
     47 CA          0.0462  -14.7752  -40.5727 C.3       5 UNK         0.1400 
     48 CB         -0.5501  -14.3733  -39.2158 C.3       5 UNK        -0.1800 
     49 N           0.9717  -13.7310  -41.0224 N.am      5 UNK        -0.5000 
     50 C           1.5955  -13.7160  -42.2073 C.2       4 UNK         0.5000 
     51 O           1.4915  -14.6129  -43.0468 O.2       4 UNK        -0.5000 
     52 CA          2.4758  -12.4881  -42.5021 C.3       4 UNK         0.1400 
     53 CB          3.7981  -12.8896  -43.1771 C.3       4 UNK        -0.1800 
     54 N           1.7645  -11.5543  -43.3691 N.am      4 UNK        -0.5000 
     55 C           0.7397  -10.7759  -42.9942 C.2       3 UNK         0.5000 
     56 O           0.3608  -10.6633  -41.8275 O.2       3 UNK        -0.5000 
     57 CA          0.0084   -9.9962  -44.1089 C.3       3 UNK         0.1400 
     58 CB          0.4987   -8.5410  -44.1573 C.3       3 UNK        -0.1800 
     59 N           0.1554  -10.5934  -45.4417 N.am      3 UNK        -0.5000 
     60 C          -0.3355  -11.7879  -45.8003 C.2       2 UNK         0.5000 
     61 O          -1.0197  -12.4865  -45.0477 O.2       2 UNK        -0.5000 
     62 CA          0.0268  -12.2814  -47.2188 C.3       2 UNK         0.1400 
     63 CB          1.5426  -12.1984  -47.4804 C.3       2 UNK        -0.1800 
     64 N          -0.3812  -13.6697  -47.4045 N.am      2 UNK        -0.5000 
     65 C          -1.6104  -14.1022  -47.7004 C.2       1 UNK         0.5000 
     66 O          -2.5294  -13.3659  -48.0644 O.2       1 UNK        -0.5000 
     67 C          -0.7023  -22.8071  -47.0597 C.2       11 UNK         0.5000 
     68 O          -0.8883  -23.7731  -47.8027 O.2       11 UNK        -0.5000 
     69 N          -1.6147  -22.3569  -46.1865 N.am      12 UNK        -0.5000 
     70 CA         -2.9406  -22.9466  -45.9985 C.3       12 UNK         0.1400 
     71 CB         -3.7549  -22.0798  -45.0274 C.3       12 UNK        -0.1800 
     72 C          -2.8994  -24.4106  -45.5205 C.2       12 UNK         0.5000 
     73 O          -3.7582  -25.1958  -45.9200 O.2       12 UNK        -0.5000 
     74 N          -1.9035  -24.7543  -44.6939 N.am      13 UNK        -0.5000 
     75 CA         -1.6645  -26.1138  -44.2203 C.3       13 UNK         0.1400 
     76 CB         -0.8338  -26.0674  -42.9278 C.3       13 UNK        -0.1800 
     77 C          -0.9756  -26.9929  -45.2791 C.2       13 UNK         0.5000 
     78 O          -1.4429  -28.1026  -45.5391 O.2       13 UNK        -0.5000 
     79 N           0.1423  -26.5076  -45.8367 N.am      14 UNK        -0.5000 
     80 CA          1.0358  -27.2970  -46.6843 C.3       14 UNK         0.1400 
     81 CB          2.4413  -26.6754  -46.6690 C.3       14 UNK        -0.1800 
     82 C           0.5408  -27.4540  -48.1300 C.2       14 UNK         0.5000 
     83 O           0.6254  -28.5561  -48.6745 O.2       14 UNK        -0.5000 
     84 N           0.0711  -26.3564  -48.7348 N.am      15 UNK        -0.5000 
     85 CA         -0.3169  -26.3032  -50.1443 C.3       15 UNK         0.1400 
     86 CB          0.3369  -25.0803  -50.8077 C.3       15 UNK        -0.1800 
     87 C          -1.8414  -26.2650  -50.3087 C.2       15 UNK         0.5000 
     88 O          -2.3691  -26.9849  -51.1572 O.2       15 UNK        -0.5000 
     89 N          -2.5148  -25.4308  -49.4998 N.am      16 UNK        -0.5000 
     90 CA         -3.9677  -25.2046  -49.4839 C.3       16 UNK         0.1400 
     91 CB         -4.7017  -26.4611  -48.9692 C.3       16 UNK        -0.1800 
     92 C          -4.5229  -24.7044  -50.8389 C.2       16 UNK         0.5000 
     93 O          -5.6246  -25.0870  -51.2392 O.2       16 UNK        -0.5000 
     94 N          -3.7282  -23.8812  -51.5359 N.am      17 UNK        -0.5000 
     95 CA         -4.0227  -23.3529  -52.8676 C.3       17 UNK         0.1400 
     96 CB         -2.7344  -22.7560  -53.4519 C.3       17 UNK        -0.1800 
     97 C          -5.1475  -22.2998  -52.8687 C.2       17 UNK         0.5000 
     98 O          -5.4670  -21.7242  -51.8255 O.2       17 UNK        -0.5000 
     99 N          -5.7063  -22.0508  -54.0610 N.am      18 UNK        -0.5000 
    100 CA        -6.7089  -21.0177  -54.3160 C.3       18 UNK         0.1400 
    101 CB        -7.2496  -21.1783  -55.7453 C.3       18 UNK        -0.1800 
    102 C         -6.1150  -19.6128  -54.1223 C.2       18 UNK         0.5000 
    103 O         -5.1040  -19.2885  -54.7517 O.2       18 UNK        -0.5000 
    104 N         -6.7618  -18.8021  -53.2758 N.am      19 UNK        -0.5000 
    105 CA        -6.2845  -17.4872  -52.8379 C.3       19 UNK         0.1400 
    106 CB        -7.2061  -16.9588  -51.7288 C.3       19 UNK        -0.1800 
    107 C         -6.1210  -16.4429  -53.9584 C.2       19 UNK         0.5000 
    108 O         -5.3393  -15.5052  -53.8019 O.2       19 UNK        -0.5000 
    109 N         -6.8446  -16.6301  -55.0678 N.am      20 UNK        -0.5000 
    110 CA        -6.7853  -15.7777  -56.2526 C.3       20 UNK         0.1400 
    111 CB        -8.0708  -15.9903  -57.0683 C.3       20 UNK        -0.1800 
    112 C         -5.5455  -16.0231  -57.1373 C.2       20 UNK         0.5000 
    113 O         -5.2511  -15.1724  -57.9787 O.2       20 UNK        -0.5000 
    114 N         -4.8675  -17.1699  -56.9740 N.am      21 UNK        -0.5000 
    115 CA        -3.7954  -17.6157  -57.8695 C.3       21 UNK         0.1400 
    116 CB        -4.3270  -18.7682  -58.7381 C.3       21 UNK        -0.1800 
    117 C         -2.5150  -18.0501  -57.1384 C.2       21 UNK         0.5000 
    118 O         -1.4285  -17.8610  -57.6864 O.2       21 UNK        -0.5000 
    119 N         -2.6545  -18.6524  -55.9499 N.am      22 UNK        -0.5000 
    120 CA        -1.5827  -19.3093  -55.1756 C.3       22 UNK         0.1400 
    121 C         -1.0174  -20.6047  -55.8425 C.2       22 UNK         0.5000 
    122 N         -1.6940  -21.2013  -56.8172 N.am      22 UNK        -0.7600 
    123 O          0.0327  -21.1048  -55.4497 O.2       22 UNK        -0.5000 
    124 C124       -0.4427  -18.3472  -54.7118 C.3       23 UNK        -0.0398 
    125 S125       -0.8621  -16.9371  -53.6154 S.3       23 UNK        -0.2404 
    126 C126       -2.4780  -17.3055  -52.8498 C.3       23 UNK        -0.0205 
    127 H127        0.2393  -17.7678  -50.2567 H         1 UNK         0.0600 
    128 H128        1.5899  -18.1396  -49.1825 H         1 UNK         0.0600 
    129 H129        1.6042  -16.6573  -50.1398 H         1 UNK         0.0600 
    130 H130       -1.5314  -16.7582  -49.3044 H         1 UNK         0.3000 
    131 H131       -1.4518  -15.8553  -46.5548 H         1 UNK         0.0600 
    132 H132       -3.8960  -15.3624  -46.8997 H         1 UNK         0.0800 
    133 H133       -3.7540  -15.9053  -48.5480 H         1 UNK         0.0800 
    134 H134       -5.2101  -17.9423  -48.6958 H         1 UNK         0.0800 
    135 H135       -4.7957  -19.4871  -48.0010 H         1 UNK         0.0800 
    136 H136       -3.9777  -17.1049  -50.6135 H         1 UNK         0.1150 
    137 H137       -0.9001  -19.5547  -52.3324 H         1 UNK         0.1150 
    138 H138       -2.5946  -20.5846  -48.5467 H         1 UNK         0.1150 
    139 H139       -1.2344  -22.2010  -49.8137 H         1 UNK         0.0800 
    140 H140       -0.6102  -21.8054  -51.3844 H         1 UNK         0.0800 
    141 H141       -0.3332  -20.2245  -47.7576 H         1 UNK         0.0800 
    142 H142        1.3831  -20.1013  -47.5910 H         1 UNK         0.0800 
    143 H143        1.3673  -22.7582  -47.5659 H         1 UNK         0.0600 
    144 H144        1.2971  -20.9012  -45.4306 H         1 UNK         0.3000 
    145 H145        1.9939  -23.3564  -42.8665 H         1 UNK         0.0600 
    146 H146        3.8193  -21.7389  -42.5223 H         1 UNK         0.0600 
    147 H147        4.1071  -22.6422  -44.0007 H         1 UNK         0.0600 
    148 H148        3.5082  -20.9905  -44.0871 H         1 UNK         0.0600 
    149 H149        1.5268  -20.5832  -42.6079 H         1 UNK         0.3000 
    150 H150       -2.0310  -20.7611  -42.0799 H         1 UNK         0.0600 
    151 H151       -0.8746  -21.3129  -39.9241 H         1 UNK         0.0600 
    152 H152       -1.3133  -19.6134  -40.0119 H         1 UNK         0.0600 
    153 H153        0.3583  -20.1056  -40.2743 H         1 UNK         0.0600 
    154 H154       -0.3256  -18.5201  -42.0682 H         1 UNK         0.3000 
    155 H155       -0.5831  -17.6923  -45.5604 H         1 UNK         0.0600 
    156 H156       -1.4725  -16.5388  -42.8523 H         1 UNK         0.0600 
    157 H157       -2.4491  -16.6782  -44.2999 H         1 UNK         0.0600 
    158 H158       -1.0906  -15.5601  -44.2610 H         1 UNK         0.0600 
    159 H159        1.0412  -16.5111  -43.5913 H         1 UNK         0.3000 
    160 H160        3.9767  -18.5006  -44.0013 H         1 UNK         0.0600 
    161 H161        3.2357  -15.6343  -44.7957 H         1 UNK         0.0600 
    162 H162        4.0519  -16.8159  -45.8039 H         1 UNK         0.0600 
    163 H163        4.8588  -16.1844  -44.3752 H         1 UNK         0.0600 
    164 H164        3.2293  -16.2577  -42.3447 H         1 UNK         0.3000 
    165 H165        2.2344  -18.1959  -39.5070 H         1 UNK         0.0600 
    166 H166        4.0180  -16.8260  -38.4680 H         1 UNK         0.0600 
    167 H167        4.7317  -18.1010  -39.4425 H         1 UNK         0.0600 
    168 H168        4.6978  -16.4505  -40.0515 H         1 UNK         0.0600 
    169 H169        2.4607  -15.3784  -39.9497 H         1 UNK         0.3000 
    170 H170       -0.7670  -14.8248  -41.2989 H         1 UNK         0.0600 
    171 H171       -1.2635  -15.1209  -38.8660 H         1 UNK         0.0600 
    172 H172        0.2208  -14.2715  -38.4510 H         1 UNK         0.0600 
    173 H173       -1.0833  -13.4249  -39.2846 H         1 UNK         0.0600 
    174 H174        1.0783  -12.9334  -40.4114 H         1 UNK         0.3000 
    175 H175        2.7162  -11.9887  -41.5611 H         1 UNK         0.0600 
    176 H176        3.6347  -13.3215  -44.1650 H         1 UNK         0.0600 
    177 H177        4.4546  -12.0276  -43.2965 H         1 UNK         0.0600 
    178 H178        4.3356  -13.6270  -42.5797 H         1 UNK         0.0600 
    179 H179        1.9880  -11.5981  -44.3514 H         1 UNK         0.3000 
    180 H180       -1.0544   -9.9904  -43.8578 H         1 UNK         0.0600 
    181 H181        1.5546   -8.4806  -44.4240 H         1 UNK         0.0600 
    182 H182        0.3769   -8.0551  -43.1882 H         1 UNK         0.0600 
    183 H183       -0.0664   -7.9574  -44.8843 H         1 UNK         0.0600 
    184 H184        0.6985  -10.0663  -46.1103 H         1 UNK         0.3000 
    185 H185       -0.4938  -11.6514  -47.9426 H         1 UNK         0.0600 
    186 H186        1.7936  -12.6075  -48.4594 H         1 UNK         0.0600 
    187 H187        1.8986  -11.1680  -47.4683 H         1 UNK         0.0600 
    188 H188        2.1106  -12.7557  -46.7338 H         1 UNK         0.0600 
    189 H189        0.3032  -14.3773  -47.1536 H         1 UNK         0.3000 
    190 H190       -1.3986  -21.5451  -45.6116 H         1 UNK         0.3000 
    191 H191       -3.4450  -22.9304  -46.9661 H         1 UNK         0.0600 
    192 H192       -3.2769  -22.0182  -44.0490 H         1 UNK         0.0600 
    193 H193       -4.7554  -22.4884  -44.8811 H         1 UNK         0.0600 
    194 H194       -3.8704  -21.0646  -45.4083 H         1 UNK         0.0600 
    195 H195       -1.2712  -24.0354  -44.3596 H         1 UNK         0.3000 
    196 H196       -2.6254  -26.5734  -43.9785 H         1 UNK         0.0600 
    197 H197       -0.6347  -27.0723  -42.5535 H         1 UNK         0.0600 
    198 H198       -1.3612  -25.5261  -42.1422 H         1 UNK         0.0600 
    199 H199        0.1277  -25.5759  -43.0814 H         1 UNK         0.0600 
    200 H200        0.4736  -25.5822  -45.5716 H         1 UNK         0.3000 
    201 H201        1.1178  -28.2976  -46.2538 H         1 UNK         0.0600 
    202 H202        2.8311  -26.6057  -45.6533 H         1 UNK         0.0600 
    203 H203        2.4437  -25.6726  -47.0979 H         1 UNK         0.0600 
    204 H204        3.1421  -27.2800  -47.2460 H         1 UNK         0.0600 
    205 H205       -0.0309  -25.4982  -48.2025 H         1 UNK         0.3000 
    206 H206        0.0434  -27.1872  -50.6747 H         1 UNK         0.0600 
    207 H207        1.4232  -25.1696  -50.8053 H         1 UNK         0.0600 
    208 H208        0.0209  -24.9790  -51.8469 H         1 UNK         0.0600 
    209 H209        0.0822  -24.1556  -50.2932 H         1 UNK         0.0600 
    210 H210       -1.9755  -24.8739  -48.8410 H         1 UNK         0.3000 
    211 H211       -4.1453  -24.4023  -48.7676 H         1 UNK         0.0600 
    212 H212       -4.6510  -27.2822  -49.6849 H         1 UNK         0.0600 
    213 H213       -5.7558  -26.2501  -48.7864 H         1 UNK         0.0600 
    214 H214       -4.2745  -26.8123  -48.0301 H         1 UNK         0.0600 
    215 H215       -2.8520  -23.6035  -51.1238 H         1 UNK         0.3000 
    216 H216       -4.3345  -24.1891  -53.4971 H         1 UNK         0.0600 
    217 H217       -2.8771  -22.4860  -54.4979 H         1 UNK         0.0600 
    218 H218       -1.9077  -23.4658  -53.4130 H         1 UNK         0.0600 
    219 H219       -2.4338  -21.8536  -52.9203 H         1 UNK         0.0600 
    220 H220       -5.3645  -22.5450  -54.8719 H         1 UNK         0.3000 
    221 H221       -7.5339  -21.1622  -53.6153 H         1 UNK         0.0600 
    222 H222       -6.4612  -21.0661  -56.4911 H         1 UNK         0.0600 
    223 H223       -7.7076  -22.1575  -55.8863 H         1 UNK         0.0600 
    224 H224       -8.0130  -20.4295  -55.9607 H         1 UNK         0.0600 
    225 H225       -7.5900  -19.1479  -52.8128 H         1 UNK         0.3000 
    226 H226       -5.2978  -17.6418  -52.4087 H         1 UNK         0.0600 
    227 H227       -7.2313  -17.6409  -50.8787 H         1 UNK         0.0600 
    228 H228       -6.8585  -15.9938  -51.3570 H         1 UNK         0.0600 
    229 H229       -8.2280  -16.8251  -52.0857 H         1 UNK         0.0600 
    230 H230       -7.4637  -17.4261  -55.1080 H         1 UNK         0.3000 
    231 H231       -6.7562  -14.7343  -55.9312 H         1 UNK         0.0600 
    232 H232       -8.9567  -15.7562  -56.4776 H         1 UNK         0.0600 
    233 H233       -8.1605  -17.0201  -57.4167 H         1 UNK         0.0600 
    234 H234       -8.0891  -15.3441  -57.9470 H         1 UNK         0.0600 
    235 H235       -5.1448  -17.8041  -56.2345 H         1 UNK         0.3000 
    236 H236       -3.4971  -16.8071  -58.5400 H         1 UNK         0.0600 
    237 H237       -3.5548  -19.1431  -59.4113 H         1 UNK         0.0600 
    238 H238       -4.6710  -19.6053  -58.1294 H         1 UNK         0.0600 
    239 H239       -5.1630  -18.4397  -59.3559 H         1 UNK         0.0600 
    240 H240       -3.5899  -18.8049  -55.5796 H         1 UNK         0.3000 
    241 H241       -2.0812  -19.6898  -54.2864 H         1 UNK         0.0600 
    242 H242       -1.3218  -22.0406  -57.2328 H         1 UNK         0.3800 
    243 H243       -2.5641  -20.8204  -57.1493 H         1 UNK         0.3800 
    244 H244        0.0763  -17.9409  -55.5800 H         1 UNK         0.0800 
    245 H245        0.3222  -18.9092  -54.1741 H         1 UNK         0.0800 
    246 H246       -3.1738  -17.7104  -53.5798 H         1 UNK         0.0800 
    247 H247       -2.8997  -16.3417  -52.5604 H         1 UNK         0.0800 
@<TRIPOS>BOND
     1    1    2 1    
     2    1  127 1    
     3    1  128 1    
     4    1  129 1    
     5    2    3 2    
     6    2    4 am   BACKBONE|DICT|INTERRES
     7    4    5 1    
     8    4  130 1    
     9    5    6 1    
    10    5   65 1    
    11    5  131 1    
    12    6    7 1    
    13    6  132 1    
    14    6  133 1    
    15    7    8 1    
    16    8    9 1    
    17    8  134 1    
    18    8  135 1    
    19    9   10 ar   
    20    9   14 ar   
    21   10   11 ar   
    22   10  136 1    
    23   11   12 ar   
    24   11  126 1    
    25   12   13 ar   
    26   12  137 1    
    27   13   14 ar   
    28   13   15 1    
    29   14  138 1    
    30   15   16 1    
    31   15  139 1    
    32   15  140 1    
    33   16   17 1    
    34   17   18 1    
    35   17  141 1    
    36   17  142 1    
    37   18   19 1    
    38   18   67 1    
    39   18  143 1    
    40   19   20 am   BACKBONE|DICT|INTERRES
    41   19  144 1    
    42   20   21 2    
    43   20   22 1    
    44   22   23 1    
    45   22   24 1    
    46   22  145 1    
    47   23  146 1    
    48   23  147 1    
    49   23  148 1    
    50   24   25 am   BACKBONE|DICT|INTERRES
    51   24  149 1    
    52   25   26 2    
    53   25   27 1    
    54   27   28 1    
    55   27   29 1    
    56   27  150 1    
    57   28  151 1    
    58   28  152 1    
    59   28  153 1    
    60   29   30 am   BACKBONE|DICT|INTERRES
    61   29  154 1    
    62   30   31 2    
    63   30   32 1    
    64   32   33 1    
    65   32   34 1    
    66   32  155 1    
    67   33  156 1    
    68   33  157 1    
    69   33  158 1    
    70   34   35 am   BACKBONE|DICT|INTERRES
    71   34  159 1    
    72   35   36 2    
    73   35   37 1    
    74   37   38 1    
    75   37   39 1    
    76   37  160 1    
    77   38  161 1    
    78   38  162 1    
    79   38  163 1    
    80   39   40 am   BACKBONE|DICT|INTERRES
    81   39  164 1    
    82   40   41 2    
    83   40   42 1    
    84   42   43 1    
    85   42   44 1    
    86   42  165 1    
    87   43  166 1    
    88   43  167 1    
    89   43  168 1    
    90   44   45 am   BACKBONE|DICT|INTERRES
    91   44  169 1    
    92   45   46 2    
    93   45   47 1    
    94   47   48 1    
    95   47   49 1    
    96   47  170 1    
    97   48  171 1    
    98   48  172 1    
    99   48  173 1    
   100   49   50 am   BACKBONE|DICT|INTERRES
   101   49  174 1    
   102   50   51 2    
   103   50   52 1    
   104   52   53 1    
   105   52   54 1    
   106   52  175 1    
   107   53  176 1    
   108   53  177 1    
   109   53  178 1    
   110   54   55 am   BACKBONE|DICT|INTERRES
   111   54  179 1    
   112   55   56 2    
   113   55   57 1    
   114   57   58 1    
   115   57   59 1    
   116   57  180 1    
   117   58  181 1    
   118   58  182 1    
   119   58  183 1    
   120   59   60 am   BACKBONE|DICT|INTERRES
   121   59  184 1    
   122   60   61 2    
   123   60   62 1    
   124   62   63 1    
   125   62   64 1    
   126   62  185 1    
   127   63  186 1    
   128   63  187 1    
   129   63  188 1    
   130   64   65 am   BACKBONE|DICT|INTERRES
   131   64  189 1    
   132   65   66 2    
   133   67   68 2    
   134   67   69 am   BACKBONE|DICT|INTERRES
   135   69   70 1    
   136   69  190 1    
   137   70   71 1    
   138   70   72 1    
   139   70  191 1    
   140   71  192 1    
   141   71  193 1    
   142   71  194 1    
   143   72   73 2    
   144   72   74 am   BACKBONE|DICT|INTERRES
   145   74   75 1    
   146   74  195 1    
   147   75   76 1    
   148   75   77 1    
   149   75  196 1    
   150   76  197 1    
   151   76  198 1    
   152   76  199 1    
   153   77   78 2    
   154   77   79 am   BACKBONE|DICT|INTERRES
   155   79   80 1    
   156   79  200 1    
   157   80   81 1    
   158   80   82 1    
   159   80  201 1    
   160   81  202 1    
   161   81  203 1    
   162   81  204 1    
   163   82   83 2    
   164   82   84 am   BACKBONE|DICT|INTERRES
   165   84   85 1    
   166   84  205 1    
   167   85   86 1    
   168   85   87 1    
   169   85  206 1    
   170   86  207 1    
   171   86  208 1    
   172   86  209 1    
   173   87   88 2    
   174   87   89 am   BACKBONE|DICT|INTERRES
   175   89   90 1    
   176   89  210 1    
   177   90   91 1    
   178   90   92 1    
   179   90  211 1    
   180   91  212 1    
   181   91  213 1    
   182   91  214 1    
   183   92   93 2    
   184   92   94 am   BACKBONE|DICT|INTERRES
   185   94   95 1    
   186   94  215 1    
   187   95   96 1    
   188   95   97 1    
   189   95  216 1    
   190   96  217 1    
   191   96  218 1    
   192   96  219 1    
   193   97   98 2    
   194   97   99 am   BACKBONE|DICT|INTERRES
   195   99  100 1    
   196   99  220 1    
   197  100  101 1    
   198  100  102 1    
   199  100  221 1    
   200  101  222 1    
   201  101  223 1    
   202  101  224 1    
   203  102  103 2    
   204  102  104 am   BACKBONE|DICT|INTERRES
   205  104  105 1    
   206  104  225 1    
   207  105  106 1    
   208  105  107 1    
   209  105  226 1    
   210  106  227 1    
   211  106  228 1    
   212  106  229 1    
   213  107  108 2    
   214  107  109 am   BACKBONE|DICT|INTERRES
   215  109  110 1    
   216  109  230 1    
   217  110  111 1    
   218  110  112 1    
   219  110  231 1    
   220  111  232 1    
   221  111  233 1    
   222  111  234 1    
   223  112  113 2    
   224  112  114 am   BACKBONE|DICT|INTERRES
   225  114  115 1    
   226  114  235 1    
   227  115  116 1    
   228  115  117 1    
   229  115  236 1    
   230  116  237 1    
   231  116  238 1    
   232  116  239 1    
   233  117  118 2    
   234  117  119 am   BACKBONE|DICT|INTERRES
   235  119  120 1    
   236  119  240 1    
   237  120  121 1    
   238  120  124 1    
   239  120  241 1    
   240  121  122 am   BACKBONE|DICT|INTERRES
   241  121  123 2    
   242  122  242 1    
   243  122  243 1    
   244  124  125 1    
   245  124  244 1    
   246  124  245 1    
   247  125  126 1    
   248  126  246 1    
   249  126  247 1    
@<TRIPOS>SUBSTRUCTURE
     1 UNK         1 GROUP             0       ****    0 ROOT    
