@<TRIPOS>MOLECULE
3R540
247   249    1
SMALL
USER_CHARGES


@<TRIPOS>ATOM
      1 CA          5.7061  -16.8661  -45.8542 C.3       0 UNK        -0.1800 
      2 C           4.7799  -15.9693  -46.6625 C.2       0 UNK         0.5000 
      3 O           3.7732  -15.5008  -46.1319 O.2       0 UNK        -0.5000 
      4 N           5.1338  -15.7234  -47.9328 N.am      1 UNK        -0.5000 
      5 CA          4.3356  -15.0411  -48.9648 C.3       1 UNK         0.1400 
      6 C6          5.1189  -14.8988  -50.2974 C.3       23 UNK        -0.0398 
      7 S7          5.6317  -16.4969  -51.0185 S.3       23 UNK        -0.2404 
      8 C8          4.3398  -16.7632  -52.2781 C.3       23 UNK        -0.0205 
      9 C9          2.9802  -16.9550  -51.6278 C.ar      23 UNK        -0.0193 
     10 C10         2.0772  -15.8919  -51.5477 C.ar      23 UNK        -0.1150 
     11 C11         0.8788  -16.0291  -50.8426 C.ar      23 UNK        -0.0193 
     12 C12         0.5703  -17.2591  -50.2473 C.ar      23 UNK        -0.1150 
     13 C13         1.4535  -18.3390  -50.3511 C.ar      23 UNK        -0.0193 
     14 C14         2.6548  -18.1805  -51.0445 C.ar      23 UNK        -0.1150 
     15 C15         1.1436  -19.6680  -49.6837 C.3       23 UNK        -0.0205 
     16 S16         1.7613  -19.6763  -47.9733 S.3       23 UNK        -0.2404 
     17 C17         2.0972  -21.4393  -47.6620 C.3       23 UNK        -0.0398 
     18 CA          0.9218  -22.2776  -47.1014 C.3       11 UNK         0.1400 
     19 N           0.2785  -21.7243  -45.9024 N.am      11 UNK        -0.5000 
     20 C          -0.4821  -22.4705  -45.0849 C.2       10 UNK         0.5000 
     21 O          -0.6755  -23.6753  -45.2527 O.2       10 UNK        -0.5000 
     22 CA         -1.1836  -21.7660  -43.9122 C.3       10 UNK         0.1400 
     23 CB         -0.2034  -21.5024  -42.7596 C.3       10 UNK        -0.1800 
     24 N          -1.8576  -20.5287  -44.3048 N.am      10 UNK        -0.5000 
     25 C          -2.8837  -20.4655  -45.1657 C.2       9 UNK         0.5000 
     26 O          -3.3638  -21.4505  -45.7245 O.2       9 UNK        -0.5000 
     27 CA         -3.4592  -19.0723  -45.4774 C.3       9 UNK         0.1400 
     28 CB         -4.4514  -18.6357  -44.3897 C.3       9 UNK        -0.1800 
     29 N          -2.4198  -18.0569  -45.6322 N.am      9 UNK        -0.5000 
     30 C          -1.5145  -18.0512  -46.6205 C.2       8 UNK         0.5000 
     31 O          -1.5112  -18.8645  -47.5448 O.2       8 UNK        -0.5000 
     32 CA         -0.4075  -16.9830  -46.5335 C.3       8 UNK         0.1400 
     33 CB         -0.9164  -15.6263  -47.0402 C.3       8 UNK        -0.1800 
     34 N           0.1288  -16.8299  -45.1801 N.am      8 UNK        -0.5000 
     35 C           0.7226  -17.8029  -44.4722 C.2       7 UNK         0.5000 
     36 O           0.9256  -18.9421  -44.8909 O.2       7 UNK        -0.5000 
     37 CA          1.0848  -17.4650  -43.0168 C.3       7 UNK         0.1400 
     38 CB          2.3829  -16.6469  -42.9418 C.3       7 UNK        -0.1800 
     39 N          -0.0019  -16.7519  -42.3432 N.am      7 UNK        -0.5000 
     40 C          -1.1806  -17.3066  -42.0228 C.2       6 UNK         0.5000 
     41 O          -1.4559  -18.4878  -42.2249 O.2       6 UNK        -0.5000 
     42 CA         -2.2451  -16.3800  -41.4078 C.3       6 UNK         0.1400 
     43 CB         -2.0419  -16.2559  -39.8906 C.3       6 UNK        -0.1800 
     44 N          -2.2415  -15.0460  -42.0068 N.am      6 UNK        -0.5000 
     45 C          -2.5748  -14.7791  -43.2781 C.2       5 UNK         0.5000 
     46 O          -2.9826  -15.6273  -44.0703 O.2       5 UNK        -0.5000 
     47 CA         -2.3539  -13.3295  -43.7535 C.3       5 UNK         0.1400 
     48 CB         -3.5878  -12.4659  -43.4531 C.3       5 UNK        -0.1800 
     49 N          -1.1680  -12.7194  -43.1426 N.am      5 UNK        -0.5000 
     50 C           0.0820  -13.1538  -43.3458 C.2       4 UNK         0.5000 
     51 O           0.3704  -14.0599  -44.1328 O.2       4 UNK        -0.5000 
     52 CA          1.1749  -12.5348  -42.4663 C.3       4 UNK         0.1400 
     53 CB          1.1291  -13.1662  -41.0582 C.3       4 UNK        -0.1800 
     54 N           2.4647  -12.7797  -43.1025 N.am      4 UNK        -0.5000 
     55 C           3.6524  -12.3063  -42.7097 C.2       3 UNK         0.5000 
     56 O           3.8161  -11.5738  -41.7332 O.2       3 UNK        -0.5000 
     57 CA          4.8629  -12.7011  -43.5730 C.3       3 UNK         0.1400 
     58 CB          5.3718  -14.1014  -43.2005 C.3       3 UNK        -0.1800 
     59 N           4.5654  -12.6479  -45.0063 N.am      3 UNK        -0.5000 
     60 C           4.4526  -11.5038  -45.6992 C.2       2 UNK         0.5000 
     61 O           4.5960  -10.3908  -45.1904 O.2       2 UNK        -0.5000 
     62 CA          4.1484  -11.6129  -47.2048 C.3       2 UNK         0.1400 
     63 CB          4.8519  -10.5198  -48.0309 C.3       2 UNK        -0.1800 
     64 N           4.5246  -12.9251  -47.7288 N.am      2 UNK        -0.5000 
     65 C           3.7752  -13.6617  -48.5564 C.2       1 UNK         0.5000 
     66 O           2.6876  -13.2958  -49.0038 O.2       1 UNK        -0.5000 
     67 C          -0.0967  -22.6722  -48.1889 C.2       11 UNK         0.5000 
     68 O           0.1116  -23.6831  -48.8592 O.2       11 UNK        -0.5000 
     69 N          -1.2000  -21.9200  -48.3157 N.am      12 UNK        -0.5000 
     70 CA         -2.3041  -22.2519  -49.2163 C.3       12 UNK         0.1400 
     71 CB         -3.2747  -21.0713  -49.3107 C.3       12 UNK        -0.1800 
     72 C          -3.0426  -23.5330  -48.7940 C.2       12 UNK         0.5000 
     73 O          -3.3750  -24.3505  -49.6528 O.2       12 UNK        -0.5000 
     74 N          -3.2666  -23.7049  -47.4849 N.am      13 UNK        -0.5000 
     75 CA         -3.8406  -24.9130  -46.8946 C.3       13 UNK         0.1400 
     76 CB         -4.1726  -24.6641  -45.4164 C.3       13 UNK        -0.1800 
     77 C          -2.9209  -26.1357  -47.0587 C.2       13 UNK         0.5000 
     78 O          -3.4040  -27.2034  -47.4342 O.2       13 UNK        -0.5000 
     79 N          -1.6117  -25.9506  -46.8320 N.am      14 UNK        -0.5000 
     80 CA         -0.5791  -26.9745  -47.0240 C.3       14 UNK         0.1400 
     81 CB          0.7647  -26.4579  -46.4897 C.3       14 UNK        -0.1800 
     82 C          -0.4414  -27.4285  -48.4907 C.2       14 UNK         0.5000 
     83 O          -0.2277  -28.6145  -48.7433 O.2       14 UNK        -0.5000 
     84 N          -0.6081  -26.4866  -49.4289 N.am      15 UNK        -0.5000 
     85 CA         -0.6495  -26.7303  -50.8727 C.3       15 UNK         0.1400 
     86 CB         -0.3912  -25.4013  -51.6016 C.3       15 UNK        -0.1800 
     87 C          -1.9742  -27.3571  -51.3591 C.2       15 UNK         0.5000 
     88 O          -2.0597  -27.7337  -52.5284 O.2       15 UNK        -0.5000 
     89 N          -2.9827  -27.4319  -50.4762 N.am      16 UNK        -0.5000 
     90 CA         -4.3580  -27.8868  -50.7133 C.3       16 UNK         0.1400 
     91 CB         -4.3938  -29.3680  -51.1440 C.3       16 UNK        -0.1800 
     92 C          -5.1587  -26.9638  -51.6580 C.2       16 UNK         0.5000 
     93 O          -6.1600  -27.3928  -52.2339 O.2       16 UNK        -0.5000 
     94 N          -4.7208  -25.7045  -51.7804 N.am      17 UNK        -0.5000 
     95 CA         -5.4064  -24.6424  -52.5125 C.3       17 UNK         0.1400 
     96 CB         -4.3659  -23.6216  -52.9939 C.3       17 UNK        -0.1800 
     97 C          -6.4699  -23.9620  -51.6328 C.2       17 UNK         0.5000 
     98 O          -7.5117  -23.5541  -52.1476 O.2       17 UNK        -0.5000 
     99 N          -6.1889  -23.8789  -50.3223 N.am      18 UNK        -0.5000 
    100 CA        -7.0338  -23.3542  -49.2474 C.3       18 UNK         0.1400 
    101 CB        -8.1761  -24.3467  -48.9417 C.3       18 UNK        -0.1800 
    102 C         -7.5162  -21.9166  -49.5268 C.2       18 UNK         0.5000 
    103 O         -6.7475  -20.9760  -49.3313 O.2       18 UNK        -0.5000 
    104 N         -8.7664  -21.7723  -49.9866 N.am      19 UNK        -0.5000 
    105 CA        -9.3850  -20.4996  -50.3583 C.3       19 UNK         0.1400 
    106 CB       -10.8911  -20.7183  -50.5669 C.3       19 UNK        -0.1800 
    107 C         -8.7569  -19.8499  -51.6070 C.2       19 UNK         0.5000 
    108 O         -8.7735  -18.6237  -51.7184 O.2       19 UNK        -0.5000 
    109 N         -8.1855  -20.6612  -52.5086 N.am      20 UNK        -0.5000 
    110 CA        -7.4916  -20.2191  -53.7216 C.3       20 UNK         0.1400 
    111 CB        -7.6507  -21.2999  -54.8067 C.3       20 UNK        -0.1800 
    112 C         -6.0139  -19.8747  -53.4337 C.2       20 UNK         0.5000 
    113 O         -5.1193  -20.3287  -54.1483 O.2       20 UNK        -0.5000 
    114 N         -5.7819  -19.1048  -52.3648 N.am      21 UNK        -0.5000 
    115 CA        -4.4653  -18.7109  -51.8730 C.3       21 UNK         0.1400 
    116 CB        -4.6336  -18.0688  -50.4852 C.3       21 UNK        -0.1800 
    117 C         -3.7267  -17.7463  -52.8176 C.2       21 UNK         0.5000 
    118 O         -4.3629  -16.9715  -53.5378 O.2       21 UNK        -0.5000 
    119 N         -2.3921  -17.7770  -52.7259 N.am      22 UNK        -0.5000 
    120 CA        -1.4469  -16.8715  -53.4000 C.3       22 UNK         0.1400 
    121 C         -1.3865  -17.0618  -54.9481 C.2       22 UNK         0.5000 
    122 N         -0.7707  -16.1472  -55.6872 N.am      22 UNK        -0.7600 
    123 O         -1.8476  -18.0611  -55.4956 O.2       22 UNK        -0.5000 
    124 C124       -1.6155  -15.3833  -52.9634 C.3       23 UNK        -0.0398 
    125 S125       -1.7609  -15.1519  -51.1545 S.3       23 UNK        -0.2404 
    126 C126       -0.0362  -14.8215  -50.6777 C.3       23 UNK        -0.0205 
    127 H127        6.2325  -16.2856  -45.0980 H         1 UNK         0.0600 
    128 H128        6.4477  -17.3553  -46.4863 H         1 UNK         0.0600 
    129 H129        5.1285  -17.6412  -45.3500 H         1 UNK         0.0600 
    130 H130        5.9859  -16.1407  -48.2798 H         1 UNK         0.3000 
    131 H131        3.4688  -15.6807  -49.1364 H         1 UNK         0.0600 
    132 H132        4.5328  -14.3543  -51.0399 H         1 UNK         0.0800 
    133 H133        6.0189  -14.3017  -50.1403 H         1 UNK         0.0800 
    134 H134        4.3240  -15.9243  -52.9758 H         1 UNK         0.0800 
    135 H135        4.5919  -17.6467  -52.8664 H         1 UNK         0.0800 
    136 H136        2.3332  -14.9388  -51.9885 H         1 UNK         0.1150 
    137 H137       -0.3486  -17.3721  -49.6894 H         1 UNK         0.1150 
    138 H138        3.3576  -19.0004  -51.0959 H         1 UNK         0.1150 
    139 H139        0.0672  -19.8427  -49.6835 H         1 UNK         0.0800 
    140 H140        1.5923  -20.4828  -50.2536 H         1 UNK         0.0800 
    141 H141        2.9129  -21.4697  -46.9387 H         1 UNK         0.0800 
    142 H142        2.5055  -21.8977  -48.5645 H         1 UNK         0.0800 
    143 H143        1.3775  -23.2189  -46.7870 H         1 UNK         0.0600 
    144 H144        0.4128  -20.7345  -45.7120 H         1 UNK         0.3000 
    145 H145       -1.9521  -22.4465  -43.5396 H         1 UNK         0.0600 
    146 H146       -0.7196  -21.1015  -41.8874 H         1 UNK         0.0600 
    147 H147        0.2883  -22.4248  -42.4483 H         1 UNK         0.0600 
    148 H148        0.5764  -20.7962  -43.0420 H         1 UNK         0.0600 
    149 H149       -1.5454  -19.6785  -43.8477 H         1 UNK         0.3000 
    150 H150       -4.0024  -19.1414  -46.4223 H         1 UNK         0.0600 
    151 H151       -5.2498  -19.3695  -44.2728 H         1 UNK         0.0600 
    152 H152       -4.9184  -17.6836  -44.6423 H         1 UNK         0.0600 
    153 H153       -3.9641  -18.5223  -43.4212 H         1 UNK         0.0600 
    154 H154       -2.3996  -17.3123  -44.9425 H         1 UNK         0.3000 
    155 H155        0.4132  -17.2926  -47.1803 H         1 UNK         0.0600 
    156 H156       -1.6914  -15.2174  -46.3932 H         1 UNK         0.0600 
    157 H157       -1.3446  -15.7201  -48.0382 H         1 UNK         0.0600 
    158 H158       -0.1064  -14.8984  -47.0948 H         1 UNK         0.0600 
    159 H159        0.0483  -15.9082  -44.7623 H         1 UNK         0.3000 
    160 H160        1.2513  -18.4046  -42.4858 H         1 UNK         0.0600 
    161 H161        2.3010  -15.7046  -43.4817 H         1 UNK         0.0600 
    162 H162        3.2131  -17.1987  -43.3843 H         1 UNK         0.0600 
    163 H163        2.6536  -16.4226  -41.9101 H         1 UNK         0.0600 
    164 H164        0.1270  -15.7639  -42.1926 H         1 UNK         0.3000 
    165 H165       -3.2237  -16.8304  -41.5871 H         1 UNK         0.0600 
    166 H166       -2.8342  -15.6626  -39.4339 H         1 UNK         0.0600 
    167 H167       -2.0565  -17.2371  -39.4140 H         1 UNK         0.0600 
    168 H168       -1.0876  -15.7868  -39.6472 H         1 UNK         0.0600 
    169 H169       -1.9298  -14.2853  -41.4222 H         1 UNK         0.3000 
    170 H170       -2.2065  -13.3513  -44.8352 H         1 UNK         0.0600 
    171 H171       -4.4813  -12.8902  -43.9134 H         1 UNK         0.0600 
    172 H172       -3.7760  -12.3878  -42.3816 H         1 UNK         0.0600 
    173 H173       -3.4683  -11.4569  -43.8481 H         1 UNK         0.0600 
    174 H174       -1.3317  -11.9701  -42.4853 H         1 UNK         0.3000 
    175 H175        1.0091  -11.4578  -42.4015 H         1 UNK         0.0600 
    176 H176        1.3672  -14.2299  -41.0863 H         1 UNK         0.0600 
    177 H177        1.8345  -12.6879  -40.3794 H         1 UNK         0.0600 
    178 H178        0.1420  -13.0612  -40.6067 H         1 UNK         0.0600 
    179 H179        2.4063  -13.3628  -43.9288 H         1 UNK         0.3000 
    180 H180        5.6649  -11.9912  -43.3585 H         1 UNK         0.0600 
    181 H181        4.6545  -14.8774  -43.4663 H         1 UNK         0.0600 
    182 H182        5.5579  -14.1787  -42.1285 H         1 UNK         0.0600 
    183 H183        6.3107  -14.3215  -43.7077 H         1 UNK         0.0600 
    184 H184        4.3665  -13.5273  -45.4694 H         1 UNK         0.3000 
    185 H185        3.0700  -11.4687  -47.2968 H         1 UNK         0.0600 
    186 H186        4.5507   -9.5229  -47.7070 H         1 UNK         0.0600 
    187 H187        5.9365  -10.5843  -47.9384 H         1 UNK         0.0600 
    188 H188        4.6002  -10.6031  -49.0883 H         1 UNK         0.0600 
    189 H189        5.4060  -13.3009  -47.4078 H         1 UNK         0.3000 
    190 H190       -1.3002  -21.0836  -47.7517 H         1 UNK         0.3000 
    191 H191       -1.8868  -22.4231  -50.2108 H         1 UNK         0.0600 
    192 H192       -2.7611  -20.1736  -49.6527 H         1 UNK         0.0600 
    193 H193       -4.0779  -21.2845  -50.0169 H         1 UNK         0.0600 
    194 H194       -3.7370  -20.8447  -48.3500 H         1 UNK         0.0600 
    195 H195       -3.0356  -22.9506  -46.8430 H         1 UNK         0.3000 
    196 H196       -4.7748  -25.1299  -47.4170 H         1 UNK         0.0600 
    197 H197       -4.6151  -25.5504  -44.9602 H         1 UNK         0.0600 
    198 H198       -4.8887  -23.8495  -45.3069 H         1 UNK         0.0600 
    199 H199       -3.2839  -24.4057  -44.8403 H         1 UNK         0.0600 
    200 H200       -1.3006  -25.0520  -46.4729 H         1 UNK         0.3000 
    201 H201       -0.8659  -27.8470  -46.4335 H         1 UNK         0.0600 
    202 H202        0.6912  -26.1766  -45.4391 H         1 UNK         0.0600 
    203 H203        1.1101  -25.5878  -47.0475 H         1 UNK         0.0600 
    204 H204        1.5363  -27.2247  -46.5684 H         1 UNK         0.0600 
    205 H205       -0.6999  -25.5194  -49.1349 H         1 UNK         0.3000 
    206 H206        0.1535  -27.4235  -51.1312 H         1 UNK         0.0600 
    207 H207        0.5713  -24.9761  -51.3168 H         1 UNK         0.0600 
    208 H208       -0.3753  -25.5407  -52.6832 H         1 UNK         0.0600 
    209 H209       -1.1626  -24.6638  -51.3772 H         1 UNK         0.0600 
    210 H210       -2.8056  -27.0983  -49.5367 H         1 UNK         0.3000 
    211 H211       -4.8593  -27.8200  -49.7470 H         1 UNK         0.0600 
    212 H212       -3.9937  -29.5104  -52.1479 H         1 UNK         0.0600 
    213 H213       -5.4153  -29.7497  -51.1449 H         1 UNK         0.0600 
    214 H214       -3.8173  -29.9909  -50.4600 H         1 UNK         0.0600 
    215 H215       -3.9293  -25.4196  -51.2128 H         1 UNK         0.3000 
    216 H216       -5.9035  -25.0655  -53.3880 H         1 UNK         0.0600 
    217 H217       -3.8876  -23.1018  -52.1628 H         1 UNK         0.0600 
    218 H218       -4.8326  -22.8705  -53.6293 H         1 UNK         0.0600 
    219 H219       -3.5844  -24.1019  -53.5830 H         1 UNK         0.0600 
    220 H220       -5.2705  -24.1995  -50.0335 H         1 UNK         0.3000 
    221 H221       -6.4037  -23.2952  -48.3585 H         1 UNK         0.0600 
    222 H222       -8.8039  -24.5385  -49.8124 H         1 UNK         0.0600 
    223 H223       -7.7757  -25.3053  -48.6113 H         1 UNK         0.0600 
    224 H224       -8.8177  -23.9745  -48.1419 H         1 UNK         0.0600 
    225 H225       -9.3123  -22.6053  -50.1520 H         1 UNK         0.3000 
    226 H226       -9.2526  -19.8053  -49.5259 H         1 UNK         0.0600 
    227 H227      -11.3632  -21.1034  -49.6628 H         1 UNK         0.0600 
    228 H228      -11.3907  -19.7819  -50.8193 H         1 UNK         0.0600 
    229 H229      -11.0868  -21.4234  -51.3758 H         1 UNK         0.0600 
    230 H230       -8.1499  -21.6576  -52.3140 H         1 UNK         0.3000 
    231 H231       -7.9641  -19.3086  -54.0957 H         1 UNK         0.0600 
    232 H232       -7.1673  -22.2342  -54.5203 H         1 UNK         0.0600 
    233 H233       -7.2085  -20.9764  -55.7497 H         1 UNK         0.0600 
    234 H234       -8.7023  -21.5129  -54.9991 H         1 UNK         0.0600 
    235 H235       -6.5816  -18.7490  -51.8577 H         1 UNK         0.3000 
    236 H236       -3.8666  -19.6178  -51.7752 H         1 UNK         0.0600 
    237 H237       -5.1198  -18.7512  -49.7879 H         1 UNK         0.0600 
    238 H238       -3.6676  -17.8008  -50.0545 H         1 UNK         0.0600 
    239 H239       -5.2324  -17.1586  -50.5352 H         1 UNK         0.0600 
    240 H240       -1.9656  -18.4564  -52.1145 H         1 UNK         0.3000 
    241 H241       -0.4659  -17.1991  -53.0566 H         1 UNK         0.0600 
    242 H242       -0.7189  -16.2864  -56.6846 H         1 UNK         0.3800 
    243 H243       -0.3466  -15.3271  -55.2841 H         1 UNK         0.3800 
    244 H244       -0.7801  -14.7798  -53.3193 H         1 UNK         0.0800 
    245 H245       -2.5094  -14.9579  -53.4220 H         1 UNK         0.0800 
    246 H246       -0.0091  -14.5085  -49.6341 H         1 UNK         0.0800 
    247 H247        0.3317  -13.9700  -51.2520 H         1 UNK         0.0800 
@<TRIPOS>BOND
     1    1    2 1    
     2    1  127 1    
     3    1  128 1    
     4    1  129 1    
     5    2    3 2    
     6    2    4 am   BACKBONE|DICT|INTERRES
     7    4    5 1    
     8    4  130 1    
     9    5    6 1    
    10    5   65 1    
    11    5  131 1    
    12    6    7 1    
    13    6  132 1    
    14    6  133 1    
    15    7    8 1    
    16    8    9 1    
    17    8  134 1    
    18    8  135 1    
    19    9   10 ar   
    20    9   14 ar   
    21   10   11 ar   
    22   10  136 1    
    23   11   12 ar   
    24   11  126 1    
    25   12   13 ar   
    26   12  137 1    
    27   13   14 ar   
    28   13   15 1    
    29   14  138 1    
    30   15   16 1    
    31   15  139 1    
    32   15  140 1    
    33   16   17 1    
    34   17   18 1    
    35   17  141 1    
    36   17  142 1    
    37   18   19 1    
    38   18   67 1    
    39   18  143 1    
    40   19   20 am   BACKBONE|DICT|INTERRES
    41   19  144 1    
    42   20   21 2    
    43   20   22 1    
    44   22   23 1    
    45   22   24 1    
    46   22  145 1    
    47   23  146 1    
    48   23  147 1    
    49   23  148 1    
    50   24   25 am   BACKBONE|DICT|INTERRES
    51   24  149 1    
    52   25   26 2    
    53   25   27 1    
    54   27   28 1    
    55   27   29 1    
    56   27  150 1    
    57   28  151 1    
    58   28  152 1    
    59   28  153 1    
    60   29   30 am   BACKBONE|DICT|INTERRES
    61   29  154 1    
    62   30   31 2    
    63   30   32 1    
    64   32   33 1    
    65   32   34 1    
    66   32  155 1    
    67   33  156 1    
    68   33  157 1    
    69   33  158 1    
    70   34   35 am   BACKBONE|DICT|INTERRES
    71   34  159 1    
    72   35   36 2    
    73   35   37 1    
    74   37   38 1    
    75   37   39 1    
    76   37  160 1    
    77   38  161 1    
    78   38  162 1    
    79   38  163 1    
    80   39   40 am   BACKBONE|DICT|INTERRES
    81   39  164 1    
    82   40   41 2    
    83   40   42 1    
    84   42   43 1    
    85   42   44 1    
    86   42  165 1    
    87   43  166 1    
    88   43  167 1    
    89   43  168 1    
    90   44   45 am   BACKBONE|DICT|INTERRES
    91   44  169 1    
    92   45   46 2    
    93   45   47 1    
    94   47   48 1    
    95   47   49 1    
    96   47  170 1    
    97   48  171 1    
    98   48  172 1    
    99   48  173 1    
   100   49   50 am   BACKBONE|DICT|INTERRES
   101   49  174 1    
   102   50   51 2    
   103   50   52 1    
   104   52   53 1    
   105   52   54 1    
   106   52  175 1    
   107   53  176 1    
   108   53  177 1    
   109   53  178 1    
   110   54   55 am   BACKBONE|DICT|INTERRES
   111   54  179 1    
   112   55   56 2    
   113   55   57 1    
   114   57   58 1    
   115   57   59 1    
   116   57  180 1    
   117   58  181 1    
   118   58  182 1    
   119   58  183 1    
   120   59   60 am   BACKBONE|DICT|INTERRES
   121   59  184 1    
   122   60   61 2    
   123   60   62 1    
   124   62   63 1    
   125   62   64 1    
   126   62  185 1    
   127   63  186 1    
   128   63  187 1    
   129   63  188 1    
   130   64   65 am   BACKBONE|DICT|INTERRES
   131   64  189 1    
   132   65   66 2    
   133   67   68 2    
   134   67   69 am   BACKBONE|DICT|INTERRES
   135   69   70 1    
   136   69  190 1    
   137   70   71 1    
   138   70   72 1    
   139   70  191 1    
   140   71  192 1    
   141   71  193 1    
   142   71  194 1    
   143   72   73 2    
   144   72   74 am   BACKBONE|DICT|INTERRES
   145   74   75 1    
   146   74  195 1    
   147   75   76 1    
   148   75   77 1    
   149   75  196 1    
   150   76  197 1    
   151   76  198 1    
   152   76  199 1    
   153   77   78 2    
   154   77   79 am   BACKBONE|DICT|INTERRES
   155   79   80 1    
   156   79  200 1    
   157   80   81 1    
   158   80   82 1    
   159   80  201 1    
   160   81  202 1    
   161   81  203 1    
   162   81  204 1    
   163   82   83 2    
   164   82   84 am   BACKBONE|DICT|INTERRES
   165   84   85 1    
   166   84  205 1    
   167   85   86 1    
   168   85   87 1    
   169   85  206 1    
   170   86  207 1    
   171   86  208 1    
   172   86  209 1    
   173   87   88 2    
   174   87   89 am   BACKBONE|DICT|INTERRES
   175   89   90 1    
   176   89  210 1    
   177   90   91 1    
   178   90   92 1    
   179   90  211 1    
   180   91  212 1    
   181   91  213 1    
   182   91  214 1    
   183   92   93 2    
   184   92   94 am   BACKBONE|DICT|INTERRES
   185   94   95 1    
   186   94  215 1    
   187   95   96 1    
   188   95   97 1    
   189   95  216 1    
   190   96  217 1    
   191   96  218 1    
   192   96  219 1    
   193   97   98 2    
   194   97   99 am   BACKBONE|DICT|INTERRES
   195   99  100 1    
   196   99  220 1    
   197  100  101 1    
   198  100  102 1    
   199  100  221 1    
   200  101  222 1    
   201  101  223 1    
   202  101  224 1    
   203  102  103 2    
   204  102  104 am   BACKBONE|DICT|INTERRES
   205  104  105 1    
   206  104  225 1    
   207  105  106 1    
   208  105  107 1    
   209  105  226 1    
   210  106  227 1    
   211  106  228 1    
   212  106  229 1    
   213  107  108 2    
   214  107  109 am   BACKBONE|DICT|INTERRES
   215  109  110 1    
   216  109  230 1    
   217  110  111 1    
   218  110  112 1    
   219  110  231 1    
   220  111  232 1    
   221  111  233 1    
   222  111  234 1    
   223  112  113 2    
   224  112  114 am   BACKBONE|DICT|INTERRES
   225  114  115 1    
   226  114  235 1    
   227  115  116 1    
   228  115  117 1    
   229  115  236 1    
   230  116  237 1    
   231  116  238 1    
   232  116  239 1    
   233  117  118 2    
   234  117  119 am   BACKBONE|DICT|INTERRES
   235  119  120 1    
   236  119  240 1    
   237  120  121 1    
   238  120  124 1    
   239  120  241 1    
   240  121  122 am   BACKBONE|DICT|INTERRES
   241  121  123 2    
   242  122  242 1    
   243  122  243 1    
   244  124  125 1    
   245  124  244 1    
   246  124  245 1    
   247  125  126 1    
   248  126  246 1    
   249  126  247 1    
@<TRIPOS>SUBSTRUCTURE
     1 UNK         1 GROUP             0       ****    0 ROOT    
