@<TRIPOS>MOLECULE
3R540
247   249    1
SMALL
USER_CHARGES


@<TRIPOS>ATOM
      1 CA          0.1429  -13.5737  -50.7113 C.3       0 UNK        -0.1800 
      2 C           1.3496  -13.4065  -49.8016 C.2       0 UNK         0.5000 
      3 O           1.2420  -13.6460  -48.6007 O.2       0 UNK        -0.5000 
      4 N           2.4947  -12.9980  -50.3622 N.am      1 UNK        -0.5000 
      5 CA          3.7958  -12.7820  -49.7067 C.3       1 UNK         0.1400 
      6 C6          4.4293  -14.0489  -49.0585 C.3       23 UNK        -0.0398 
      7 S7          4.3293  -15.5646  -50.0743 S.3       23 UNK        -0.2404 
      8 C8          3.2425  -16.5745  -49.0129 C.3       23 UNK        -0.0205 
      9 C9          2.5747  -17.7105  -49.7682 C.ar      23 UNK        -0.0193 
     10 C10         1.6423  -17.4289  -50.7689 C.ar      23 UNK        -0.1150 
     11 C11         0.9748  -18.4621  -51.4324 C.ar      23 UNK        -0.0193 
     12 C12         1.2428  -19.7871  -51.0751 C.ar      23 UNK        -0.1150 
     13 C13         2.1776  -20.0886  -50.0791 C.ar      23 UNK        -0.0193 
     14 C14         2.8504  -19.0398  -49.4389 C.ar      23 UNK        -0.1150 
     15 C15         2.4501  -21.5548  -49.7393 C.3       23 UNK        -0.0205 
     16 S16         2.9294  -21.8784  -48.0052 S.3       23 UNK        -0.2404 
     17 C17         1.4852  -21.2437  -47.0906 C.3       23 UNK        -0.0398 
     18 CA          0.5326  -22.3606  -46.6051 C.3       11 UNK         0.1400 
     19 N          -0.2632  -21.9173  -45.4595 N.am      11 UNK        -0.5000 
     20 C          -1.0932  -22.6883  -44.7441 C.2       10 UNK         0.5000 
     21 O          -1.2332  -23.8971  -44.9209 O.2       10 UNK        -0.5000 
     22 CA         -1.9534  -21.9717  -43.6904 C.3       10 UNK         0.1400 
     23 CB         -1.1809  -21.7970  -42.3748 C.3       10 UNK        -0.1800 
     24 N          -2.4167  -20.6705  -44.1737 N.am      10 UNK        -0.5000 
     25 C          -3.3362  -20.5134  -45.1368 C.2       9 UNK         0.5000 
     26 O          -3.9302  -21.4498  -45.6711 O.2       9 UNK        -0.5000 
     27 CA         -3.6062  -19.0737  -45.6084 C.3       9 UNK         0.1400 
     28 CB         -4.6150  -18.3771  -44.6838 C.3       9 UNK        -0.1800 
     29 N          -2.3861  -18.2704  -45.6898 N.am      9 UNK        -0.5000 
     30 C          -1.4122  -18.4667  -46.5894 C.2       8 UNK         0.5000 
     31 O          -1.4426  -19.3441  -47.4507 O.2       8 UNK        -0.5000 
     32 CA         -0.1690  -17.5661  -46.4736 C.3       8 UNK         0.1400 
     33 CB         -0.3644  -16.2699  -47.2692 C.3       8 UNK        -0.1800 
     34 N           0.1928  -17.2262  -45.0949 N.am      8 UNK        -0.5000 
     35 C           0.5048  -18.1099  -44.1348 C.2       7 UNK         0.5000 
     36 O           0.4219  -19.3306  -44.2820 O.2       7 UNK        -0.5000 
     37 CA          0.9962  -17.5137  -42.7987 C.3       7 UNK         0.1400 
     38 CB          1.6131  -18.5623  -41.8509 C.3       7 UNK        -0.1800 
     39 N           1.9111  -16.3885  -43.0111 N.am      7 UNK        -0.5000 
     40 C           3.0910  -16.4035  -43.6511 C.2       6 UNK         0.5000 
     41 O           3.6497  -17.4280  -44.0437 O.2       6 UNK        -0.5000 
     42 CA          3.7452  -15.0390  -43.9403 C.3       6 UNK         0.1400 
     43 CB          3.6962  -14.7451  -45.4466 C.3       6 UNK        -0.1800 
     44 N           3.0883  -13.9409  -43.2289 N.am      6 UNK        -0.5000 
     45 C           3.4535  -13.4884  -42.0216 C.2       5 UNK         0.5000 
     46 O           4.4414  -13.8942  -41.4088 O.2       5 UNK        -0.5000 
     47 CA          2.5503  -12.4197  -41.3752 C.3       5 UNK         0.1400 
     48 CB          3.1087  -11.0109  -41.6231 C.3       5 UNK        -0.1800 
     49 N           1.1636  -12.4869  -41.8456 N.am      5 UNK        -0.5000 
     50 C           0.2996  -13.4505  -41.4920 C.2       4 UNK         0.5000 
     51 O           0.5820  -14.3663  -40.7199 O.2       4 UNK        -0.5000 
     52 CA         -1.0995  -13.4226  -42.1357 C.3       4 UNK         0.1400 
     53 CB         -2.0911  -12.6720  -41.2346 C.3       4 UNK        -0.1800 
     54 N          -1.1248  -12.8296  -43.4732 N.am      4 UNK        -0.5000 
     55 C          -0.4814  -13.3075  -44.5460 C.2       3 UNK         0.5000 
     56 O           0.2292  -14.3156  -44.5193 O.2       3 UNK        -0.5000 
     57 CA         -0.6369  -12.5293  -45.8677 C.3       3 UNK         0.1400 
     58 CB         -1.6644  -11.3762  -45.8159 C.3       3 UNK        -0.1800 
     59 N           0.6507  -12.0438  -46.3661 N.am      3 UNK        -0.5000 
     60 C           1.5140  -11.2222  -45.7459 C.2       2 UNK         0.5000 
     61 O           1.3211  -10.7690  -44.6165 O.2       2 UNK        -0.5000 
     62 CA          2.8087  -10.8544  -46.5040 C.3       2 UNK         0.1400 
     63 CB          4.0236  -10.7169  -45.5661 C.3       2 UNK        -0.1800 
     64 N           3.0908  -11.8236  -47.5620 N.am      2 UNK        -0.5000 
     65 C           3.7451  -11.6009  -48.7079 C.2       1 UNK         0.5000 
     66 O           4.2691  -10.5258  -49.0026 O.2       1 UNK        -0.5000 
     67 C          -0.3610  -22.8931  -47.7463 C.2       11 UNK         0.5000 
     68 O          -0.1136  -23.9876  -48.2512 O.2       11 UNK        -0.5000 
     69 N          -1.4121  -22.1358  -48.0920 N.am      12 UNK        -0.5000 
     70 CA         -2.4368  -22.5149  -49.0645 C.3       12 UNK         0.1400 
     71 CB         -3.3991  -21.3370  -49.2704 C.3       12 UNK        -0.1800 
     72 C          -3.2004  -23.7870  -48.6556 C.2       12 UNK         0.5000 
     73 O          -3.3576  -24.6896  -49.4762 O.2       12 UNK        -0.5000 
     74 N          -3.6189  -23.8628  -47.3828 N.am      13 UNK        -0.5000 
     75 CA         -4.2801  -25.0306  -46.7954 C.3       13 UNK         0.1400 
     76 CB         -4.7335  -24.7096  -45.3638 C.3       13 UNK        -0.1800 
     77 C          -3.4034  -26.2968  -46.8260 C.2       13 UNK         0.5000 
     78 O          -3.8946  -27.3607  -47.2059 O.2       13 UNK        -0.5000 
     79 N          -2.1174  -26.1506  -46.4734 N.am      14 UNK        -0.5000 
     80 CA         -1.1039  -27.2058  -46.5433 C.3       14 UNK         0.1400 
     81 CB          0.1954  -26.7204  -45.8834 C.3       14 UNK        -0.1800 
     82 C          -0.8398  -27.6879  -47.9821 C.2       14 UNK         0.5000 
     83 O          -0.6592  -28.8866  -48.1971 O.2       14 UNK        -0.5000 
     84 N          -0.8915  -26.7646  -48.9507 N.am      15 UNK        -0.5000 
     85 CA         -0.8068  -27.0159  -50.3913 C.3       15 UNK         0.1400 
     86 CB         -0.3110  -25.7350  -51.0880 C.3       15 UNK        -0.1800 
     87 C          -2.1343  -27.5359  -50.9930 C.2       15 UNK         0.5000 
     88 O          -2.5021  -27.1414  -52.0995 O.2       15 UNK        -0.5000 
     89 N          -2.8383  -28.4099  -50.2587 N.am      16 UNK        -0.5000 
     90 CA         -4.0918  -29.0829  -50.6219 C.3       16 UNK         0.1400 
     91 CB         -3.8381  -30.1116  -51.7436 C.3       16 UNK        -0.1800 
     92 C          -5.2544  -28.1187  -50.9487 C.2       16 UNK         0.5000 
     93 O          -6.1007  -28.4376  -51.7858 O.2       16 UNK        -0.5000 
     94 N          -5.2677  -26.9563  -50.2809 N.am      17 UNK        -0.5000 
     95 CA         -6.2175  -25.8485  -50.4351 C.3       17 UNK         0.1400 
     96 CB         -7.6531  -26.2857  -50.0746 C.3       17 UNK        -0.1800 
     97 C          -6.1298  -25.1267  -51.7985 C.2       17 UNK         0.5000 
     98 O          -7.0780  -24.4367  -52.1790 O.2       17 UNK        -0.5000 
     99 N          -4.9992  -25.2667  -52.5059 N.am      18 UNK        -0.5000 
    100 CA        -4.6876  -24.5025  -53.7137 C.3       18 UNK         0.1400 
    101 CB        -3.5362  -25.1880  -54.4646 C.3       18 UNK        -0.1800 
    102 C         -4.3115  -23.0505  -53.3647 C.2       18 UNK         0.5000 
    103 O         -3.8200  -22.7956  -52.2648 O.2       18 UNK        -0.5000 
    104 N         -4.5204  -22.1396  -54.3258 N.am      19 UNK        -0.5000 
    105 CA        -4.2906  -20.6937  -54.2314 C.3       19 UNK         0.1400 
    106 CB        -2.7988  -20.3689  -54.0112 C.3       19 UNK        -0.1800 
    107 C         -5.2072  -20.0358  -53.1819 C.2       19 UNK         0.5000 
    108 O         -4.7434  -19.5589  -52.1439 O.2       19 UNK        -0.5000 
    109 N         -6.5110  -20.0030  -53.4889 N.am      20 UNK        -0.5000 
    110 CA        -7.5630  -19.4053  -52.6566 C.3       20 UNK         0.1400 
    111 CB        -8.9284  -19.6897  -53.3011 C.3       20 UNK        -0.1800 
    112 C         -7.3921  -17.8921  -52.3955 C.2       20 UNK         0.5000 
    113 O         -7.9337  -17.3853  -51.4128 O.2       20 UNK        -0.5000 
    114 N         -6.6301  -17.2046  -53.2593 N.am      21 UNK        -0.5000 
    115 CA        -6.2062  -15.8147  -53.0791 C.3       21 UNK         0.1400 
    116 CB        -5.6191  -15.2948  -54.4004 C.3       21 UNK        -0.1800 
    117 C         -5.1891  -15.6419  -51.9317 C.2       21 UNK         0.5000 
    118 O         -5.1858  -14.5951  -51.2826 O.2       21 UNK        -0.5000 
    119 N         -4.3591  -16.6668  -51.6994 N.am      22 UNK        -0.5000 
    120 CA        -3.4484  -16.7640  -50.5498 C.3       22 UNK         0.1400 
    121 C         -4.1831  -17.3344  -49.3096 C.2       22 UNK         0.5000 
    122 N         -4.9681  -18.3944  -49.4649 N.am      22 UNK        -0.7600 
    123 O         -4.0634  -16.7962  -48.2137 O.2       22 UNK        -0.5000 
    124 C124       -2.1860  -17.6014  -50.8762 C.3       23 UNK        -0.0398 
    125 S125       -1.1887  -16.8352  -52.1949 S.3       23 UNK        -0.2404 
    126 C126        0.0018  -18.1640  -52.5680 C.3       23 UNK        -0.0205 
    127 H127        0.4332  -13.6392  -51.7601 H         1 UNK         0.0600 
    128 H128       -0.5376  -12.7312  -50.5908 H         1 UNK         0.0600 
    129 H129       -0.3947  -14.4852  -50.4508 H         1 UNK         0.0600 
    130 H130        2.4946  -12.8023  -51.3533 H         1 UNK         0.3000 
    131 H131        4.4662  -12.4760  -50.5115 H         1 UNK         0.0600 
    132 H132        5.4824  -13.8626  -48.8421 H         1 UNK         0.0800 
    133 H133        3.9694  -14.2593  -48.0963 H         1 UNK         0.0800 
    134 H134        3.8237  -16.9546  -48.1715 H         1 UNK         0.0800 
    135 H135        2.4563  -15.9550  -48.5836 H         1 UNK         0.0800 
    136 H136        1.4406  -16.4004  -51.0326 H         1 UNK         0.1150 
    137 H137        0.7318  -20.5911  -51.5865 H         1 UNK         0.1150 
    138 H138        3.5799  -19.2536  -48.6711 H         1 UNK         0.1150 
    139 H139        1.5730  -22.1617  -49.9698 H         1 UNK         0.0800 
    140 H140        3.2489  -21.9131  -50.3895 H         1 UNK         0.0800 
    141 H141        0.9539  -20.4952  -47.6786 H         1 UNK         0.0800 
    142 H142        1.8871  -20.7044  -46.2314 H         1 UNK         0.0800 
    143 H143        1.1388  -23.1961  -46.2482 H         1 UNK         0.0600 
    144 H144       -0.1749  -20.9403  -45.1955 H         1 UNK         0.3000 
    145 H145       -2.8281  -22.5933  -43.4882 H         1 UNK         0.0600 
    146 H146       -1.7882  -21.2936  -41.6225 H         1 UNK         0.0600 
    147 H147       -0.8918  -22.7655  -41.9650 H         1 UNK         0.0600 
    148 H148       -0.2684  -21.2182  -42.5144 H         1 UNK         0.0600 
    149 H149       -1.9275  -19.8574  -43.8295 H         1 UNK         0.3000 
    150 H150       -4.0428  -19.1299  -46.6073 H         1 UNK         0.0600 
    151 H151       -5.5411  -18.9494  -44.6159 H         1 UNK         0.0600 
    152 H152       -4.8731  -17.3873  -45.0613 H         1 UNK         0.0600 
    153 H153       -4.2245  -18.2611  -43.6720 H         1 UNK         0.0600 
    154 H154       -2.2805  -17.5228  -45.0209 H         1 UNK         0.3000 
    155 H155        0.6762  -18.1054  -46.9059 H         1 UNK         0.0600 
    156 H156        0.4848  -15.6023  -47.1332 H         1 UNK         0.0600 
    157 H157       -1.2623  -15.7353  -46.9574 H         1 UNK         0.0600 
    158 H158       -0.4518  -16.4711  -48.3367 H         1 UNK         0.0600 
    159 H159        0.2814  -16.2356  -44.8856 H         1 UNK         0.3000 
    160 H160        0.1155  -17.1009  -42.3049 H         1 UNK         0.0600 
    161 H161        2.4472  -19.0902  -42.3140 H         1 UNK         0.0600 
    162 H162        0.8733  -19.3094  -41.5637 H         1 UNK         0.0600 
    163 H163        1.9763  -18.0985  -40.9338 H         1 UNK         0.0600 
    164 H164        1.5496  -15.4848  -42.7413 H         1 UNK         0.3000 
    165 H165        4.7932  -15.1067  -43.6411 H         1 UNK         0.0600 
    166 H166        2.6725  -14.6287  -45.8053 H         1 UNK         0.0600 
    167 H167        4.2473  -13.8371  -45.6855 H         1 UNK         0.0600 
    168 H168        4.1535  -15.5550  -46.0161 H         1 UNK         0.0600 
    169 H169        2.2446  -13.5747  -43.6496 H         1 UNK         0.3000 
    170 H170        2.5544  -12.5958  -40.2973 H         1 UNK         0.0600 
    171 H171        4.1223  -10.9188  -41.2310 H         1 UNK         0.0600 
    172 H172        3.1474  -10.7737  -42.6853 H         1 UNK         0.0600 
    173 H173        2.4997  -10.2521  -41.1316 H         1 UNK         0.0600 
    174 H174        0.8752  -11.7869  -42.5182 H         1 UNK         0.3000 
    175 H175       -1.4366  -14.4573  -42.2270 H         1 UNK         0.0600 
    176 H176       -1.8220  -11.6203  -41.1290 H         1 UNK         0.0600 
    177 H177       -3.1040  -12.7218  -41.6346 H         1 UNK         0.0600 
    178 H178       -2.1168  -13.1066  -40.2344 H         1 UNK         0.0600 
    179 H179       -1.6659  -11.9839  -43.5797 H         1 UNK         0.3000 
    180 H180       -0.9935  -13.2530  -46.6016 H         1 UNK         0.0600 
    181 H181       -1.3753  -10.5935  -45.1137 H         1 UNK         0.0600 
    182 H182       -2.6521  -11.7388  -45.5281 H         1 UNK         0.0600 
    183 H183       -1.7714  -10.9115  -46.7962 H         1 UNK         0.0600 
    184 H184        0.9012  -12.4221  -47.2755 H         1 UNK         0.3000 
    185 H185        2.6225   -9.8841  -46.9684 H         1 UNK         0.0600 
    186 H186        4.9354  -10.4997  -46.1224 H         1 UNK         0.0600 
    187 H187        3.8779   -9.8986  -44.8604 H         1 UNK         0.0600 
    188 H188        4.1917  -11.6234  -44.9854 H         1 UNK         0.0600 
    189 H189        2.6249  -12.7193  -47.4711 H         1 UNK         0.3000 
    190 H190       -1.5142  -21.2152  -47.6720 H         1 UNK         0.3000 
    191 H191       -1.9392  -22.7171  -50.0151 H         1 UNK         0.0600 
    192 H192       -2.8767  -20.4772  -49.6881 H         1 UNK         0.0600 
    193 H193       -4.2016  -21.5952  -49.9615 H         1 UNK         0.0600 
    194 H194       -3.8631  -21.0236  -48.3360 H         1 UNK         0.0600 
    195 H195       -3.4892  -23.0596  -46.7754 H         1 UNK         0.3000 
    196 H196       -5.1729  -25.2348  -47.3888 H         1 UNK         0.0600 
    197 H197       -5.2603  -25.5566  -44.9226 H         1 UNK         0.0600 
    198 H198       -5.4147  -23.8587  -45.3475 H         1 UNK         0.0600 
    199 H199       -3.8896  -24.4749  -44.7157 H         1 UNK         0.0600 
    200 H200       -1.8048  -25.2473  -46.1256 H         1 UNK         0.3000 
    201 H201       -1.4753  -28.0594  -45.9727 H         1 UNK         0.0600 
    202 H202        0.0314  -26.4566  -44.8385 H         1 UNK         0.0600 
    203 H203        0.6016  -25.8441  -46.3890 H         1 UNK         0.0600 
    204 H204        0.9601  -27.4977  -45.9066 H         1 UNK         0.0600 
    205 H205       -1.0190  -25.7949  -48.6798 H         1 UNK         0.3000 
    206 H206       -0.0596  -27.7932  -50.5620 H         1 UNK         0.0600 
    207 H207        0.6333  -25.3941  -50.6632 H         1 UNK         0.0600 
    208 H208       -0.1446  -25.9032  -52.1526 H         1 UNK         0.0600 
    209 H209       -1.0326  -24.9229  -50.9921 H         1 UNK         0.0600 
    210 H210       -2.4494  -28.6678  -49.3598 H         1 UNK         0.3000 
    211 H211       -4.4040  -29.6345  -49.7341 H         1 UNK         0.0600 
    212 H212       -3.5745  -29.6261  -52.6838 H         1 UNK         0.0600 
    213 H213       -4.7240  -30.7207  -51.9265 H         1 UNK         0.0600 
    214 H214       -3.0288  -30.7922  -51.4790 H         1 UNK         0.0600 
    215 H215       -4.4934  -26.7696  -49.6552 H         1 UNK         0.3000 
    216 H216       -5.9264  -25.1015  -49.6974 H         1 UNK         0.0600 
    217 H217       -7.6816  -26.7874  -49.1073 H         1 UNK         0.0600 
    218 H218       -8.0722  -26.9632  -50.8186 H         1 UNK         0.0600 
    219 H219       -8.3188  -25.4243  -50.0102 H         1 UNK         0.0600 
    220 H220       -4.2437  -25.8191  -52.1168 H         1 UNK         0.3000 
    221 H221       -5.5686  -24.4966  -54.3588 H         1 UNK         0.0600 
    222 H222       -2.6084  -25.1543  -53.8919 H         1 UNK         0.0600 
    223 H223       -3.7646  -26.2337  -54.6719 H         1 UNK         0.0600 
    224 H224       -3.3466  -24.6993  -55.4208 H         1 UNK         0.0600 
    225 H225       -4.9206  -22.4555  -55.1983 H         1 UNK         0.3000 
    226 H226       -4.5685  -20.2734  -55.1992 H         1 UNK         0.0600 
    227 H227       -2.1760  -20.8303  -54.7773 H         1 UNK         0.0600 
    228 H228       -2.6320  -19.2923  -54.0600 H         1 UNK         0.0600 
    229 H229       -2.4413  -20.7086  -53.0386 H         1 UNK         0.0600 
    230 H230       -6.8151  -20.4261  -54.3538 H         1 UNK         0.3000 
    231 H231       -7.5338  -19.9031  -51.6850 H         1 UNK         0.0600 
    232 H232       -9.7398  -19.2870  -52.6933 H         1 UNK         0.0600 
    233 H233       -9.1020  -20.7613  -53.4017 H         1 UNK         0.0600 
    234 H234       -9.0064  -19.2406  -54.2920 H         1 UNK         0.0600 
    235 H235       -6.2495  -17.6958  -54.0540 H         1 UNK         0.3000 
    236 H236       -7.0872  -15.2166  -52.8367 H         1 UNK         0.0600 
    237 H237       -6.3506  -15.3502  -55.2068 H         1 UNK         0.0600 
    238 H238       -5.3167  -14.2508  -54.3082 H         1 UNK         0.0600 
    239 H239       -4.7398  -15.8653  -54.7026 H         1 UNK         0.0600 
    240 H240       -4.4717  -17.5191  -52.2328 H         1 UNK         0.3000 
    241 H241       -3.1098  -15.7600  -50.2848 H         1 UNK         0.0600 
    242 H242       -5.0210  -18.8584  -50.3666 H         1 UNK         0.3800 
    243 H243       -5.4787  -18.7571  -48.6782 H         1 UNK         0.3800 
    244 H244       -2.4602  -18.6108  -51.1848 H         1 UNK         0.0800 
    245 H245       -1.5560  -17.7139  -49.9928 H         1 UNK         0.0800 
    246 H246       -0.5478  -19.0629  -52.8454 H         1 UNK         0.0800 
    247 H247        0.5791  -17.8745  -53.4467 H         1 UNK         0.0800 
@<TRIPOS>BOND
     1    1    2 1    
     2    1  127 1    
     3    1  128 1    
     4    1  129 1    
     5    2    3 2    
     6    2    4 am   BACKBONE|DICT|INTERRES
     7    4    5 1    
     8    4  130 1    
     9    5    6 1    
    10    5   65 1    
    11    5  131 1    
    12    6    7 1    
    13    6  132 1    
    14    6  133 1    
    15    7    8 1    
    16    8    9 1    
    17    8  134 1    
    18    8  135 1    
    19    9   10 ar   
    20    9   14 ar   
    21   10   11 ar   
    22   10  136 1    
    23   11   12 ar   
    24   11  126 1    
    25   12   13 ar   
    26   12  137 1    
    27   13   14 ar   
    28   13   15 1    
    29   14  138 1    
    30   15   16 1    
    31   15  139 1    
    32   15  140 1    
    33   16   17 1    
    34   17   18 1    
    35   17  141 1    
    36   17  142 1    
    37   18   19 1    
    38   18   67 1    
    39   18  143 1    
    40   19   20 am   BACKBONE|DICT|INTERRES
    41   19  144 1    
    42   20   21 2    
    43   20   22 1    
    44   22   23 1    
    45   22   24 1    
    46   22  145 1    
    47   23  146 1    
    48   23  147 1    
    49   23  148 1    
    50   24   25 am   BACKBONE|DICT|INTERRES
    51   24  149 1    
    52   25   26 2    
    53   25   27 1    
    54   27   28 1    
    55   27   29 1    
    56   27  150 1    
    57   28  151 1    
    58   28  152 1    
    59   28  153 1    
    60   29   30 am   BACKBONE|DICT|INTERRES
    61   29  154 1    
    62   30   31 2    
    63   30   32 1    
    64   32   33 1    
    65   32   34 1    
    66   32  155 1    
    67   33  156 1    
    68   33  157 1    
    69   33  158 1    
    70   34   35 am   BACKBONE|DICT|INTERRES
    71   34  159 1    
    72   35   36 2    
    73   35   37 1    
    74   37   38 1    
    75   37   39 1    
    76   37  160 1    
    77   38  161 1    
    78   38  162 1    
    79   38  163 1    
    80   39   40 am   BACKBONE|DICT|INTERRES
    81   39  164 1    
    82   40   41 2    
    83   40   42 1    
    84   42   43 1    
    85   42   44 1    
    86   42  165 1    
    87   43  166 1    
    88   43  167 1    
    89   43  168 1    
    90   44   45 am   BACKBONE|DICT|INTERRES
    91   44  169 1    
    92   45   46 2    
    93   45   47 1    
    94   47   48 1    
    95   47   49 1    
    96   47  170 1    
    97   48  171 1    
    98   48  172 1    
    99   48  173 1    
   100   49   50 am   BACKBONE|DICT|INTERRES
   101   49  174 1    
   102   50   51 2    
   103   50   52 1    
   104   52   53 1    
   105   52   54 1    
   106   52  175 1    
   107   53  176 1    
   108   53  177 1    
   109   53  178 1    
   110   54   55 am   BACKBONE|DICT|INTERRES
   111   54  179 1    
   112   55   56 2    
   113   55   57 1    
   114   57   58 1    
   115   57   59 1    
   116   57  180 1    
   117   58  181 1    
   118   58  182 1    
   119   58  183 1    
   120   59   60 am   BACKBONE|DICT|INTERRES
   121   59  184 1    
   122   60   61 2    
   123   60   62 1    
   124   62   63 1    
   125   62   64 1    
   126   62  185 1    
   127   63  186 1    
   128   63  187 1    
   129   63  188 1    
   130   64   65 am   BACKBONE|DICT|INTERRES
   131   64  189 1    
   132   65   66 2    
   133   67   68 2    
   134   67   69 am   BACKBONE|DICT|INTERRES
   135   69   70 1    
   136   69  190 1    
   137   70   71 1    
   138   70   72 1    
   139   70  191 1    
   140   71  192 1    
   141   71  193 1    
   142   71  194 1    
   143   72   73 2    
   144   72   74 am   BACKBONE|DICT|INTERRES
   145   74   75 1    
   146   74  195 1    
   147   75   76 1    
   148   75   77 1    
   149   75  196 1    
   150   76  197 1    
   151   76  198 1    
   152   76  199 1    
   153   77   78 2    
   154   77   79 am   BACKBONE|DICT|INTERRES
   155   79   80 1    
   156   79  200 1    
   157   80   81 1    
   158   80   82 1    
   159   80  201 1    
   160   81  202 1    
   161   81  203 1    
   162   81  204 1    
   163   82   83 2    
   164   82   84 am   BACKBONE|DICT|INTERRES
   165   84   85 1    
   166   84  205 1    
   167   85   86 1    
   168   85   87 1    
   169   85  206 1    
   170   86  207 1    
   171   86  208 1    
   172   86  209 1    
   173   87   88 2    
   174   87   89 am   BACKBONE|DICT|INTERRES
   175   89   90 1    
   176   89  210 1    
   177   90   91 1    
   178   90   92 1    
   179   90  211 1    
   180   91  212 1    
   181   91  213 1    
   182   91  214 1    
   183   92   93 2    
   184   92   94 am   BACKBONE|DICT|INTERRES
   185   94   95 1    
   186   94  215 1    
   187   95   96 1    
   188   95   97 1    
   189   95  216 1    
   190   96  217 1    
   191   96  218 1    
   192   96  219 1    
   193   97   98 2    
   194   97   99 am   BACKBONE|DICT|INTERRES
   195   99  100 1    
   196   99  220 1    
   197  100  101 1    
   198  100  102 1    
   199  100  221 1    
   200  101  222 1    
   201  101  223 1    
   202  101  224 1    
   203  102  103 2    
   204  102  104 am   BACKBONE|DICT|INTERRES
   205  104  105 1    
   206  104  225 1    
   207  105  106 1    
   208  105  107 1    
   209  105  226 1    
   210  106  227 1    
   211  106  228 1    
   212  106  229 1    
   213  107  108 2    
   214  107  109 am   BACKBONE|DICT|INTERRES
   215  109  110 1    
   216  109  230 1    
   217  110  111 1    
   218  110  112 1    
   219  110  231 1    
   220  111  232 1    
   221  111  233 1    
   222  111  234 1    
   223  112  113 2    
   224  112  114 am   BACKBONE|DICT|INTERRES
   225  114  115 1    
   226  114  235 1    
   227  115  116 1    
   228  115  117 1    
   229  115  236 1    
   230  116  237 1    
   231  116  238 1    
   232  116  239 1    
   233  117  118 2    
   234  117  119 am   BACKBONE|DICT|INTERRES
   235  119  120 1    
   236  119  240 1    
   237  120  121 1    
   238  120  124 1    
   239  120  241 1    
   240  121  122 am   BACKBONE|DICT|INTERRES
   241  121  123 2    
   242  122  242 1    
   243  122  243 1    
   244  124  125 1    
   245  124  244 1    
   246  124  245 1    
   247  125  126 1    
   248  126  246 1    
   249  126  247 1    
@<TRIPOS>SUBSTRUCTURE
     1 UNK         1 GROUP             0       ****    0 ROOT    
