@<TRIPOS>MOLECULE
3R540
247   249    1
SMALL
USER_CHARGES


@<TRIPOS>ATOM
      1 CA          2.6720  -14.8882  -44.6449 C.3       0 UNK        -0.1800 
      2 C           2.0343  -14.4525  -45.9569 C.2       0 UNK         0.5000 
      3 O           2.7032  -13.8271  -46.7796 O.2       0 UNK        -0.5000 
      4 N           0.7435  -14.7631  -46.1432 N.am      1 UNK        -0.5000 
      5 CA         -0.1105  -14.4639  -47.3047 C.3       1 UNK         0.1400 
      6 C6          0.4257  -14.9884  -48.6648 C.3       23 UNK        -0.0398 
      7 S7          0.7370  -16.7852  -48.6971 S.3       23 UNK        -0.2404 
      8 C8          1.3989  -16.9355  -50.3854 C.3       23 UNK        -0.0205 
      9 C9          1.7375  -18.3724  -50.7560 C.ar      23 UNK        -0.0193 
     10 C10         0.7747  -19.1883  -51.3572 C.ar      23 UNK        -0.1150 
     11 C11         1.0945  -20.4874  -51.7610 C.ar      23 UNK        -0.0193 
     12 C12         2.3935  -20.9658  -51.5680 C.ar      23 UNK        -0.1150 
     13 C13         3.3672  -20.1638  -50.9650 C.ar      23 UNK        -0.0193 
     14 C14         3.0285  -18.8704  -50.5518 C.ar      23 UNK        -0.1150 
     15 C15         4.8004  -20.6661  -50.8212 C.3       23 UNK        -0.0205 
     16 S16         4.9390  -22.2404  -49.9106 S.3       23 UNK        -0.2404 
     17 C17         4.4666  -21.7295  -48.2251 C.3       23 UNK        -0.0398 
     18 CA          3.5232  -22.7286  -47.5108 C.3       11 UNK         0.1400 
     19 N           3.4200  -22.3898  -46.0884 N.am      11 UNK        -0.5000 
     20 C           2.7805  -23.0912  -45.1460 C.2       10 UNK         0.5000 
     21 O           2.2436  -24.1772  -45.3573 O.2       10 UNK        -0.5000 
     22 CA          2.6695  -22.4513  -43.7491 C.3       10 UNK         0.1400 
     23 CB          3.9121  -22.7497  -42.8907 C.3       10 UNK        -0.1800 
     24 N           2.3568  -21.0159  -43.7725 N.am      10 UNK        -0.5000 
     25 C           3.1109  -19.9812  -44.1738 C.2       9 UNK         0.5000 
     26 O           4.2428  -20.0936  -44.6451 O.2       9 UNK        -0.5000 
     27 CA          2.4719  -18.5848  -44.0649 C.3       9 UNK         0.1400 
     28 CB          1.6957  -18.2720  -45.3512 C.3       9 UNK        -0.1800 
     29 N           1.5670  -18.4629  -42.9215 N.am      9 UNK        -0.5000 
     30 C           1.9489  -18.4944  -41.6364 C.2       8 UNK         0.5000 
     31 O           3.1234  -18.5356  -41.2689 O.2       8 UNK        -0.5000 
     32 CA          0.8235  -18.5206  -40.5875 C.3       8 UNK         0.1400 
     33 CB          0.3480  -17.0976  -40.2520 C.3       8 UNK        -0.1800 
     34 N          -0.3110  -19.3317  -41.0346 N.am      8 UNK        -0.5000 
     35 C          -0.3196  -20.6732  -41.0560 C.2       7 UNK         0.5000 
     36 O           0.6063  -21.3697  -40.6410 O.2       7 UNK        -0.5000 
     37 CA         -1.5619  -21.3554  -41.6609 C.3       7 UNK         0.1400 
     38 CB         -2.6125  -21.6232  -40.5733 C.3       7 UNK        -0.1800 
     39 N          -2.1749  -20.5753  -42.7364 N.am      7 UNK        -0.5000 
     40 C          -1.6268  -20.3740  -43.9428 C.2       6 UNK         0.5000 
     41 O          -0.5584  -20.8694  -44.3008 O.2       6 UNK        -0.5000 
     42 CA         -2.3768  -19.4076  -44.8806 C.3       6 UNK         0.1400 
     43 CB         -3.4302  -20.1578  -45.7094 C.3       6 UNK        -0.1800 
     44 N          -3.0179  -18.3000  -44.1686 N.am      6 UNK        -0.5000 
     45 C          -2.3557  -17.3681  -43.4715 C.2       5 UNK         0.5000 
     46 O          -1.1274  -17.3447  -43.3589 O.2       5 UNK        -0.5000 
     47 CA         -3.2249  -16.3519  -42.7102 C.3       5 UNK         0.1400 
     48 CB         -3.7012  -16.9628  -41.3820 C.3       5 UNK        -0.1800 
     49 N          -2.5266  -15.1003  -42.4193 N.am      5 UNK        -0.5000 
     50 C          -2.1238  -14.2134  -43.3356 C.2       4 UNK         0.5000 
     51 O          -2.2680  -14.3578  -44.5526 O.2       4 UNK        -0.5000 
     52 CA         -1.4535  -12.9446  -42.7950 C.3       4 UNK         0.1400 
     53 CB          0.0551  -13.1522  -42.5856 C.3       4 UNK        -0.1800 
     54 N          -1.6734  -11.8617  -43.7452 N.am      4 UNK        -0.5000 
     55 C          -1.7702  -10.5629  -43.4421 C.2       3 UNK         0.5000 
     56 O          -1.6655  -10.1218  -42.2958 O.2       3 UNK        -0.5000 
     57 CA         -2.0342   -9.6064  -44.6263 C.3       3 UNK         0.1400 
     58 CB         -1.7423   -8.1285  -44.2899 C.3       3 UNK        -0.1800 
     59 N          -1.3397  -10.0118  -45.8553 N.am      3 UNK        -0.5000 
     60 C          -0.0158  -10.1176  -46.0388 C.2       2 UNK         0.5000 
     61 O           0.8280   -9.8657  -45.1765 O.2       2 UNK        -0.5000 
     62 CA          0.4303  -10.6408  -47.4154 C.3       2 UNK         0.1400 
     63 CB          1.7806  -10.0475  -47.8528 C.3       2 UNK        -0.1800 
     64 N           0.5441  -12.0953  -47.3880 N.am      2 UNK        -0.5000 
     65 C          -0.4716  -12.9657  -47.4046 C.2       1 UNK         0.5000 
     66 O          -1.6522  -12.6254  -47.4910 O.2       1 UNK        -0.5000 
     67 C           2.1317  -22.7933  -48.1815 C.2       11 UNK         0.5000 
     68 O           1.8606  -23.6997  -48.9701 O.2       11 UNK        -0.5000 
     69 N           1.2624  -21.8462  -47.8100 N.am      12 UNK        -0.5000 
     70 CA         -0.1004  -21.7196  -48.3135 C.3       12 UNK         0.1400 
     71 CB         -0.5570  -20.2753  -48.0970 C.3       12 UNK        -0.1800 
     72 C          -1.1046  -22.6803  -47.6585 C.2       12 UNK         0.5000 
     73 O          -2.2112  -22.8124  -48.1789 O.2       12 UNK        -0.5000 
     74 N          -0.7443  -23.3166  -46.5349 N.am      13 UNK        -0.5000 
     75 CA         -1.6468  -24.1426  -45.7240 C.3       13 UNK         0.1400 
     76 CB         -0.9324  -24.5674  -44.4335 C.3       13 UNK        -0.1800 
     77 C          -2.2077  -25.3721  -46.4651 C.2       13 UNK         0.5000 
     78 O          -3.3310  -25.7882  -46.1824 O.2       13 UNK        -0.5000 
     79 N          -1.4347  -25.9036  -47.4222 N.am      14 UNK        -0.5000 
     80 CA         -1.8469  -26.9872  -48.3160 C.3       14 UNK         0.1400 
     81 CB         -0.5962  -27.5931  -48.9708 C.3       14 UNK        -0.1800 
     82 C          -2.8503  -26.5290  -49.3942 C.2       14 UNK         0.5000 
     83 O          -3.6572  -27.3388  -49.8520 O.2       14 UNK        -0.5000 
     84 N          -2.7803  -25.2484  -49.7819 N.am      15 UNK        -0.5000 
     85 CA         -3.6699  -24.6170  -50.7573 C.3       15 UNK         0.1400 
     86 CB         -2.8968  -23.4924  -51.4645 C.3       15 UNK        -0.1800 
     87 C          -4.9488  -24.0704  -50.0945 C.2       15 UNK         0.5000 
     88 O          -5.9869  -23.9921  -50.7507 O.2       15 UNK        -0.5000 
     89 N          -4.8451  -23.6914  -48.8121 N.am      16 UNK        -0.5000 
     90 CA         -5.8692  -23.1738  -47.8959 C.3       16 UNK         0.1400 
     91 CB         -7.0485  -24.1523  -47.7434 C.3       16 UNK        -0.1800 
     92 C          -6.3520  -21.7509  -48.2328 C.2       16 UNK         0.5000 
     93 O          -6.4123  -20.9087  -47.3376 O.2       16 UNK        -0.5000 
     94 N          -6.6452  -21.4912  -49.5123 N.am      17 UNK        -0.5000 
     95 CA         -6.9939  -20.1705  -50.0459 C.3       17 UNK         0.1400 
     96 CB         -7.9916  -20.3429  -51.2020 C.3       17 UNK        -0.1800 
     97 C          -5.7528  -19.3727  -50.4994 C.2       17 UNK         0.5000 
     98 O          -5.9050  -18.2810  -51.0493 O.2       17 UNK        -0.5000 
     99 N          -4.5524  -19.9299  -50.2769 N.am      18 UNK        -0.5000 
    100 CA        -3.2452  -19.3889  -50.6476 C.3       18 UNK         0.1400 
    101 CB        -2.9275  -18.1170  -49.8257 C.3       18 UNK        -0.1800 
    102 C         -3.1231  -19.2125  -52.1733 C.2       18 UNK         0.5000 
    103 O         -3.4205  -20.1555  -52.9108 O.2       18 UNK        -0.5000 
    104 N         -2.6955  -18.0247  -52.6216 N.am      19 UNK        -0.5000 
    105 CA        -2.4578  -17.6745  -54.0240 C.3       19 UNK         0.1400 
    106 CB        -1.8837  -16.2518  -54.0908 C.3       19 UNK        -0.1800 
    107 C         -3.6967  -17.8047  -54.9302 C.2       19 UNK         0.5000 
    108 O         -3.5429  -18.0549  -56.1256 O.2       19 UNK        -0.5000 
    109 N         -4.8992  -17.6806  -54.3500 N.am      20 UNK        -0.5000 
    110 CA        -6.1715  -17.8945  -55.0415 C.3       20 UNK         0.1400 
    111 CB        -7.3191  -17.3725  -54.1644 C.3       20 UNK        -0.1800 
    112 C         -6.4125  -19.3672  -55.4323 C.2       20 UNK         0.5000 
    113 O         -7.1797  -19.6182  -56.3626 O.2       20 UNK        -0.5000 
    114 N         -5.7574  -20.3042  -54.7327 N.am      21 UNK        -0.5000 
    115 CA        -5.7916  -21.7330  -55.0279 C.3       21 UNK         0.1400 
    116 CB        -5.9686  -22.5322  -53.7270 C.3       21 UNK        -0.1800 
    117 C         -4.5341  -22.1774  -55.7902 C.2       21 UNK         0.5000 
    118 O         -4.6700  -22.8561  -56.8095 O.2       21 UNK        -0.5000 
    119 N         -3.3411  -21.8112  -55.2956 N.am      22 UNK        -0.5000 
    120 CA        -2.0621  -22.2444  -55.8894 C.3       22 UNK         0.1400 
    121 C         -1.5969  -21.4497  -57.1453 C.2       22 UNK         0.5000 
    122 N         -2.1764  -20.3012  -57.4710 N.am      22 UNK        -0.7600 
    123 O         -0.7024  -21.8998  -57.8565 O.2       22 UNK        -0.5000 
    124 C124       -0.9388  -22.4271  -54.8355 C.3       23 UNK        -0.0398 
    125 S125       -0.2399  -20.8873  -54.1467 S.3       23 UNK        -0.2404 
    126 C126        0.0460  -21.3717  -52.4171 C.3       23 UNK        -0.0205 
    127 H127        3.0496  -14.0194  -44.1057 H         1 UNK         0.0600 
    128 H128        1.9640  -15.4065  -43.9974 H         1 UNK         0.0600 
    129 H129        3.5094  -15.5570  -44.8418 H         1 UNK         0.0600 
    130 H130        0.2568  -15.2494  -45.4030 H         1 UNK         0.3000 
    131 H131       -1.0471  -14.9884  -47.1073 H         1 UNK         0.0600 
    132 H132        1.3470  -14.4745  -48.9427 H         1 UNK         0.0800 
    133 H133       -0.2929  -14.7676  -49.4564 H         1 UNK         0.0800 
    134 H134        0.6715  -16.5363  -51.0940 H         1 UNK         0.0800 
    135 H135        2.2889  -16.3111  -50.4780 H         1 UNK         0.0800 
    136 H136       -0.2196  -18.8055  -51.5273 H         1 UNK         0.1150 
    137 H137        2.6530  -21.9629  -51.8951 H         1 UNK         0.1150 
    138 H138        3.7777  -18.2360  -50.0994 H         1 UNK         0.1150 
    139 H139        5.2171  -20.8057  -51.8194 H         1 UNK         0.0800 
    140 H140        5.4280  -19.9194  -50.3319 H         1 UNK         0.0800 
    141 H141        4.0228  -20.7326  -48.2448 H         1 UNK         0.0800 
    142 H142        5.3922  -21.6288  -47.6563 H         1 UNK         0.0800 
    143 H143        3.9650  -23.7254  -47.5718 H         1 UNK         0.0600 
    144 H144        3.8487  -21.5170  -45.7911 H         1 UNK         0.3000 
    145 H145        1.8163  -22.9223  -43.2582 H         1 UNK         0.0600 
    146 H146        3.8035  -22.3367  -41.8876 H         1 UNK         0.0600 
    147 H147        4.0610  -23.8250  -42.7858 H         1 UNK         0.0600 
    148 H148        4.8220  -22.3374  -43.3273 H         1 UNK         0.0600 
    149 H149        1.4003  -20.7985  -43.5168 H         1 UNK         0.3000 
    150 H150        3.2718  -17.8517  -43.9471 H         1 UNK         0.0600 
    151 H151        2.3651  -18.1999  -46.2094 H         1 UNK         0.0600 
    152 H152        1.1533  -17.3326  -45.2751 H         1 UNK         0.0600 
    153 H153        0.9644  -19.0470  -45.5674 H         1 UNK         0.0600 
    154 H154        0.5807  -18.3422  -43.1283 H         1 UNK         0.3000 
    155 H155        1.2270  -18.9634  -39.6742 H         1 UNK         0.0600 
    156 H156       -0.0393  -16.5773  -41.1275 H         1 UNK         0.0600 
    157 H157        1.1695  -16.4988  -39.8571 H         1 UNK         0.0600 
    158 H158       -0.4361  -17.1116  -39.4950 H         1 UNK         0.0600 
    159 H159       -1.0899  -18.8342  -41.4387 H         1 UNK         0.3000 
    160 H160       -1.2450  -22.3157  -42.0719 H         1 UNK         0.0600 
    161 H161       -3.4644  -22.1723  -40.9749 H         1 UNK         0.0600 
    162 H162       -2.9855  -20.6964  -40.1353 H         1 UNK         0.0600 
    163 H163       -2.1930  -22.2232  -39.7646 H         1 UNK         0.0600 
    164 H164       -3.0592  -20.1349  -42.5310 H         1 UNK         0.3000 
    165 H165       -1.6456  -18.9694  -45.5598 H         1 UNK         0.0600 
    166 H166       -3.8742  -19.5095  -46.4651 H         1 UNK         0.0600 
    167 H167       -2.9913  -21.0060  -46.2321 H         1 UNK         0.0600 
    168 H168       -4.2363  -20.5452  -45.0853 H         1 UNK         0.0600 
    169 H169       -4.0262  -18.2608  -44.2103 H         1 UNK         0.3000 
    170 H170       -4.0971  -16.1166  -43.3238 H         1 UNK         0.0600 
    171 H171       -4.2625  -17.8834  -41.5471 H         1 UNK         0.0600 
    172 H172       -2.8643  -17.2019  -40.7245 H         1 UNK         0.0600 
    173 H173       -4.3604  -16.2782  -40.8479 H         1 UNK         0.0600 
    174 H174       -2.3393  -14.9130  -41.4455 H         1 UNK         0.3000 
    175 H175       -1.9213  -12.6947  -41.8401 H         1 UNK         0.0600 
    176 H176        0.5673  -13.3017  -43.5347 H         1 UNK         0.0600 
    177 H177        0.5063  -12.2869  -42.0999 H         1 UNK         0.0600 
    178 H178        0.2550  -14.0211  -41.9572 H         1 UNK         0.0600 
    179 H179       -1.8217  -12.1652  -44.6999 H         1 UNK         0.3000 
    180 H180       -3.1007   -9.6859  -44.8411 H         1 UNK         0.0600 
    181 H181       -0.7032   -7.9755  -43.9973 H         1 UNK         0.0600 
    182 H182       -2.3669   -7.7850  -43.4645 H         1 UNK         0.0600 
    183 H183       -1.9497   -7.4816  -45.1422 H         1 UNK         0.0600 
    184 H184       -1.9402  -10.3112  -46.6126 H         1 UNK         0.3000 
    185 H185       -0.3172  -10.3544  -48.1583 H         1 UNK         0.0600 
    186 H186        2.5899  -10.3444  -47.1843 H         1 UNK         0.0600 
    187 H187        2.0445  -10.3723  -48.8594 H         1 UNK         0.0600 
    188 H188        1.7432   -8.9575  -47.8617 H         1 UNK         0.0600 
    189 H189        1.4776  -12.4780  -47.2599 H         1 UNK         0.3000 
    190 H190        1.5595  -21.1566  -47.1366 H         1 UNK         0.3000 
    191 H191       -0.1085  -21.9272  -49.3852 H         1 UNK         0.0600 
    192 H192       -0.3818  -19.9611  -47.0730 H         1 UNK         0.0600 
    193 H193       -1.6208  -20.1542  -48.2912 H         1 UNK         0.0600 
    194 H194       -0.0195  -19.5929  -48.7501 H         1 UNK         0.0600 
    195 H195        0.1893  -23.1789  -46.1752 H         1 UNK         0.3000 
    196 H196       -2.4959  -23.5143  -45.4463 H         1 UNK         0.0600 
    197 H197       -0.1071  -25.2501  -44.6373 H         1 UNK         0.0600 
    198 H198       -1.6198  -25.0777  -43.7578 H         1 UNK         0.0600 
    199 H199       -0.5316  -23.7055  -43.9013 H         1 UNK         0.0600 
    200 H200       -0.5212  -25.5019  -47.5790 H         1 UNK         0.3000 
    201 H201       -2.3309  -27.7641  -47.7202 H         1 UNK         0.0600 
    202 H202        0.0908  -27.9856  -48.2208 H         1 UNK         0.0600 
    203 H203       -0.0568  -26.8562  -49.5676 H         1 UNK         0.0600 
    204 H204       -0.8621  -28.4198  -49.6309 H         1 UNK         0.0600 
    205 H205       -2.1277  -24.6357  -49.3120 H         1 UNK         0.3000 
    206 H206       -3.9639  -25.3530  -51.5087 H         1 UNK         0.0600 
    207 H207       -1.9386  -23.8524  -51.8383 H         1 UNK         0.0600 
    208 H208       -3.4501  -23.1103  -52.3204 H         1 UNK         0.0600 
    209 H209       -2.7005  -22.6520  -50.7993 H         1 UNK         0.0600 
    210 H210       -3.9058  -23.6874  -48.4259 H         1 UNK         0.3000 
    211 H211       -5.3753  -23.1109  -46.9246 H         1 UNK         0.0600 
    212 H212       -7.6184  -24.2563  -48.6670 H         1 UNK         0.0600 
    213 H213       -7.7397  -23.8084  -46.9732 H         1 UNK         0.0600 
    214 H214       -6.7005  -25.1428  -47.4498 H         1 UNK         0.0600 
    215 H215       -6.5672  -22.2573  -50.1766 H         1 UNK         0.3000 
    216 H216       -7.4864  -19.5856  -49.2666 H         1 UNK         0.0600 
    217 H217       -8.4050  -19.3804  -51.5047 H         1 UNK         0.0600 
    218 H218       -8.8299  -20.9775  -50.9142 H         1 UNK         0.0600 
    219 H219       -7.5193  -20.7821  -52.0785 H         1 UNK         0.0600 
    220 H220       -4.5440  -20.8408  -49.8436 H         1 UNK         0.3000 
    221 H221       -2.5145  -20.1524  -50.3835 H         1 UNK         0.0600 
    222 H222       -3.5784  -17.2820  -50.0869 H         1 UNK         0.0600 
    223 H223       -3.0520  -18.2996  -48.7585 H         1 UNK         0.0600 
    224 H224       -1.8960  -17.7964  -49.9731 H         1 UNK         0.0600 
    225 H225       -2.5107  -17.2988  -51.9453 H         1 UNK         0.3000 
    226 H226       -1.7044  -18.3611  -54.4123 H         1 UNK         0.0600 
    227 H227       -0.9497  -16.1768  -53.5334 H         1 UNK         0.0600 
    228 H228       -1.6688  -15.9652  -55.1212 H         1 UNK         0.0600 
    229 H229       -2.5800  -15.5176  -53.6837 H         1 UNK         0.0600 
    230 H230       -4.9457  -17.5050  -53.3553 H         1 UNK         0.3000 
    231 H231       -6.1572  -17.3091  -55.9633 H         1 UNK         0.0600 
    232 H232       -7.1798  -16.3209  -53.9137 H         1 UNK         0.0600 
    233 H233       -7.3994  -17.9327  -53.2333 H         1 UNK         0.0600 
    234 H234       -8.2756  -17.4597  -54.6812 H         1 UNK         0.0600 
    235 H235       -5.1041  -20.0125  -54.0142 H         1 UNK         0.3000 
    236 H236       -6.6462  -21.9689  -55.6657 H         1 UNK         0.0600 
    237 H237       -5.6623  -23.5725  -53.8456 H         1 UNK         0.0600 
    238 H238       -5.3924  -22.1068  -52.9062 H         1 UNK         0.0600 
    239 H239       -7.0145  -22.5476  -53.4234 H         1 UNK         0.0600 
    240 H240       -3.2897  -21.2405  -54.4558 H         1 UNK         0.3000 
    241 H241       -2.2328  -23.2528  -56.2726 H         1 UNK         0.0600 
    242 H242       -1.8628  -19.8132  -58.2944 H         1 UNK         0.3800 
    243 H243       -2.8743  -19.8677  -56.8800 H         1 UNK         0.3800 
    244 H244       -1.3152  -23.0482  -54.0231 H         1 UNK         0.0800 
    245 H245       -0.1137  -22.9921  -55.2723 H         1 UNK         0.0800 
    246 H246       -0.8911  -21.3108  -51.8651 H         1 UNK         0.0800 
    247 H247        0.3624  -22.4152  -52.3746 H         1 UNK         0.0800 
@<TRIPOS>BOND
     1    1    2 1    
     2    1  127 1    
     3    1  128 1    
     4    1  129 1    
     5    2    3 2    
     6    2    4 am   BACKBONE|DICT|INTERRES
     7    4    5 1    
     8    4  130 1    
     9    5    6 1    
    10    5   65 1    
    11    5  131 1    
    12    6    7 1    
    13    6  132 1    
    14    6  133 1    
    15    7    8 1    
    16    8    9 1    
    17    8  134 1    
    18    8  135 1    
    19    9   10 ar   
    20    9   14 ar   
    21   10   11 ar   
    22   10  136 1    
    23   11   12 ar   
    24   11  126 1    
    25   12   13 ar   
    26   12  137 1    
    27   13   14 ar   
    28   13   15 1    
    29   14  138 1    
    30   15   16 1    
    31   15  139 1    
    32   15  140 1    
    33   16   17 1    
    34   17   18 1    
    35   17  141 1    
    36   17  142 1    
    37   18   19 1    
    38   18   67 1    
    39   18  143 1    
    40   19   20 am   BACKBONE|DICT|INTERRES
    41   19  144 1    
    42   20   21 2    
    43   20   22 1    
    44   22   23 1    
    45   22   24 1    
    46   22  145 1    
    47   23  146 1    
    48   23  147 1    
    49   23  148 1    
    50   24   25 am   BACKBONE|DICT|INTERRES
    51   24  149 1    
    52   25   26 2    
    53   25   27 1    
    54   27   28 1    
    55   27   29 1    
    56   27  150 1    
    57   28  151 1    
    58   28  152 1    
    59   28  153 1    
    60   29   30 am   BACKBONE|DICT|INTERRES
    61   29  154 1    
    62   30   31 2    
    63   30   32 1    
    64   32   33 1    
    65   32   34 1    
    66   32  155 1    
    67   33  156 1    
    68   33  157 1    
    69   33  158 1    
    70   34   35 am   BACKBONE|DICT|INTERRES
    71   34  159 1    
    72   35   36 2    
    73   35   37 1    
    74   37   38 1    
    75   37   39 1    
    76   37  160 1    
    77   38  161 1    
    78   38  162 1    
    79   38  163 1    
    80   39   40 am   BACKBONE|DICT|INTERRES
    81   39  164 1    
    82   40   41 2    
    83   40   42 1    
    84   42   43 1    
    85   42   44 1    
    86   42  165 1    
    87   43  166 1    
    88   43  167 1    
    89   43  168 1    
    90   44   45 am   BACKBONE|DICT|INTERRES
    91   44  169 1    
    92   45   46 2    
    93   45   47 1    
    94   47   48 1    
    95   47   49 1    
    96   47  170 1    
    97   48  171 1    
    98   48  172 1    
    99   48  173 1    
   100   49   50 am   BACKBONE|DICT|INTERRES
   101   49  174 1    
   102   50   51 2    
   103   50   52 1    
   104   52   53 1    
   105   52   54 1    
   106   52  175 1    
   107   53  176 1    
   108   53  177 1    
   109   53  178 1    
   110   54   55 am   BACKBONE|DICT|INTERRES
   111   54  179 1    
   112   55   56 2    
   113   55   57 1    
   114   57   58 1    
   115   57   59 1    
   116   57  180 1    
   117   58  181 1    
   118   58  182 1    
   119   58  183 1    
   120   59   60 am   BACKBONE|DICT|INTERRES
   121   59  184 1    
   122   60   61 2    
   123   60   62 1    
   124   62   63 1    
   125   62   64 1    
   126   62  185 1    
   127   63  186 1    
   128   63  187 1    
   129   63  188 1    
   130   64   65 am   BACKBONE|DICT|INTERRES
   131   64  189 1    
   132   65   66 2    
   133   67   68 2    
   134   67   69 am   BACKBONE|DICT|INTERRES
   135   69   70 1    
   136   69  190 1    
   137   70   71 1    
   138   70   72 1    
   139   70  191 1    
   140   71  192 1    
   141   71  193 1    
   142   71  194 1    
   143   72   73 2    
   144   72   74 am   BACKBONE|DICT|INTERRES
   145   74   75 1    
   146   74  195 1    
   147   75   76 1    
   148   75   77 1    
   149   75  196 1    
   150   76  197 1    
   151   76  198 1    
   152   76  199 1    
   153   77   78 2    
   154   77   79 am   BACKBONE|DICT|INTERRES
   155   79   80 1    
   156   79  200 1    
   157   80   81 1    
   158   80   82 1    
   159   80  201 1    
   160   81  202 1    
   161   81  203 1    
   162   81  204 1    
   163   82   83 2    
   164   82   84 am   BACKBONE|DICT|INTERRES
   165   84   85 1    
   166   84  205 1    
   167   85   86 1    
   168   85   87 1    
   169   85  206 1    
   170   86  207 1    
   171   86  208 1    
   172   86  209 1    
   173   87   88 2    
   174   87   89 am   BACKBONE|DICT|INTERRES
   175   89   90 1    
   176   89  210 1    
   177   90   91 1    
   178   90   92 1    
   179   90  211 1    
   180   91  212 1    
   181   91  213 1    
   182   91  214 1    
   183   92   93 2    
   184   92   94 am   BACKBONE|DICT|INTERRES
   185   94   95 1    
   186   94  215 1    
   187   95   96 1    
   188   95   97 1    
   189   95  216 1    
   190   96  217 1    
   191   96  218 1    
   192   96  219 1    
   193   97   98 2    
   194   97   99 am   BACKBONE|DICT|INTERRES
   195   99  100 1    
   196   99  220 1    
   197  100  101 1    
   198  100  102 1    
   199  100  221 1    
   200  101  222 1    
   201  101  223 1    
   202  101  224 1    
   203  102  103 2    
   204  102  104 am   BACKBONE|DICT|INTERRES
   205  104  105 1    
   206  104  225 1    
   207  105  106 1    
   208  105  107 1    
   209  105  226 1    
   210  106  227 1    
   211  106  228 1    
   212  106  229 1    
   213  107  108 2    
   214  107  109 am   BACKBONE|DICT|INTERRES
   215  109  110 1    
   216  109  230 1    
   217  110  111 1    
   218  110  112 1    
   219  110  231 1    
   220  111  232 1    
   221  111  233 1    
   222  111  234 1    
   223  112  113 2    
   224  112  114 am   BACKBONE|DICT|INTERRES
   225  114  115 1    
   226  114  235 1    
   227  115  116 1    
   228  115  117 1    
   229  115  236 1    
   230  116  237 1    
   231  116  238 1    
   232  116  239 1    
   233  117  118 2    
   234  117  119 am   BACKBONE|DICT|INTERRES
   235  119  120 1    
   236  119  240 1    
   237  120  121 1    
   238  120  124 1    
   239  120  241 1    
   240  121  122 am   BACKBONE|DICT|INTERRES
   241  121  123 2    
   242  122  242 1    
   243  122  243 1    
   244  124  125 1    
   245  124  244 1    
   246  124  245 1    
   247  125  126 1    
   248  126  246 1    
   249  126  247 1    
@<TRIPOS>SUBSTRUCTURE
     1 UNK         1 GROUP             0       ****    0 ROOT    
