@<TRIPOS>MOLECULE
3R540
247   249    1
SMALL
USER_CHARGES


@<TRIPOS>ATOM
      1 CA          3.3315   -9.2029  -44.7523 C.3       0 UNK        -0.1800 
      2 C           3.2732  -10.5743  -45.4070 C.2       0 UNK         0.5000 
      3 O           3.1331  -11.5765  -44.7067 O.2       0 UNK        -0.5000 
      4 N           3.3859  -10.6294  -46.7418 N.am      1 UNK        -0.5000 
      5 CA          3.3329  -11.8534  -47.5563 C.3       1 UNK         0.1400 
      6 C6          1.9368  -12.5329  -47.4953 C.3       23 UNK        -0.0398 
      7 S7          1.5228  -13.4748  -49.0037 S.3       23 UNK        -0.2404 
      8 C8          1.2852  -15.1290  -48.2858 C.3       23 UNK        -0.0205 
      9 C9          0.7234  -16.1414  -49.2738 C.ar      23 UNK        -0.0193 
     10 C10        -0.4703  -15.8889  -49.9589 C.ar      23 UNK        -0.1150 
     11 C11        -1.0149  -16.8433  -50.8250 C.ar      23 UNK        -0.0193 
     12 C12        -0.3609  -18.0705  -50.9805 C.ar      23 UNK        -0.1150 
     13 C13         0.8331  -18.3344  -50.3064 C.ar      23 UNK        -0.0193 
     14 C14         1.3735  -17.3641  -49.4596 C.ar      23 UNK        -0.1150 
     15 C15         1.5382  -19.6695  -50.4921 C.3       23 UNK        -0.0205 
     16 S16         1.4725  -20.6894  -48.9875 S.3       23 UNK        -0.2404 
     17 C17        -0.3225  -20.9507  -48.8085 C.3       23 UNK        -0.0398 
     18 CA         -0.6196  -22.1011  -47.8216 C.3       11 UNK         0.1400 
     19 N          -0.3375  -21.7433  -46.4301 N.am      11 UNK        -0.5000 
     20 C          -0.3094  -22.6196  -45.4163 C.2       10 UNK         0.5000 
     21 O          -0.4588  -23.8332  -45.5606 O.2       10 UNK        -0.5000 
     22 CA         -0.1557  -22.0359  -43.9993 C.3       10 UNK         0.1400 
     23 CB          1.3056  -21.6655  -43.7064 C.3       10 UNK        -0.1800 
     24 N          -1.0159  -20.8703  -43.7878 N.am      10 UNK        -0.5000 
     25 C          -2.3560  -20.9042  -43.8239 C.2       9 UNK         0.5000 
     26 O          -3.0094  -21.9385  -43.9638 O.2       9 UNK        -0.5000 
     27 CA         -3.0863  -19.5515  -43.7469 C.3       9 UNK         0.1400 
     28 CB         -3.2691  -19.1013  -42.2898 C.3       9 UNK        -0.1800 
     29 N          -2.3950  -18.5093  -44.5071 N.am      9 UNK        -0.5000 
     30 C          -2.3163  -18.4770  -45.8456 C.2       8 UNK         0.5000 
     31 O          -2.8534  -19.3026  -46.5812 O.2       8 UNK        -0.5000 
     32 CA         -1.4549  -17.3633  -46.4644 C.3       8 UNK         0.1400 
     33 CB         -2.2732  -16.0722  -46.6168 C.3       8 UNK        -0.1800 
     34 N          -0.2447  -17.1051  -45.6810 N.am      8 UNK        -0.5000 
     35 C           0.7666  -17.9820  -45.5739 C.2       7 UNK         0.5000 
     36 O           0.7766  -19.0723  -46.1409 O.2       7 UNK        -0.5000 
     37 CA          1.9319  -17.6219  -44.6310 C.3       7 UNK         0.1400 
     38 CB          3.0262  -16.8512  -45.3827 C.3       7 UNK        -0.1800 
     39 N           1.5133  -16.8500  -43.4619 N.am      7 UNK        -0.5000 
     40 C           0.6243  -17.2630  -42.5485 C.2       6 UNK         0.5000 
     41 O           0.1386  -18.3945  -42.5395 O.2       6 UNK        -0.5000 
     42 CA          0.1574  -16.2286  -41.5041 C.3       6 UNK         0.1400 
     43 CB          0.8818  -16.4566  -40.1694 C.3       6 UNK        -0.1800 
     44 N           0.3303  -14.8253  -41.9001 N.am      6 UNK        -0.5000 
     45 C          -0.1660  -14.2270  -42.9919 C.2       5 UNK         0.5000 
     46 O          -0.8122  -14.8237  -43.8533 O.2       5 UNK        -0.5000 
     47 CA          0.1471  -12.7301  -43.1965 C.3       5 UNK         0.1400 
     48 CB         -1.0466  -11.8516  -42.7793 C.3       5 UNK        -0.1800 
     49 N           1.4004  -12.2617  -42.5845 N.am      5 UNK        -0.5000 
     50 C           1.7169  -12.1242  -41.2886 C.2       4 UNK         0.5000 
     51 O           0.9679  -12.4389  -40.3633 O.2       4 UNK        -0.5000 
     52 CA          3.1480  -11.6446  -41.0007 C.3       4 UNK         0.1400 
     53 CB          3.4632  -11.5165  -39.4986 C.3       4 UNK        -0.1800 
     54 N           4.0687  -12.5939  -41.6166 N.am      4 UNK        -0.5000 
     55 C           5.1758  -12.2787  -42.2941 C.2       3 UNK         0.5000 
     56 O           5.6188  -11.1319  -42.3867 O.2       3 UNK        -0.5000 
     57 CA          5.8955  -13.4244  -43.0259 C.3       3 UNK         0.1400 
     58 CB          5.1824  -14.7926  -42.9370 C.3       3 UNK        -0.1800 
     59 N           6.0352  -13.0316  -44.4221 N.am      3 UNK        -0.5000 
     60 C           6.9949  -13.4353  -45.2613 C.2       2 UNK         0.5000 
     61 O           7.8872  -14.2218  -44.9387 O.2       2 UNK        -0.5000 
     62 CA          6.9792  -12.8407  -46.6891 C.3       2 UNK         0.1400 
     63 CB          7.4343  -13.8572  -47.7577 C.3       2 UNK        -0.1800 
     64 N           5.7066  -12.2085  -47.0675 N.am      2 UNK        -0.5000 
     65 C           4.5144  -12.8037  -47.2370 C.2       1 UNK         0.5000 
     66 O           4.3323  -14.0144  -47.1110 O.2       1 UNK        -0.5000 
     67 C          -2.0522  -22.6364  -48.0019 C.2       11 UNK         0.5000 
     68 O          -2.2300  -23.5938  -48.7515 O.2       11 UNK        -0.5000 
     69 N          -3.0415  -22.0612  -47.3035 N.am      12 UNK        -0.5000 
     70 CA         -4.4309  -22.5257  -47.3231 C.3       12 UNK         0.1400 
     71 CB         -5.3471  -21.5203  -46.6118 C.3       12 UNK        -0.1800 
     72 C          -4.5945  -23.9419  -46.7472 C.2       12 UNK         0.5000 
     73 O          -5.3077  -24.7546  -47.3353 O.2       12 UNK        -0.5000 
     74 N          -3.8806  -24.2352  -45.6515 N.am      13 UNK        -0.5000 
     75 CA         -3.7977  -25.5686  -45.0504 C.3       13 UNK         0.1400 
     76 CB         -3.0743  -25.4734  -43.6987 C.3       13 UNK        -0.1800 
     77 C          -3.1142  -26.6031  -45.9692 C.2       13 UNK         0.5000 
     78 O          -3.5041  -27.7710  -45.9652 O.2       13 UNK        -0.5000 
     79 N          -2.1315  -26.1506  -46.7594 N.am      14 UNK        -0.5000 
     80 CA         -1.4182  -26.9468  -47.7609 C.3       14 UNK         0.1400 
     81 CB         -0.0348  -26.3153  -47.9885 C.3       14 UNK        -0.1800 
     82 C          -2.1735  -27.0828  -49.1019 C.2       14 UNK         0.5000 
     83 O          -1.7164  -27.8317  -49.9660 O.2       14 UNK        -0.5000 
     84 N          -3.2843  -26.3473  -49.2671 N.am      15 UNK        -0.5000 
     85 CA         -4.0970  -26.2020  -50.4829 C.3       15 UNK         0.1400 
     86 CB         -4.7315  -27.5450  -50.9006 C.3       15 UNK        -0.1800 
     87 C          -3.3608  -25.4936  -51.6447 C.2       15 UNK         0.5000 
     88 O          -3.7373  -25.6588  -52.8051 O.2       15 UNK        -0.5000 
     89 N          -2.3470  -24.6860  -51.3085 N.am      16 UNK        -0.5000 
     90 CA         -1.6418  -23.7719  -52.2105 C.3       16 UNK         0.1400 
     91 CB         -0.1805  -23.6559  -51.7487 C.3       16 UNK        -0.1800 
     92 C          -2.3147  -22.3841  -52.2577 C.2       16 UNK         0.5000 
     93 O          -1.9552  -21.5555  -53.0953 O.2       16 UNK        -0.5000 
     94 N          -3.2807  -22.1587  -51.3638 N.am      17 UNK        -0.5000 
     95 CA         -4.2060  -21.0391  -51.3597 C.3       17 UNK         0.1400 
     96 CB         -3.7583  -20.0007  -50.3172 C.3       17 UNK        -0.1800 
     97 C          -5.6070  -21.5795  -51.0441 C.2       17 UNK         0.5000 
     98 O          -5.7420  -22.7414  -50.6467 O.2       17 UNK        -0.5000 
     99 N          -6.6160  -20.7147  -51.2080 N.am      18 UNK        -0.5000 
    100 CA        -8.0420  -20.8979  -50.9074 C.3       18 UNK         0.1400 
    101 CB        -8.2636  -21.1309  -49.3988 C.3       18 UNK        -0.1800 
    102 C         -8.7444  -21.9781  -51.7540 C.2       18 UNK         0.5000 
    103 O         -9.6944  -21.6656  -52.4724 O.2       18 UNK        -0.5000 
    104 N         -8.2734  -23.2241  -51.6478 N.am      19 UNK        -0.5000 
    105 CA        -8.8038  -24.3954  -52.3418 C.3       19 UNK         0.1400 
    106 CB        -8.3426  -25.6569  -51.5956 C.3       19 UNK        -0.1800 
    107 C         -8.3763  -24.4626  -53.8188 C.2       19 UNK         0.5000 
    108 O         -9.1147  -25.0137  -54.6365 O.2       19 UNK        -0.5000 
    109 N         -7.1981  -23.9135  -54.1326 N.am      20 UNK        -0.5000 
    110 CA        -6.5742  -23.9119  -55.4514 C.3       20 UNK         0.1400 
    111 CB        -6.0381  -25.3211  -55.7820 C.3       20 UNK        -0.1800 
    112 C         -5.4483  -22.8657  -55.4717 C.2       20 UNK         0.5000 
    113 O         -5.1888  -22.2247  -54.4477 O.2       20 UNK        -0.5000 
    114 N         -4.8025  -22.7244  -56.6391 N.am      21 UNK        -0.5000 
    115 CA        -3.6249  -21.8964  -56.9215 C.3       21 UNK         0.1400 
    116 CB        -2.3634  -22.5417  -56.3116 C.3       21 UNK        -0.1800 
    117 C         -3.8278  -20.4162  -56.5398 C.2       21 UNK         0.5000 
    118 O         -4.4670  -19.6892  -57.3020 O.2       21 UNK        -0.5000 
    119 N         -3.3052  -19.9987  -55.3793 N.am      22 UNK        -0.5000 
    120 CA        -3.5034  -18.6563  -54.8083 C.3       22 UNK         0.1400 
    121 C         -4.9572  -18.3826  -54.3051 C.2       22 UNK         0.5000 
    122 N         -5.8155  -19.3869  -54.1591 N.am      22 UNK        -0.7600 
    123 O         -5.3287  -17.2367  -54.0715 O.2       22 UNK        -0.5000 
    124 C124       -2.4300  -18.3753  -53.7259 C.3       23 UNK        -0.0398 
    125 S125       -2.1329  -16.6057  -53.3802 S.3       23 UNK        -0.2404 
    126 C126       -2.3169  -16.5465  -51.5647 C.3       23 UNK        -0.0205 
    127 H127        3.4653   -8.4077  -45.4859 H         1 UNK         0.0600 
    128 H128        4.1619   -9.1614  -44.0474 H         1 UNK         0.0600 
    129 H129        2.4089   -9.0115  -44.2045 H         1 UNK         0.0600 
    130 H130        3.5017   -9.7691  -47.2601 H         1 UNK         0.3000 
    131 H131        3.4940  -11.5168  -48.5817 H         1 UNK         0.0600 
    132 H132        1.8426  -13.1561  -46.6042 H         1 UNK         0.0800 
    133 H133        1.1626  -11.7711  -47.3955 H         1 UNK         0.0800 
    134 H134        2.2438  -15.4728  -47.8980 H         1 UNK         0.0800 
    135 H135        0.6104  -15.0594  -47.4337 H         1 UNK         0.0800 
    136 H136       -0.9769  -14.9458  -49.8099 H         1 UNK         0.1150 
    137 H137       -0.7713  -18.8267  -51.6307 H         1 UNK         0.1150 
    138 H138        2.2891  -17.5771  -48.9258 H         1 UNK         0.1150 
    139 H139        1.1078  -20.2281  -51.3251 H         1 UNK         0.0800 
    140 H140        2.5823  -19.4892  -50.7512 H         1 UNK         0.0800 
    141 H141       -0.7287  -21.1663  -49.7980 H         1 UNK         0.0800 
    142 H142       -0.7923  -20.0231  -48.4776 H         1 UNK         0.0800 
    143 H143        0.0434  -22.9308  -48.0753 H         1 UNK         0.0600 
    144 H144       -0.1308  -20.7646  -46.2477 H         1 UNK         0.3000 
    145 H145       -0.4593  -22.8060  -43.2871 H         1 UNK         0.0600 
    146 H146        1.4175  -21.2652  -42.6986 H         1 UNK         0.0600 
    147 H147        1.6829  -20.9206  -44.4063 H         1 UNK         0.0600 
    148 H148        1.9503  -22.5417  -43.7838 H         1 UNK         0.0600 
    149 H149       -0.5571  -19.9820  -43.6152 H         1 UNK         0.3000 
    150 H150       -4.0787  -19.6830  -44.1826 H         1 UNK         0.0600 
    151 H151       -3.8346  -19.8429  -41.7241 H         1 UNK         0.0600 
    152 H152       -3.8188  -18.1617  -42.2331 H         1 UNK         0.0600 
    153 H153       -2.3151  -18.9633  -41.7815 H         1 UNK         0.0600 
    154 H154       -1.8857  -17.8181  -43.9763 H         1 UNK         0.3000 
    155 H155       -1.1512  -17.6908  -47.4611 H         1 UNK         0.0600 
    156 H156       -3.1481  -16.2417  -47.2456 H         1 UNK         0.0600 
    157 H157       -1.6901  -15.2800  -47.0843 H         1 UNK         0.0600 
    158 H158       -2.6289  -15.7027  -45.6545 H         1 UNK         0.0600 
    159 H159       -0.2341  -16.2547  -45.1269 H         1 UNK         0.3000 
    160 H160        2.3620  -18.5597  -44.2745 H         1 UNK         0.0600 
    161 H161        2.7166  -15.8311  -45.6112 H         1 UNK         0.0600 
    162 H162        3.2795  -17.3400  -46.3247 H         1 UNK         0.0600 
    163 H163        3.9416  -16.7979  -44.7946 H         1 UNK         0.0600 
    164 H164        1.8517  -15.9026  -43.3964 H         1 UNK         0.3000 
    165 H165       -0.9105  -16.3926  -41.3481 H         1 UNK         0.0600 
    166 H166        0.4925  -15.7991  -39.3917 H         1 UNK         0.0600 
    167 H167        0.7502  -17.4823  -39.8218 H         1 UNK         0.0600 
    168 H168        1.9534  -16.2739  -40.2582 H         1 UNK         0.0600 
    169 H169        0.7791  -14.2187  -41.2227 H         1 UNK         0.3000 
    170 H170        0.2872  -12.5970  -44.2706 H         1 UNK         0.0600 
    171 H171       -1.2767  -11.9511  -41.7183 H         1 UNK         0.0600 
    172 H172       -0.8516  -10.7990  -42.9843 H         1 UNK         0.0600 
    173 H173       -1.9445  -12.1293  -43.3327 H         1 UNK         0.0600 
    174 H174        2.1216  -12.0225  -43.2648 H         1 UNK         0.3000 
    175 H175        3.2502  -10.6607  -41.4640 H         1 UNK         0.0600 
    176 H176        3.3770  -12.4752  -38.9856 H         1 UNK         0.0600 
    177 H177        4.4750  -11.1430  -39.3409 H         1 UNK         0.0600 
    178 H178        2.7796  -10.8186  -39.0138 H         1 UNK         0.0600 
    179 H179        3.7709  -13.5587  -41.6094 H         1 UNK         0.3000 
    180 H180        6.8852  -13.5129  -42.5735 H         1 UNK         0.0600 
    181 H181        5.7482  -15.5618  -43.4628 H         1 UNK         0.0600 
    182 H182        4.1870  -14.7568  -43.3815 H         1 UNK         0.0600 
    183 H183        5.0840  -15.1262  -41.9033 H         1 UNK         0.0600 
    184 H184        5.3430  -12.3704  -44.7510 H         1 UNK         0.3000 
    185 H185        7.7150  -12.0355  -46.6769 H         1 UNK         0.0600 
    186 H186        7.4197  -13.4160  -48.7543 H         1 UNK         0.0600 
    187 H187        8.4544  -14.1932  -47.5691 H         1 UNK         0.0600 
    188 H188        6.7991  -14.7432  -47.7727 H         1 UNK         0.0600 
    189 H189        5.7402  -11.2034  -47.1681 H         1 UNK         0.3000 
    190 H190       -2.8480  -21.2215  -46.7656 H         1 UNK         0.3000 
    191 H191       -4.7399  -22.5699  -48.3648 H         1 UNK         0.0600 
    192 H192       -5.2838  -20.5343  -47.0720 H         1 UNK         0.0600 
    193 H193       -5.0945  -21.4180  -45.5573 H         1 UNK         0.0600 
    194 H194       -6.3890  -21.8375  -46.6695 H         1 UNK         0.0600 
    195 H195       -3.3521  -23.4939  -45.2010 H         1 UNK         0.3000 
    196 H196       -4.8168  -25.9146  -44.8657 H         1 UNK         0.0600 
    197 H197       -3.5891  -24.7892  -43.0238 H         1 UNK         0.0600 
    198 H198       -2.0495  -25.1200  -43.8131 H         1 UNK         0.0600 
    199 H199       -3.0335  -26.4466  -43.2082 H         1 UNK         0.0600 
    200 H200       -1.8408  -25.1852  -46.6600 H         1 UNK         0.3000 
    201 H201       -1.2690  -27.9543  -47.3674 H         1 UNK         0.0600 
    202 H202        0.5170  -26.2223  -47.0528 H         1 UNK         0.0600 
    203 H203       -0.1139  -25.3224  -48.4308 H         1 UNK         0.0600 
    204 H204        0.5688  -26.9250  -48.6619 H         1 UNK         0.0600 
    205 H205       -3.5613  -25.7521  -48.4967 H         1 UNK         0.3000 
    206 H206       -4.9133  -25.5325  -50.2072 H         1 UNK         0.0600 
    207 H207       -3.9849  -28.2559  -51.2544 H         1 UNK         0.0600 
    208 H208       -5.2660  -28.0032  -50.0685 H         1 UNK         0.0600 
    209 H209       -5.4505  -27.4050  -51.7083 H         1 UNK         0.0600 
    210 H210       -2.1572  -24.5577  -50.3169 H         1 UNK         0.3000 
    211 H211       -1.6508  -24.1748  -53.2251 H         1 UNK         0.0600 
    212 H212       -0.1071  -23.3036  -50.7203 H         1 UNK         0.0600 
    213 H213        0.3776  -22.9603  -52.3767 H         1 UNK         0.0600 
    214 H214        0.3241  -24.6206  -51.8045 H         1 UNK         0.0600 
    215 H215       -3.5441  -22.9150  -50.7453 H         1 UNK         0.3000 
    216 H216       -4.2340  -20.5866  -52.3493 H         1 UNK         0.0600 
    217 H217       -4.3736  -19.1025  -50.3698 H         1 UNK         0.0600 
    218 H218       -3.8368  -20.3839  -49.3014 H         1 UNK         0.0600 
    219 H219       -2.7247  -19.6982  -50.4752 H         1 UNK         0.0600 
    220 H220       -6.3836  -19.8009  -51.5706 H         1 UNK         0.3000 
    221 H221       -8.5191  -19.9491  -51.1584 H         1 UNK         0.0600 
    222 H222       -7.8048  -22.0571  -49.0516 H         1 UNK         0.0600 
    223 H223       -7.8469  -20.3136  -48.8101 H         1 UNK         0.0600 
    224 H224       -9.3277  -21.1887  -49.1667 H         1 UNK         0.0600 
    225 H225       -7.4351  -23.3542  -51.0865 H         1 UNK         0.3000 
    226 H226       -9.8947  -24.3571  -52.3105 H         1 UNK         0.0600 
    227 H227       -8.7029  -25.6606  -50.5668 H         1 UNK         0.0600 
    228 H228       -8.7222  -26.5591  -52.0770 H         1 UNK         0.0600 
    229 H229       -7.2548  -25.7296  -51.5696 H         1 UNK         0.0600 
    230 H230       -6.6628  -23.4312  -53.4213 H         1 UNK         0.3000 
    231 H231       -7.3184  -23.6176  -56.1940 H         1 UNK         0.0600 
    232 H232       -5.5866  -25.3566  -56.7737 H         1 UNK         0.0600 
    233 H233       -6.8332  -26.0663  -55.7719 H         1 UNK         0.0600 
    234 H234       -5.2794  -25.6361  -55.0649 H         1 UNK         0.0600 
    235 H235       -5.1335  -23.2656  -57.4252 H         1 UNK         0.3000 
    236 H236       -3.4939  -21.9050  -58.0047 H         1 UNK         0.0600 
    237 H237       -2.4980  -22.7853  -55.2601 H         1 UNK         0.0600 
    238 H238       -2.1205  -23.4711  -56.8266 H         1 UNK         0.0600 
    239 H239       -1.4939  -21.8890  -56.4001 H         1 UNK         0.0600 
    240 H240       -2.8355  -20.6713  -54.7815 H         1 UNK         0.3000 
    241 H241       -3.3337  -17.9488  -55.6221 H         1 UNK         0.0600 
    242 H242       -6.7699  -19.1809  -53.9143 H         1 UNK         0.3800 
    243 H243       -5.5370  -20.3428  -54.3621 H         1 UNK         0.3800 
    244 H244       -1.4710  -18.7876  -54.0438 H         1 UNK         0.0800 
    245 H245       -2.6845  -18.9027  -52.8091 H         1 UNK         0.0800 
    246 H246       -2.6755  -15.5501  -51.3027 H         1 UNK         0.0800 
    247 H247       -3.0956  -17.2345  -51.2374 H         1 UNK         0.0800 
@<TRIPOS>BOND
     1    1    2 1    
     2    1  127 1    
     3    1  128 1    
     4    1  129 1    
     5    2    3 2    
     6    2    4 am   BACKBONE|DICT|INTERRES
     7    4    5 1    
     8    4  130 1    
     9    5    6 1    
    10    5   65 1    
    11    5  131 1    
    12    6    7 1    
    13    6  132 1    
    14    6  133 1    
    15    7    8 1    
    16    8    9 1    
    17    8  134 1    
    18    8  135 1    
    19    9   10 ar   
    20    9   14 ar   
    21   10   11 ar   
    22   10  136 1    
    23   11   12 ar   
    24   11  126 1    
    25   12   13 ar   
    26   12  137 1    
    27   13   14 ar   
    28   13   15 1    
    29   14  138 1    
    30   15   16 1    
    31   15  139 1    
    32   15  140 1    
    33   16   17 1    
    34   17   18 1    
    35   17  141 1    
    36   17  142 1    
    37   18   19 1    
    38   18   67 1    
    39   18  143 1    
    40   19   20 am   BACKBONE|DICT|INTERRES
    41   19  144 1    
    42   20   21 2    
    43   20   22 1    
    44   22   23 1    
    45   22   24 1    
    46   22  145 1    
    47   23  146 1    
    48   23  147 1    
    49   23  148 1    
    50   24   25 am   BACKBONE|DICT|INTERRES
    51   24  149 1    
    52   25   26 2    
    53   25   27 1    
    54   27   28 1    
    55   27   29 1    
    56   27  150 1    
    57   28  151 1    
    58   28  152 1    
    59   28  153 1    
    60   29   30 am   BACKBONE|DICT|INTERRES
    61   29  154 1    
    62   30   31 2    
    63   30   32 1    
    64   32   33 1    
    65   32   34 1    
    66   32  155 1    
    67   33  156 1    
    68   33  157 1    
    69   33  158 1    
    70   34   35 am   BACKBONE|DICT|INTERRES
    71   34  159 1    
    72   35   36 2    
    73   35   37 1    
    74   37   38 1    
    75   37   39 1    
    76   37  160 1    
    77   38  161 1    
    78   38  162 1    
    79   38  163 1    
    80   39   40 am   BACKBONE|DICT|INTERRES
    81   39  164 1    
    82   40   41 2    
    83   40   42 1    
    84   42   43 1    
    85   42   44 1    
    86   42  165 1    
    87   43  166 1    
    88   43  167 1    
    89   43  168 1    
    90   44   45 am   BACKBONE|DICT|INTERRES
    91   44  169 1    
    92   45   46 2    
    93   45   47 1    
    94   47   48 1    
    95   47   49 1    
    96   47  170 1    
    97   48  171 1    
    98   48  172 1    
    99   48  173 1    
   100   49   50 am   BACKBONE|DICT|INTERRES
   101   49  174 1    
   102   50   51 2    
   103   50   52 1    
   104   52   53 1    
   105   52   54 1    
   106   52  175 1    
   107   53  176 1    
   108   53  177 1    
   109   53  178 1    
   110   54   55 am   BACKBONE|DICT|INTERRES
   111   54  179 1    
   112   55   56 2    
   113   55   57 1    
   114   57   58 1    
   115   57   59 1    
   116   57  180 1    
   117   58  181 1    
   118   58  182 1    
   119   58  183 1    
   120   59   60 am   BACKBONE|DICT|INTERRES
   121   59  184 1    
   122   60   61 2    
   123   60   62 1    
   124   62   63 1    
   125   62   64 1    
   126   62  185 1    
   127   63  186 1    
   128   63  187 1    
   129   63  188 1    
   130   64   65 am   BACKBONE|DICT|INTERRES
   131   64  189 1    
   132   65   66 2    
   133   67   68 2    
   134   67   69 am   BACKBONE|DICT|INTERRES
   135   69   70 1    
   136   69  190 1    
   137   70   71 1    
   138   70   72 1    
   139   70  191 1    
   140   71  192 1    
   141   71  193 1    
   142   71  194 1    
   143   72   73 2    
   144   72   74 am   BACKBONE|DICT|INTERRES
   145   74   75 1    
   146   74  195 1    
   147   75   76 1    
   148   75   77 1    
   149   75  196 1    
   150   76  197 1    
   151   76  198 1    
   152   76  199 1    
   153   77   78 2    
   154   77   79 am   BACKBONE|DICT|INTERRES
   155   79   80 1    
   156   79  200 1    
   157   80   81 1    
   158   80   82 1    
   159   80  201 1    
   160   81  202 1    
   161   81  203 1    
   162   81  204 1    
   163   82   83 2    
   164   82   84 am   BACKBONE|DICT|INTERRES
   165   84   85 1    
   166   84  205 1    
   167   85   86 1    
   168   85   87 1    
   169   85  206 1    
   170   86  207 1    
   171   86  208 1    
   172   86  209 1    
   173   87   88 2    
   174   87   89 am   BACKBONE|DICT|INTERRES
   175   89   90 1    
   176   89  210 1    
   177   90   91 1    
   178   90   92 1    
   179   90  211 1    
   180   91  212 1    
   181   91  213 1    
   182   91  214 1    
   183   92   93 2    
   184   92   94 am   BACKBONE|DICT|INTERRES
   185   94   95 1    
   186   94  215 1    
   187   95   96 1    
   188   95   97 1    
   189   95  216 1    
   190   96  217 1    
   191   96  218 1    
   192   96  219 1    
   193   97   98 2    
   194   97   99 am   BACKBONE|DICT|INTERRES
   195   99  100 1    
   196   99  220 1    
   197  100  101 1    
   198  100  102 1    
   199  100  221 1    
   200  101  222 1    
   201  101  223 1    
   202  101  224 1    
   203  102  103 2    
   204  102  104 am   BACKBONE|DICT|INTERRES
   205  104  105 1    
   206  104  225 1    
   207  105  106 1    
   208  105  107 1    
   209  105  226 1    
   210  106  227 1    
   211  106  228 1    
   212  106  229 1    
   213  107  108 2    
   214  107  109 am   BACKBONE|DICT|INTERRES
   215  109  110 1    
   216  109  230 1    
   217  110  111 1    
   218  110  112 1    
   219  110  231 1    
   220  111  232 1    
   221  111  233 1    
   222  111  234 1    
   223  112  113 2    
   224  112  114 am   BACKBONE|DICT|INTERRES
   225  114  115 1    
   226  114  235 1    
   227  115  116 1    
   228  115  117 1    
   229  115  236 1    
   230  116  237 1    
   231  116  238 1    
   232  116  239 1    
   233  117  118 2    
   234  117  119 am   BACKBONE|DICT|INTERRES
   235  119  120 1    
   236  119  240 1    
   237  120  121 1    
   238  120  124 1    
   239  120  241 1    
   240  121  122 am   BACKBONE|DICT|INTERRES
   241  121  123 2    
   242  122  242 1    
   243  122  243 1    
   244  124  125 1    
   245  124  244 1    
   246  124  245 1    
   247  125  126 1    
   248  126  246 1    
   249  126  247 1    
@<TRIPOS>SUBSTRUCTURE
     1 UNK         1 GROUP             0       ****    0 ROOT    
