@<TRIPOS>MOLECULE
3R540
247   249    1
SMALL
USER_CHARGES


@<TRIPOS>ATOM
      1 CA         -0.9211  -14.4112  -41.2213 C.3       0 UNK        -0.1800 
      2 C          -1.6459  -13.6475  -42.3204 C.2       0 UNK         0.5000 
      3 O          -2.2005  -12.5775  -42.0672 O.2       0 UNK        -0.5000 
      4 N          -1.6386  -14.1897  -43.5433 N.am      1 UNK        -0.5000 
      5 CA         -2.2415  -13.6217  -44.7533 C.3       1 UNK         0.1400 
      6 C6         -2.5618  -14.7245  -45.7990 C.3       23 UNK        -0.0398 
      7 S7         -1.1561  -15.8238  -46.1909 S.3       23 UNK        -0.2404 
      8 C8         -1.8462  -16.7967  -47.5591 C.3       23 UNK        -0.0205 
      9 C9         -0.7433  -17.4200  -48.3997 C.ar      23 UNK        -0.0193 
     10 C10        -0.3929  -16.8538  -49.6288 C.ar      23 UNK        -0.1150 
     11 C11         0.6177  -17.4202  -50.4103 C.ar      23 UNK        -0.0193 
     12 C12         1.2707  -18.5703  -49.9580 C.ar      23 UNK        -0.1150 
     13 C13         0.9128  -19.1601  -48.7430 C.ar      23 UNK        -0.0193 
     14 C14        -0.0845  -18.5718  -47.9609 C.ar      23 UNK        -0.1150 
     15 C15         1.6090  -20.4306  -48.2842 C.3       23 UNK        -0.0205 
     16 S16         0.8382  -21.9178  -48.9863 S.3       23 UNK        -0.2404 
     17 C17        -0.6136  -22.1836  -47.9098 C.3       23 UNK        -0.0398 
     18 CA         -0.4152  -23.4162  -46.9995 C.3       11 UNK         0.1400 
     19 N           0.5191  -23.1551  -45.8961 N.am      11 UNK        -0.5000 
     20 C           1.1529  -24.1168  -45.2104 C.2       10 UNK         0.5000 
     21 O           0.9763  -25.3190  -45.4038 O.2       10 UNK        -0.5000 
     22 CA          2.1063  -23.6578  -44.0979 C.3       10 UNK         0.1400 
     23 CB          3.3952  -23.0596  -44.6849 C.3       10 UNK        -0.1800 
     24 N           1.4541  -22.6842  -43.2242 N.am      10 UNK        -0.5000 
     25 C           0.6175  -23.0148  -42.2299 C.2       9 UNK         0.5000 
     26 O           0.3537  -24.1778  -41.9235 O.2       9 UNK        -0.5000 
     27 CA         -0.0445  -21.8673  -41.4398 C.3       9 UNK         0.1400 
     28 CB          0.7441  -21.5789  -40.1535 C.3       9 UNK        -0.1800 
     29 N          -0.1900  -20.6219  -42.1950 N.am      9 UNK        -0.5000 
     30 C          -0.9711  -20.4666  -43.2720 C.2       8 UNK         0.5000 
     31 O          -1.6438  -21.3691  -43.7667 O.2       8 UNK        -0.5000 
     32 CA         -0.9567  -19.0798  -43.9412 C.3       8 UNK         0.1400 
     33 CB         -1.9102  -18.1288  -43.1998 C.3       8 UNK        -0.1800 
     34 N           0.3676  -18.4518  -44.0496 N.am      8 UNK        -0.5000 
     35 C           1.5012  -19.0258  -44.4819 C.2       7 UNK         0.5000 
     36 O           1.5896  -20.2220  -44.7609 O.2       7 UNK        -0.5000 
     37 CA          2.7360  -18.1152  -44.6249 C.3       7 UNK         0.1400 
     38 CB          3.6743  -18.5823  -45.7518 C.3       7 UNK        -0.1800 
     39 N           2.3482  -16.7311  -44.8935 N.am      7 UNK        -0.5000 
     40 C           2.5649  -15.6766  -44.1038 C.2       6 UNK         0.5000 
     41 O           3.1061  -15.7534  -42.9997 O.2       6 UNK        -0.5000 
     42 CA          2.0900  -14.3101  -44.6484 C.3       6 UNK         0.1400 
     43 CB          2.2192  -13.1839  -43.6073 C.3       6 UNK        -0.1800 
     44 N           2.7693  -13.8921  -45.8793 N.am      6 UNK        -0.5000 
     45 C           2.6054  -14.4348  -47.0933 C.2       5 UNK         0.5000 
     46 O           1.9276  -15.4374  -47.3152 O.2       5 UNK        -0.5000 
     47 CA          3.2763  -13.7187  -48.2768 C.3       5 UNK         0.1400 
     48 CB          4.1293  -14.6918  -49.1078 C.3       5 UNK        -0.1800 
     49 N           2.2357  -13.1469  -49.1282 N.am      5 UNK        -0.5000 
     50 C           1.5348  -12.0478  -48.8232 C.2       4 UNK         0.5000 
     51 O           1.8361  -11.2961  -47.8920 O.2       4 UNK        -0.5000 
     52 CA          0.3040  -11.7328  -49.6976 C.3       4 UNK         0.1400 
     53 CB         -0.3678  -12.9906  -50.2840 C.3       4 UNK        -0.1800 
     54 N          -0.6729  -11.0219  -48.8812 N.am      4 UNK        -0.5000 
     55 C          -1.3043   -9.8869  -49.2031 C.2       3 UNK         0.5000 
     56 O          -1.1908   -9.3272  -50.2946 O.2       3 UNK        -0.5000 
     57 CA         -2.2203   -9.2623  -48.1260 C.3       3 UNK         0.1400 
     58 CB         -3.6934   -9.5841  -48.4220 C.3       3 UNK        -0.1800 
     59 N          -1.9043   -9.7130  -46.7685 N.am      3 UNK        -0.5000 
     60 C          -0.7902   -9.3940  -46.0961 C.2       2 UNK         0.5000 
     61 O           0.0088   -8.5393  -46.4813 O.2       2 UNK        -0.5000 
     62 CA         -0.4993  -10.1607  -44.7871 C.3       2 UNK         0.1400 
     63 CB         -0.6331   -9.2295  -43.5720 C.3       2 UNK        -0.1800 
     64 N          -1.3127  -11.3599  -44.5437 N.am      2 UNK        -0.5000 
     65 C          -1.3937  -12.4536  -45.3136 C.2       1 UNK         0.5000 
     66 O          -0.8360  -12.5506  -46.4057 O.2       1 UNK        -0.5000 
     67 C          -1.7590  -24.0149  -46.5275 C.2       11 UNK         0.5000 
     68 O          -2.4520  -24.6358  -47.3356 O.2       11 UNK        -0.5000 
     69 N          -2.0852  -23.8984  -45.2319 N.am      12 UNK        -0.5000 
     70 CA         -3.2033  -24.5907  -44.5837 C.3       12 UNK         0.1400 
     71 CB         -3.3171  -24.1342  -43.1219 C.3       12 UNK        -0.1800 
     72 C          -3.1023  -26.1286  -44.6562 C.2       12 UNK         0.5000 
     73 O          -4.1364  -26.7947  -44.7037 O.2       12 UNK        -0.5000 
     74 N          -1.8751  -26.6697  -44.7267 N.am      13 UNK        -0.5000 
     75 CA         -1.6128  -28.0984  -44.9356 C.3       13 UNK         0.1400 
     76 CB         -0.1365  -28.3969  -44.6359 C.3       13 UNK        -0.1800 
     77 C          -1.9865  -28.5802  -46.3537 C.2       13 UNK         0.5000 
     78 O          -2.2344  -29.7710  -46.5424 O.2       13 UNK        -0.5000 
     79 N          -2.0571  -27.6448  -47.3105 N.am      14 UNK        -0.5000 
     80 CA         -2.5454  -27.8458  -48.6747 C.3       14 UNK         0.1400 
     81 CB         -1.6159  -27.0935  -49.6445 C.3       14 UNK        -0.1800 
     82 C          -4.0105  -27.3801  -48.8178 C.2       14 UNK         0.5000 
     83 O          -4.4519  -27.0993  -49.9326 O.2       14 UNK        -0.5000 
     84 N          -4.7316  -27.2580  -47.6904 N.am      15 UNK        -0.5000 
     85 CA         -6.1279  -26.8208  -47.5635 C.3       15 UNK         0.1400 
     86 CB         -7.0771  -27.8677  -48.1829 C.3       15 UNK        -0.1800 
     87 C          -6.3822  -25.3960  -48.1027 C.2       15 UNK         0.5000 
     88 O          -7.4967  -25.0929  -48.5304 O.2       15 UNK        -0.5000 
     89 N          -5.3327  -24.5589  -48.0949 N.am      16 UNK        -0.5000 
     90 CA         -5.2622  -23.2023  -48.6443 C.3       16 UNK         0.1400 
     91 CB         -6.2569  -22.2540  -47.9450 C.3       16 UNK        -0.1800 
     92 C          -5.3605  -23.1323  -50.1839 C.2       16 UNK         0.5000 
     93 O          -5.4318  -22.0293  -50.7259 O.2       16 UNK        -0.5000 
     94 N          -5.2926  -24.2756  -50.8846 N.am      17 UNK        -0.5000 
     95 CA         -5.2708  -24.3319  -52.3504 C.3       17 UNK         0.1400 
     96 CB         -5.4797  -25.7796  -52.8172 C.3       17 UNK        -0.1800 
     97 C          -3.9661  -23.7545  -52.9296 C.2       17 UNK         0.5000 
     98 O          -3.9888  -23.1232  -53.9861 O.2       17 UNK        -0.5000 
     99 N          -2.8619  -23.9420  -52.1934 N.am      18 UNK        -0.5000 
    100 CA        -1.5586  -23.3479  -52.4828 C.3       18 UNK         0.1400 
    101 CB        -0.4893  -24.0515  -51.6347 C.3       18 UNK        -0.1800 
    102 C         -1.5380  -21.8246  -52.2487 C.2       18 UNK         0.5000 
    103 O         -0.8597  -21.1161  -52.9893 O.2       18 UNK        -0.5000 
    104 N         -2.3042  -21.3486  -51.2547 N.am      19 UNK        -0.5000 
    105 CA        -2.4712  -19.9257  -50.9512 C.3       19 UNK         0.1400 
    106 CB        -3.0771  -19.7508  -49.5500 C.3       19 UNK        -0.1800 
    107 C         -3.3438  -19.2162  -51.9977 C.2       19 UNK         0.5000 
    108 O         -3.0227  -18.1022  -52.4086 O.2       19 UNK        -0.5000 
    109 N         -4.4164  -19.8851  -52.4438 N.am      20 UNK        -0.5000 
    110 CA        -5.3585  -19.3959  -53.4558 C.3       20 UNK         0.1400 
    111 CB        -6.5062  -20.4074  -53.5962 C.3       20 UNK        -0.1800 
    112 C         -4.7210  -19.1056  -54.8314 C.2       20 UNK         0.5000 
    113 O         -5.2779  -18.3254  -55.6044 O.2       20 UNK        -0.5000 
    114 N         -3.5625  -19.7187  -55.1044 N.am      21 UNK        -0.5000 
    115 CA        -2.7618  -19.5094  -56.3080 C.3       21 UNK         0.1400 
    116 CB        -1.8384  -20.7243  -56.4925 C.3       21 UNK        -0.1800 
    117 C         -1.9385  -18.2026  -56.2954 C.2       21 UNK         0.5000 
    118 O         -1.4098  -17.8343  -57.3459 O.2       21 UNK        -0.5000 
    119 N         -1.8149  -17.5351  -55.1395 N.am      22 UNK        -0.5000 
    120 CA        -0.9441  -16.3602  -54.9478 C.3       22 UNK         0.1400 
    121 C         -1.5231  -15.2493  -54.0279 C.2       22 UNK         0.5000 
    122 N         -2.5028  -15.5144  -53.1754 N.am      22 UNK        -0.7600 
    123 O         -1.0844  -14.1051  -54.1070 O.2       22 UNK        -0.5000 
    124 C124        0.5006  -16.7611  -54.5406 C.3       23 UNK        -0.0398 
    125 S125        0.5640  -17.9107  -53.1217 S.3       23 UNK        -0.2404 
    126 C126        0.9923  -16.8002  -51.7476 C.3       23 UNK        -0.0205 
    127 H127       -1.6267  -14.7146  -40.4480 H         1 UNK         0.0600 
    128 H128       -0.1621  -13.7776  -40.7625 H         1 UNK         0.0600 
    129 H129       -0.4295  -15.3059  -41.6045 H         1 UNK         0.0600 
    130 H130       -1.1619  -15.0656  -43.6929 H         1 UNK         0.3000 
    131 H131       -3.2010  -13.1833  -44.4700 H         1 UNK         0.0600 
    132 H132       -2.9362  -14.2767  -46.7213 H         1 UNK         0.0800 
    133 H133       -3.3732  -15.3495  -45.4238 H         1 UNK         0.0800 
    134 H134       -2.4750  -16.1611  -48.1841 H         1 UNK         0.0800 
    135 H135       -2.4948  -17.5752  -47.1554 H         1 UNK         0.0800 
    136 H136       -0.9107  -15.9731  -49.9789 H         1 UNK         0.1150 
    137 H137        2.0421  -19.0205  -50.5667 H         1 UNK         0.1150 
    138 H138       -0.3539  -19.0122  -47.0139 H         1 UNK         0.1150 
    139 H139        2.6562  -20.4019  -48.5883 H         1 UNK         0.0800 
    140 H140        1.6134  -20.5043  -47.2009 H         1 UNK         0.0800 
    141 H141       -1.4664  -22.3279  -48.5745 H         1 UNK         0.0800 
    142 H142       -0.8318  -21.2954  -47.3172 H         1 UNK         0.0800 
    143 H143        0.0294  -24.2013  -47.6161 H         1 UNK         0.0600 
    144 H144        0.7067  -22.1881  -45.6639 H         1 UNK         0.3000 
    145 H145        2.3868  -24.5339  -43.5089 H         1 UNK         0.0600 
    146 H146        4.0706  -22.7283  -43.8962 H         1 UNK         0.0600 
    147 H147        3.9289  -23.8016  -45.2799 H         1 UNK         0.0600 
    148 H148        3.1957  -22.2070  -45.3342 H         1 UNK         0.0600 
    149 H149        1.5691  -21.7068  -43.4727 H         1 UNK         0.3000 
    150 H150       -1.0448  -22.2035  -41.1583 H         1 UNK         0.0600 
    151 H151        0.8478  -22.4802  -39.5477 H         1 UNK         0.0600 
    152 H152        0.2392  -20.8331  -39.5392 H         1 UNK         0.0600 
    153 H153        1.7481  -21.2125  -40.3715 H         1 UNK         0.0600 
    154 H154        0.3495  -19.8307  -41.8764 H         1 UNK         0.3000 
    155 H155       -1.3365  -19.2113  -44.9551 H         1 UNK         0.0600 
    156 H156       -1.5438  -17.8875  -42.2013 H         1 UNK         0.0600 
    157 H157       -2.8990  -18.5756  -43.0870 H         1 UNK         0.0600 
    158 H158       -2.0449  -17.1949  -43.7423 H         1 UNK         0.0600 
    159 H159        0.4068  -17.4633  -43.8571 H         1 UNK         0.3000 
    160 H160        3.2807  -18.1849  -43.6817 H         1 UNK         0.0600 
    161 H161        3.1879  -18.5228  -46.7257 H         1 UNK         0.0600 
    162 H162        3.9990  -19.6128  -45.6024 H         1 UNK         0.0600 
    163 H163        4.5716  -17.9649  -45.7930 H         1 UNK         0.0600 
    164 H164        1.9401  -16.5465  -45.8095 H         1 UNK         0.3000 
    165 H165        1.0292  -14.4128  -44.8772 H         1 UNK         0.0600 
    166 H166        1.7944  -12.2531  -43.9800 H         1 UNK         0.0600 
    167 H167        1.6868  -13.4343  -42.6890 H         1 UNK         0.0600 
    168 H168        3.2607  -12.9956  -43.3440 H         1 UNK         0.0600 
    169 H169        3.3470  -13.0681  -45.8007 H         1 UNK         0.3000 
    170 H170        3.9252  -12.9223  -47.9062 H         1 UNK         0.0600 
    171 H171        4.9106  -15.1434  -48.4953 H         1 UNK         0.0600 
    172 H172        3.5302  -15.5030  -49.5247 H         1 UNK         0.0600 
    173 H173        4.6193  -14.1785  -49.9352 H         1 UNK         0.0600 
    174 H174        1.9045  -13.7369  -49.8764 H         1 UNK         0.3000 
    175 H175        0.6485  -11.0991  -50.5168 H         1 UNK         0.0600 
    176 H176       -0.6427  -13.6939  -49.4966 H         1 UNK         0.0600 
    177 H177       -1.2759  -12.7322  -50.8291 H         1 UNK         0.0600 
    178 H178        0.2855  -13.5060  -50.9881 H         1 UNK         0.0600 
    179 H179       -0.7775  -11.3941  -47.9400 H         1 UNK         0.3000 
    180 H180       -2.0895   -8.1790  -48.1685 H         1 UNK         0.0600 
    181 H181       -4.3559   -9.0970  -47.7062 H         1 UNK         0.0600 
    182 H182       -3.8859  -10.6571  -48.3838 H         1 UNK         0.0600 
    183 H183       -3.9774   -9.2349  -49.4156 H         1 UNK         0.0600 
    184 H184       -2.5080  -10.4178  -46.3732 H         1 UNK         0.3000 
    185 H185        0.5403  -10.4850  -44.8526 H         1 UNK         0.0600 
    186 H186       -0.3194   -9.7297  -42.6554 H         1 UNK         0.0600 
    187 H187       -0.0095   -8.3415  -43.6845 H         1 UNK         0.0600 
    188 H188       -1.6620   -8.8941  -43.4369 H         1 UNK         0.0600 
    189 H189       -1.7754  -11.4064  -43.6410 H         1 UNK         0.3000 
    190 H190       -1.5285  -23.2910  -44.6418 H         1 UNK         0.3000 
    191 H191       -4.1187  -24.3003  -45.1035 H         1 UNK         0.0600 
    192 H192       -4.1193  -24.6638  -42.6062 H         1 UNK         0.0600 
    193 H193       -3.5439  -23.0704  -43.0573 H         1 UNK         0.0600 
    194 H194       -2.3944  -24.3172  -42.5704 H         1 UNK         0.0600 
    195 H195       -1.0653  -26.0618  -44.7065 H         1 UNK         0.3000 
    196 H196       -2.2225  -28.6606  -44.2251 H         1 UNK         0.0600 
    197 H197        0.5256  -27.9221  -45.3604 H         1 UNK         0.0600 
    198 H198        0.1458  -28.0487  -43.6421 H         1 UNK         0.0600 
    199 H199        0.0578  -29.4695  -44.6728 H         1 UNK         0.0600 
    200 H200       -1.8772  -26.6816  -47.0561 H         1 UNK         0.3000 
    201 H201       -2.5181  -28.9061  -48.9328 H         1 UNK         0.0600 
    202 H202       -1.6486  -26.0168  -49.4796 H         1 UNK         0.0600 
    203 H203       -1.8969  -27.2756  -50.6825 H         1 UNK         0.0600 
    204 H204       -0.5815  -27.4175  -49.5296 H         1 UNK         0.0600 
    205 H205       -4.2736  -27.4663  -46.8121 H         1 UNK         0.3000 
    206 H206       -6.3372  -26.7780  -46.4939 H         1 UNK         0.0600 
    207 H207       -6.8824  -28.8622  -47.7816 H         1 UNK         0.0600 
    208 H208       -8.1191  -27.6310  -47.9650 H         1 UNK         0.0600 
    209 H209       -6.9731  -27.9170  -49.2673 H         1 UNK         0.0600 
    210 H210       -4.4478  -24.9131  -47.7467 H         1 UNK         0.3000 
    211 H211       -4.2607  -22.8441  -48.4035 H         1 UNK         0.0600 
    212 H212       -6.0792  -21.2177  -48.2343 H         1 UNK         0.0600 
    213 H213       -6.1565  -22.3076  -46.8610 H         1 UNK         0.0600 
    214 H214       -7.2908  -22.4865  -48.2001 H         1 UNK         0.0600 
    215 H215       -5.2084  -25.1590  -50.3936 H         1 UNK         0.3000 
    216 H216       -6.1007  -23.7297  -52.7263 H         1 UNK         0.0600 
    217 H217       -4.6533  -26.4245  -52.5168 H         1 UNK         0.0600 
    218 H218       -5.5544  -25.8299  -53.9041 H         1 UNK         0.0600 
    219 H219       -6.3986  -26.1988  -52.4070 H         1 UNK         0.0600 
    220 H220       -2.9381  -24.4950  -51.3529 H         1 UNK         0.3000 
    221 H221       -1.3275  -23.5233  -53.5358 H         1 UNK         0.0600 
    222 H222       -0.4222  -25.1104  -51.8844 H         1 UNK         0.0600 
    223 H223       -0.7042  -23.9721  -50.5691 H         1 UNK         0.0600 
    224 H224        0.4956  -23.6144  -51.8050 H         1 UNK         0.0600 
    225 H225       -2.8750  -21.9950  -50.7349 H         1 UNK         0.3000 
    226 H226       -1.4873  -19.4519  -50.9592 H         1 UNK         0.0600 
    227 H227       -4.0348  -20.2579  -49.4475 H         1 UNK         0.0600 
    228 H228       -2.4107  -20.1291  -48.7782 H         1 UNK         0.0600 
    229 H229       -3.2499  -18.6960  -49.3359 H         1 UNK         0.0600 
    230 H230       -4.6494  -20.7708  -52.0051 H         1 UNK         0.3000 
    231 H231       -5.7741  -18.4558  -53.0880 H         1 UNK         0.0600 
    232 H232       -6.1466  -21.3746  -53.9480 H         1 UNK         0.0600 
    233 H233       -7.2538  -20.0558  -54.3083 H         1 UNK         0.0600 
    234 H234       -7.0133  -20.5646  -52.6440 H         1 UNK         0.0600 
    235 H235       -3.1810  -20.3473  -54.4114 H         1 UNK         0.3000 
    236 H236       -3.4342  -19.4626  -57.1671 H         1 UNK         0.0600 
    237 H237       -2.4080  -21.6534  -56.5282 H         1 UNK         0.0600 
    238 H238       -1.2766  -20.6516  -57.4245 H         1 UNK         0.0600 
    239 H239       -1.1153  -20.8049  -55.6802 H         1 UNK         0.0600 
    240 H240       -2.2655  -17.8923  -54.3053 H         1 UNK         0.3000 
    241 H241       -0.8616  -15.8565  -55.9129 H         1 UNK         0.0600 
    242 H242       -2.8702  -14.7673  -52.6101 H         1 UNK         0.3800 
    243 H243       -2.7944  -16.4718  -52.9844 H         1 UNK         0.3800 
    244 H244        1.1173  -15.8829  -54.3413 H         1 UNK         0.0800 
    245 H245        0.9781  -17.2642  -55.3822 H         1 UNK         0.0800 
    246 H246        0.4809  -15.8459  -51.8775 H         1 UNK         0.0800 
    247 H247        2.0622  -16.5887  -51.7687 H         1 UNK         0.0800 
@<TRIPOS>BOND
     1    1    2 1    
     2    1  127 1    
     3    1  128 1    
     4    1  129 1    
     5    2    3 2    
     6    2    4 am   BACKBONE|DICT|INTERRES
     7    4    5 1    
     8    4  130 1    
     9    5    6 1    
    10    5   65 1    
    11    5  131 1    
    12    6    7 1    
    13    6  132 1    
    14    6  133 1    
    15    7    8 1    
    16    8    9 1    
    17    8  134 1    
    18    8  135 1    
    19    9   10 ar   
    20    9   14 ar   
    21   10   11 ar   
    22   10  136 1    
    23   11   12 ar   
    24   11  126 1    
    25   12   13 ar   
    26   12  137 1    
    27   13   14 ar   
    28   13   15 1    
    29   14  138 1    
    30   15   16 1    
    31   15  139 1    
    32   15  140 1    
    33   16   17 1    
    34   17   18 1    
    35   17  141 1    
    36   17  142 1    
    37   18   19 1    
    38   18   67 1    
    39   18  143 1    
    40   19   20 am   BACKBONE|DICT|INTERRES
    41   19  144 1    
    42   20   21 2    
    43   20   22 1    
    44   22   23 1    
    45   22   24 1    
    46   22  145 1    
    47   23  146 1    
    48   23  147 1    
    49   23  148 1    
    50   24   25 am   BACKBONE|DICT|INTERRES
    51   24  149 1    
    52   25   26 2    
    53   25   27 1    
    54   27   28 1    
    55   27   29 1    
    56   27  150 1    
    57   28  151 1    
    58   28  152 1    
    59   28  153 1    
    60   29   30 am   BACKBONE|DICT|INTERRES
    61   29  154 1    
    62   30   31 2    
    63   30   32 1    
    64   32   33 1    
    65   32   34 1    
    66   32  155 1    
    67   33  156 1    
    68   33  157 1    
    69   33  158 1    
    70   34   35 am   BACKBONE|DICT|INTERRES
    71   34  159 1    
    72   35   36 2    
    73   35   37 1    
    74   37   38 1    
    75   37   39 1    
    76   37  160 1    
    77   38  161 1    
    78   38  162 1    
    79   38  163 1    
    80   39   40 am   BACKBONE|DICT|INTERRES
    81   39  164 1    
    82   40   41 2    
    83   40   42 1    
    84   42   43 1    
    85   42   44 1    
    86   42  165 1    
    87   43  166 1    
    88   43  167 1    
    89   43  168 1    
    90   44   45 am   BACKBONE|DICT|INTERRES
    91   44  169 1    
    92   45   46 2    
    93   45   47 1    
    94   47   48 1    
    95   47   49 1    
    96   47  170 1    
    97   48  171 1    
    98   48  172 1    
    99   48  173 1    
   100   49   50 am   BACKBONE|DICT|INTERRES
   101   49  174 1    
   102   50   51 2    
   103   50   52 1    
   104   52   53 1    
   105   52   54 1    
   106   52  175 1    
   107   53  176 1    
   108   53  177 1    
   109   53  178 1    
   110   54   55 am   BACKBONE|DICT|INTERRES
   111   54  179 1    
   112   55   56 2    
   113   55   57 1    
   114   57   58 1    
   115   57   59 1    
   116   57  180 1    
   117   58  181 1    
   118   58  182 1    
   119   58  183 1    
   120   59   60 am   BACKBONE|DICT|INTERRES
   121   59  184 1    
   122   60   61 2    
   123   60   62 1    
   124   62   63 1    
   125   62   64 1    
   126   62  185 1    
   127   63  186 1    
   128   63  187 1    
   129   63  188 1    
   130   64   65 am   BACKBONE|DICT|INTERRES
   131   64  189 1    
   132   65   66 2    
   133   67   68 2    
   134   67   69 am   BACKBONE|DICT|INTERRES
   135   69   70 1    
   136   69  190 1    
   137   70   71 1    
   138   70   72 1    
   139   70  191 1    
   140   71  192 1    
   141   71  193 1    
   142   71  194 1    
   143   72   73 2    
   144   72   74 am   BACKBONE|DICT|INTERRES
   145   74   75 1    
   146   74  195 1    
   147   75   76 1    
   148   75   77 1    
   149   75  196 1    
   150   76  197 1    
   151   76  198 1    
   152   76  199 1    
   153   77   78 2    
   154   77   79 am   BACKBONE|DICT|INTERRES
   155   79   80 1    
   156   79  200 1    
   157   80   81 1    
   158   80   82 1    
   159   80  201 1    
   160   81  202 1    
   161   81  203 1    
   162   81  204 1    
   163   82   83 2    
   164   82   84 am   BACKBONE|DICT|INTERRES
   165   84   85 1    
   166   84  205 1    
   167   85   86 1    
   168   85   87 1    
   169   85  206 1    
   170   86  207 1    
   171   86  208 1    
   172   86  209 1    
   173   87   88 2    
   174   87   89 am   BACKBONE|DICT|INTERRES
   175   89   90 1    
   176   89  210 1    
   177   90   91 1    
   178   90   92 1    
   179   90  211 1    
   180   91  212 1    
   181   91  213 1    
   182   91  214 1    
   183   92   93 2    
   184   92   94 am   BACKBONE|DICT|INTERRES
   185   94   95 1    
   186   94  215 1    
   187   95   96 1    
   188   95   97 1    
   189   95  216 1    
   190   96  217 1    
   191   96  218 1    
   192   96  219 1    
   193   97   98 2    
   194   97   99 am   BACKBONE|DICT|INTERRES
   195   99  100 1    
   196   99  220 1    
   197  100  101 1    
   198  100  102 1    
   199  100  221 1    
   200  101  222 1    
   201  101  223 1    
   202  101  224 1    
   203  102  103 2    
   204  102  104 am   BACKBONE|DICT|INTERRES
   205  104  105 1    
   206  104  225 1    
   207  105  106 1    
   208  105  107 1    
   209  105  226 1    
   210  106  227 1    
   211  106  228 1    
   212  106  229 1    
   213  107  108 2    
   214  107  109 am   BACKBONE|DICT|INTERRES
   215  109  110 1    
   216  109  230 1    
   217  110  111 1    
   218  110  112 1    
   219  110  231 1    
   220  111  232 1    
   221  111  233 1    
   222  111  234 1    
   223  112  113 2    
   224  112  114 am   BACKBONE|DICT|INTERRES
   225  114  115 1    
   226  114  235 1    
   227  115  116 1    
   228  115  117 1    
   229  115  236 1    
   230  116  237 1    
   231  116  238 1    
   232  116  239 1    
   233  117  118 2    
   234  117  119 am   BACKBONE|DICT|INTERRES
   235  119  120 1    
   236  119  240 1    
   237  120  121 1    
   238  120  124 1    
   239  120  241 1    
   240  121  122 am   BACKBONE|DICT|INTERRES
   241  121  123 2    
   242  122  242 1    
   243  122  243 1    
   244  124  125 1    
   245  124  244 1    
   246  124  245 1    
   247  125  126 1    
   248  126  246 1    
   249  126  247 1    
@<TRIPOS>SUBSTRUCTURE
     1 UNK         1 GROUP             0       ****    0 ROOT    
