@<TRIPOS>MOLECULE
3R540
247   249    1
SMALL
USER_CHARGES


@<TRIPOS>ATOM
      1 CA          2.4755  -11.4023  -52.7339 C.3       0 UNK        -0.1800 
      2 C           2.1577  -12.5504  -51.7861 C.2       0 UNK         0.5000 
      3 O           3.0016  -13.4216  -51.5754 O.2       0 UNK        -0.5000 
      4 N           0.9439  -12.5578  -51.2211 N.am      1 UNK        -0.5000 
      5 CA          0.4826  -13.5425  -50.2408 C.3       1 UNK         0.1400 
      6 C6         -1.0634  -13.5285  -50.1301 C.3       23 UNK        -0.0398 
      7 S7         -1.7712  -14.7201  -48.9396 S.3       23 UNK        -0.2404 
      8 C8         -1.9816  -16.2129  -49.9546 C.3       23 UNK        -0.0205 
      9 C9         -0.6580  -16.9248  -50.1764 C.ar      23 UNK        -0.0193 
     10 C10        -0.0550  -16.9170  -51.4355 C.ar      23 UNK        -0.1150 
     11 C11         1.1754  -17.5475  -51.6384 C.ar      23 UNK        -0.0193 
     12 C12         1.8069  -18.1833  -50.5664 C.ar      23 UNK        -0.1150 
     13 C13         1.2041  -18.2126  -49.3063 C.ar      23 UNK        -0.0193 
     14 C14        -0.0294  -17.5843  -49.1174 C.ar      23 UNK        -0.1150 
     15 C15         1.8851  -18.9255  -48.1509 C.3       23 UNK        -0.0205 
     16 S16         1.6700  -20.7274  -48.2522 S.3       23 UNK        -0.2404 
     17 C17        -0.1255  -20.8714  -47.9730 C.3       23 UNK        -0.0398 
     18 CA         -0.5284  -22.2751  -47.4718 C.3       11 UNK         0.1400 
     19 N           0.1335  -22.6324  -46.2127 N.am      11 UNK        -0.5000 
     20 C           0.2005  -23.8793  -45.7239 C.2       10 UNK         0.5000 
     21 O          -0.2930  -24.8551  -46.2855 O.2       10 UNK        -0.5000 
     22 CA          0.8785  -24.0658  -44.3526 C.3       10 UNK         0.1400 
     23 CB          2.3864  -24.2956  -44.5285 C.3       10 UNK        -0.1800 
     24 N           0.6673  -22.9387  -43.4447 N.am      10 UNK        -0.5000 
     25 C          -0.5254  -22.4611  -43.0618 C.2       9 UNK         0.5000 
     26 O          -1.5961  -22.9844  -43.3709 O.2       9 UNK        -0.5000 
     27 CA         -0.5287  -21.1507  -42.2512 C.3       9 UNK         0.1400 
     28 CB         -0.7810  -21.4380  -40.7643 C.3       9 UNK        -0.1800 
     29 N           0.7023  -20.3651  -42.3827 N.am      9 UNK        -0.5000 
     30 C           1.1775  -19.8182  -43.5096 C.2       8 UNK         0.5000 
     31 O           0.6221  -19.9336  -44.6042 O.2       8 UNK        -0.5000 
     32 CA          2.5030  -19.0369  -43.3784 C.3       8 UNK         0.1400 
     33 CB          2.9104  -18.3279  -44.6808 C.3       8 UNK        -0.1800 
     34 N           2.4743  -18.0462  -42.3015 N.am      8 UNK        -0.5000 
     35 C           2.6138  -18.2883  -40.9901 C.2       7 UNK         0.5000 
     36 O           2.7035  -19.4238  -40.5195 O.2       7 UNK        -0.5000 
     37 CA          2.6341  -17.0549  -40.0612 C.3       7 UNK         0.1400 
     38 CB          3.3986  -17.3019  -38.7441 C.3       7 UNK        -0.1800 
     39 N           3.1087  -15.8421  -40.7407 N.am      7 UNK        -0.5000 
     40 C           4.3315  -15.6137  -41.2485 C.2       6 UNK         0.5000 
     41 O           5.2802  -16.3871  -41.1127 O.2       6 UNK        -0.5000 
     42 CA          4.5268  -14.3388  -42.0963 C.3       6 UNK         0.1400 
     43 CB          5.0581  -14.7010  -43.4925 C.3       6 UNK        -0.1800 
     44 N           3.2970  -13.5580  -42.2565 N.am      6 UNK        -0.5000 
     45 C           2.8692  -12.6328  -41.3893 C.2       5 UNK         0.5000 
     46 O           3.4751  -12.3280  -40.3613 O.2       5 UNK        -0.5000 
     47 CA          1.5270  -11.9471  -41.7075 C.3       5 UNK         0.1400 
     48 CB          1.7389  -10.7977  -42.7049 C.3       5 UNK        -0.1800 
     49 N           0.4741  -12.8316  -42.2193 N.am      5 UNK        -0.5000 
     50 C           0.0128  -13.9498  -41.6385 C.2       4 UNK         0.5000 
     51 O           0.5267  -14.4641  -40.6465 O.2       4 UNK        -0.5000 
     52 CA         -1.2477  -14.6010  -42.2477 C.3       4 UNK         0.1400 
     53 CB         -2.4245  -14.4866  -41.2661 C.3       4 UNK        -0.1800 
     54 N          -1.6461  -13.9765  -43.5131 N.am      4 UNK        -0.5000 
     55 C          -1.2213  -14.2657  -44.7504 C.2       3 UNK         0.5000 
     56 O          -1.5665  -13.5735  -45.7067 O.2       3 UNK        -0.5000 
     57 CA         -0.3226  -15.4979  -45.0012 C.3       3 UNK         0.1400 
     58 CB         -1.1701  -16.7234  -45.3775 C.3       3 UNK        -0.1800 
     59 N           0.6289  -15.2317  -46.0752 N.am      3 UNK        -0.5000 
     60 C           1.7623  -14.5394  -45.9092 C.2       2 UNK         0.5000 
     61 O           2.1286  -14.0933  -44.8208 O.2       2 UNK        -0.5000 
     62 CA          2.6441  -14.3292  -47.1530 C.3       2 UNK         0.1400 
     63 CB          3.7330  -15.4105  -47.2227 C.3       2 UNK        -0.1800 
     64 N           1.8815  -14.3564  -48.4014 N.am      2 UNK        -0.5000 
     65 C           1.1951  -13.3162  -48.8907 C.2       1 UNK         0.5000 
     66 O           1.1248  -12.2148  -48.3401 O.2       1 UNK        -0.5000 
     67 C          -2.0629  -22.3822  -47.3706 C.2       11 UNK         0.5000 
     68 O          -2.7133  -22.6737  -48.3749 O.2       11 UNK        -0.5000 
     69 N          -2.6179  -22.1593  -46.1714 N.am      12 UNK        -0.5000 
     70 CA         -4.0373  -22.3520  -45.8813 C.3       12 UNK         0.1400 
     71 CB         -4.4414  -21.5113  -44.6610 C.3       12 UNK        -0.1800 
     72 C          -4.3610  -23.8401  -45.6717 C.2       12 UNK         0.5000 
     73 O          -5.3774  -24.3108  -46.1801 O.2       12 UNK        -0.5000 
     74 N          -3.4709  -24.5637  -44.9762 N.am      13 UNK        -0.5000 
     75 CA         -3.5673  -26.0064  -44.7353 C.3       13 UNK         0.1400 
     76 CB         -2.4779  -26.4334  -43.7406 C.3       13 UNK        -0.1800 
     77 C          -3.4836  -26.8396  -46.0294 C.2       13 UNK         0.5000 
     78 O          -4.2530  -27.7866  -46.1946 O.2       13 UNK        -0.5000 
     79 N          -2.5821  -26.4462  -46.9402 N.am      14 UNK        -0.5000 
     80 CA         -2.4371  -27.0182  -48.2823 C.3       14 UNK         0.1400 
     81 CB         -1.0465  -26.6542  -48.8273 C.3       14 UNK        -0.1800 
     82 C          -3.5287  -26.5509  -49.2674 C.2       14 UNK         0.5000 
     83 O          -3.6200  -27.0999  -50.3655 O.2       14 UNK        -0.5000 
     84 N          -4.3089  -25.5342  -48.8713 N.am      15 UNK        -0.5000 
     85 CA         -5.3807  -24.8652  -49.6147 C.3       15 UNK         0.1400 
     86 CB         -6.5143  -25.8469  -49.9752 C.3       15 UNK        -0.1800 
     87 C          -4.8969  -24.0528  -50.8328 C.2       15 UNK         0.5000 
     88 O          -5.7243  -23.6223  -51.6340 O.2       15 UNK        -0.5000 
     89 N          -3.5865  -23.7957  -50.9334 N.am      16 UNK        -0.5000 
     90 CA         -2.9688  -22.9802  -51.9804 C.3       16 UNK         0.1400 
     91 CB         -1.4457  -23.1579  -51.9236 C.3       16 UNK        -0.1800 
     92 C          -3.3448  -21.4911  -51.8745 C.2       16 UNK         0.5000 
     93 O          -3.4482  -20.8087  -52.8982 O.2       16 UNK        -0.5000 
     94 N          -3.5642  -21.0242  -50.6392 N.am      17 UNK        -0.5000 
     95 CA         -4.1140  -19.7057  -50.3368 C.3       17 UNK         0.1400 
     96 CB         -3.8257  -19.3680  -48.8651 C.3       17 UNK        -0.1800 
     97 C          -5.6275  -19.6430  -50.6154 C.2       17 UNK         0.5000 
     98 O          -6.1069  -18.6484  -51.1579 O.2       17 UNK        -0.5000 
     99 N          -6.3460  -20.7089  -50.2346 N.am      18 UNK        -0.5000 
    100 CA        -7.8055  -20.8053  -50.2973 C.3       18 UNK         0.1400 
    101 CB        -8.2743  -21.9666  -49.4063 C.3       18 UNK        -0.1800 
    102 C         -8.3415  -20.9666  -51.7302 C.2       18 UNK         0.5000 
    103 O         -9.2916  -20.2791  -52.1054 O.2       18 UNK        -0.5000 
    104 N         -7.7168  -21.8605  -52.5079 N.am      19 UNK        -0.5000 
    105 CA        -8.0613  -22.1364  -53.9052 C.3       19 UNK         0.1400 
    106 CB        -7.5805  -23.5519  -54.2645 C.3       19 UNK        -0.1800 
    107 C         -7.4664  -21.1068  -54.8849 C.2       19 UNK         0.5000 
    108 O         -7.8133  -21.1335  -56.0663 O.2       19 UNK        -0.5000 
    109 N         -6.5714  -20.2416  -54.3844 N.am      20 UNK        -0.5000 
    110 CA        -5.8197  -19.2151  -55.1111 C.3       20 UNK         0.1400 
    111 CB        -6.7605  -18.1421  -55.6977 C.3       20 UNK        -0.1800 
    112 C         -4.8419  -19.8040  -56.1506 C.2       20 UNK         0.5000 
    113 O         -4.5686  -19.1697  -57.1712 O.2       20 UNK        -0.5000 
    114 N         -4.3108  -21.0018  -55.8598 N.am      21 UNK        -0.5000 
    115 CA        -3.2331  -21.6383  -56.6220 C.3       21 UNK         0.1400 
    116 CB        -3.1133  -23.1139  -56.2132 C.3       21 UNK        -0.1800 
    117 C         -1.8976  -20.8986  -56.4186 C.2       21 UNK         0.5000 
    118 O         -1.1363  -20.7349  -57.3727 O.2       21 UNK        -0.5000 
    119 N         -1.6811  -20.4227  -55.1871 N.am      22 UNK        -0.5000 
    120 CA        -0.7061  -19.3840  -54.8386 C.3       22 UNK         0.1400 
    121 C         -1.4504  -18.0637  -54.5047 C.2       22 UNK         0.5000 
    122 N         -2.5360  -18.1076  -53.7366 N.am      22 UNK        -0.7600 
    123 O         -1.0593  -16.9945  -54.9627 O.2       22 UNK        -0.5000 
    124 C124        0.2104  -19.8295  -53.6685 C.3       23 UNK        -0.0398 
    125 S125        1.9178  -19.1875  -53.7826 S.3       23 UNK        -0.2404 
    126 C126        1.8208  -17.5339  -53.0157 C.3       23 UNK        -0.0205 
    127 H127        2.7156  -11.7891  -53.7243 H         1 UNK         0.0600 
    128 H128        3.3354  -10.8413  -52.3680 H         1 UNK         0.0600 
    129 H129        1.6365  -10.7129  -52.8324 H         1 UNK         0.0600 
    130 H130        0.3089  -11.7957  -51.4105 H         1 UNK         0.3000 
    131 H131        0.7789  -14.5216  -50.6154 H         1 UNK         0.0600 
    132 H132       -1.4040  -12.5350  -49.8336 H         1 UNK         0.0800 
    133 H133       -1.5051  -13.7124  -51.1103 H         1 UNK         0.0800 
    134 H134       -2.4609  -15.9588  -50.9012 H         1 UNK         0.0800 
    135 H135       -2.6650  -16.8839  -49.4380 H         1 UNK         0.0800 
    136 H136       -0.5395  -16.4073  -52.2560 H         1 UNK         0.1150 
    137 H137        2.7584  -18.6734  -50.7187 H         1 UNK         0.1150 
    138 H138       -0.5010  -17.6028  -48.1457 H         1 UNK         0.1150 
    139 H139        1.4930  -18.5661  -47.1991 H         1 UNK         0.0800 
    140 H140        2.9514  -18.6960  -48.1556 H         1 UNK         0.0800 
    141 H141       -0.6254  -20.6404  -48.9160 H         1 UNK         0.0800 
    142 H142       -0.4386  -20.1089  -47.2570 H         1 UNK         0.0800 
    143 H143       -0.2145  -22.9986  -48.2277 H         1 UNK         0.0600 
    144 H144        0.5385  -21.8671  -45.6865 H         1 UNK         0.3000 
    145 H145        0.4486  -24.9525  -43.8843 H         1 UNK         0.0600 
    146 H146        2.5773  -25.1463  -45.1843 H         1 UNK         0.0600 
    147 H147        2.8679  -24.5088  -43.5739 H         1 UNK         0.0600 
    148 H148        2.8778  -23.4261  -44.9672 H         1 UNK         0.0600 
    149 H149        1.4917  -22.4457  -43.1367 H         1 UNK         0.3000 
    150 H150       -1.3526  -20.5416  -42.6287 H         1 UNK         0.0600 
    151 H151        0.0283  -22.0230  -40.3255 H         1 UNK         0.0600 
    152 H152       -1.7061  -21.9991  -40.6250 H         1 UNK         0.0600 
    153 H153       -0.8740  -20.5133  -40.1943 H         1 UNK         0.0600 
    154 H154        1.2474  -20.2244  -41.5370 H         1 UNK         0.3000 
    155 H155        3.2794  -19.7696  -43.1486 H         1 UNK         0.0600 
    156 H156        3.8532  -17.7937  -44.5632 H         1 UNK         0.0600 
    157 H157        2.1554  -17.6107  -45.0038 H         1 UNK         0.0600 
    158 H158        3.0536  -19.0518  -45.4831 H         1 UNK         0.0600 
    159 H159        2.3840  -17.0837  -42.5880 H         1 UNK         0.3000 
    160 H160        1.5927  -16.8644  -39.7993 H         1 UNK         0.0600 
    161 H161        4.4330  -17.5970  -38.9210 H         1 UNK         0.0600 
    162 H162        2.9293  -18.0979  -38.1650 H         1 UNK         0.0600 
    163 H163        3.4054  -16.4088  -38.1193 H         1 UNK         0.0600 
    164 H164        2.3968  -15.1308  -40.8736 H         1 UNK         0.3000 
    165 H165        5.2812  -13.7268  -41.5978 H         1 UNK         0.0600 
    166 H166        5.1585  -13.8170  -44.1226 H         1 UNK         0.0600 
    167 H167        6.0411  -15.1693  -43.4309 H         1 UNK         0.0600 
    168 H168        4.3937  -15.4017  -43.9976 H         1 UNK         0.0600 
    169 H169        2.7564  -13.7318  -43.1020 H         1 UNK         0.3000 
    170 H170        1.1562  -11.5197  -40.7738 H         1 UNK         0.0600 
    171 H171        0.8246  -10.2202  -42.8430 H         1 UNK         0.0600 
    172 H172        2.0534  -11.1681  -43.6817 H         1 UNK         0.0600 
    173 H173        2.5067  -10.1079  -42.3518 H         1 UNK         0.0600 
    174 H174       -0.0009  -12.5106  -43.0499 H         1 UNK         0.3000 
    175 H175       -1.0520  -15.6649  -42.3848 H         1 UNK         0.0600 
    176 H176       -2.1924  -14.9699  -40.3160 H         1 UNK         0.0600 
    177 H177       -2.6733  -13.4463  -41.0524 H         1 UNK         0.0600 
    178 H178       -3.3174  -14.9702  -41.6631 H         1 UNK         0.0600 
    179 H179       -2.2709  -13.1897  -43.4138 H         1 UNK         0.3000 
    180 H180        0.2574  -15.7439  -44.1120 H         1 UNK         0.0600 
    181 H181       -1.7737  -16.5383  -46.2669 H         1 UNK         0.0600 
    182 H182       -1.8518  -16.9895  -44.5689 H         1 UNK         0.0600 
    183 H183       -0.5433  -17.5940  -45.5714 H         1 UNK         0.0600 
    184 H184        0.3450  -15.4812  -47.0104 H         1 UNK         0.3000 
    185 H185        3.1339  -13.3581  -47.0546 H         1 UNK         0.0600 
    186 H186        4.3687  -15.2752  -48.0979 H         1 UNK         0.0600 
    187 H187        4.3806  -15.3721  -46.3474 H         1 UNK         0.0600 
    188 H188        3.3048  -16.4118  -47.2703 H         1 UNK         0.0600 
    189 H189        1.9104  -15.2169  -48.9297 H         1 UNK         0.3000 
    190 H190       -2.0158  -21.9717  -45.3817 H         1 UNK         0.3000 
    191 H191       -4.6241  -22.0022  -46.7332 H         1 UNK         0.0600 
    192 H192       -4.2298  -20.4544  -44.8246 H         1 UNK         0.0600 
    193 H193       -5.5105  -21.6022  -44.4656 H         1 UNK         0.0600 
    194 H194       -3.9180  -21.8218  -43.7570 H         1 UNK         0.0600 
    195 H195       -2.6879  -24.0809  -44.5453 H         1 UNK         0.3000 
    196 H196       -4.5394  -26.1998  -44.2771 H         1 UNK         0.0600 
    197 H197       -2.5820  -27.4870  -43.4788 H         1 UNK         0.0600 
    198 H198       -2.5384  -25.8594  -42.8157 H         1 UNK         0.0600 
    199 H199       -1.4798  -26.2975  -44.1557 H         1 UNK         0.0600 
    200 H200       -1.9242  -25.7104  -46.6935 H         1 UNK         0.3000 
    201 H201       -2.5032  -28.1056  -48.2086 H         1 UNK         0.0600 
    202 H202       -0.8780  -27.1012  -49.8078 H         1 UNK         0.0600 
    203 H203       -0.2576  -27.0153  -48.1673 H         1 UNK         0.0600 
    204 H204       -0.9267  -25.5751  -48.9331 H         1 UNK         0.0600 
    205 H205       -4.1518  -25.1708  -47.9409 H         1 UNK         0.3000 
    206 H206       -5.7973  -24.1313  -48.9242 H         1 UNK         0.0600 
    207 H207       -6.8554  -26.3935  -49.0959 H         1 UNK         0.0600 
    208 H208       -7.3775  -25.3189  -50.3817 H         1 UNK         0.0600 
    209 H209       -6.2002  -26.5745  -50.7237 H         1 UNK         0.0600 
    210 H210       -2.9872  -24.1036  -50.1806 H         1 UNK         0.3000 
    211 H211       -3.3281  -23.3470  -52.9425 H         1 UNK         0.0600 
    212 H212       -1.0289  -22.7807  -50.9885 H         1 UNK         0.0600 
    213 H213       -0.9625  -22.6242  -52.7415 H         1 UNK         0.0600 
    214 H214       -1.1676  -24.2080  -52.0153 H         1 UNK         0.0600 
    215 H215       -3.3989  -21.6492  -49.8551 H         1 UNK         0.3000 
    216 H216       -3.6197  -18.9605  -50.9637 H         1 UNK         0.0600 
    217 H217       -4.2631  -18.4079  -48.5888 H         1 UNK         0.0600 
    218 H218       -2.7541  -19.3055  -48.6774 H         1 UNK         0.0600 
    219 H219       -4.2400  -20.1164  -48.1899 H         1 UNK         0.0600 
    220 H220       -5.8585  -21.4932  -49.8321 H         1 UNK         0.3000 
    221 H221       -8.2217  -19.8813  -49.8899 H         1 UNK         0.0600 
    222 H222       -7.8952  -22.9257  -49.7590 H         1 UNK         0.0600 
    223 H223       -7.9451  -21.8332  -48.3755 H         1 UNK         0.0600 
    224 H224       -9.3630  -22.0314  -49.3931 H         1 UNK         0.0600 
    225 H225       -6.9559  -22.4169  -52.1197 H         1 UNK         0.3000 
    226 H226       -9.1474  -22.1078  -54.0149 H         1 UNK         0.0600 
    227 H227       -7.9003  -23.8310  -55.2692 H         1 UNK         0.0600 
    228 H228       -6.4927  -23.6270  -54.2352 H         1 UNK         0.0600 
    229 H229       -7.9860  -24.2940  -53.5765 H         1 UNK         0.0600 
    230 H230       -6.3688  -20.3114  -53.3973 H         1 UNK         0.3000 
    231 H231       -5.1989  -18.7225  -54.3626 H         1 UNK         0.0600 
    232 H232       -7.3669  -18.5342  -56.5145 H         1 UNK         0.0600 
    233 H233       -6.1922  -17.2982  -56.0904 H         1 UNK         0.0600 
    234 H234       -7.4346  -17.7508  -54.9357 H         1 UNK         0.0600 
    235 H235       -4.5755  -21.4368  -54.9879 H         1 UNK         0.3000 
    236 H236       -3.4893  -21.5959  -57.6828 H         1 UNK         0.0600 
    237 H237       -2.7974  -23.2220  -55.1764 H         1 UNK         0.0600 
    238 H238       -4.0619  -23.6373  -56.3343 H         1 UNK         0.0600 
    239 H239       -2.3766  -23.6273  -56.8322 H         1 UNK         0.0600 
    240 H240       -2.3854  -20.6079  -54.4811 H         1 UNK         0.3000 
    241 H241       -0.0770  -19.1828  -55.7079 H         1 UNK         0.0600 
    242 H242       -3.0218  -17.2486  -53.5373 H         1 UNK         0.3800 
    243 H243       -2.8708  -18.9802  -53.3466 H         1 UNK         0.3800 
    244 H244        0.3207  -20.9135  -53.6950 H         1 UNK         0.0800 
    245 H245       -0.2271  -19.6167  -52.6918 H         1 UNK         0.0800 
    246 H246        2.8302  -17.1301  -52.9272 H         1 UNK         0.0800 
    247 H247        1.2885  -16.8592  -53.6868 H         1 UNK         0.0800 
@<TRIPOS>BOND
     1    1    2 1    
     2    1  127 1    
     3    1  128 1    
     4    1  129 1    
     5    2    3 2    
     6    2    4 am   BACKBONE|DICT|INTERRES
     7    4    5 1    
     8    4  130 1    
     9    5    6 1    
    10    5   65 1    
    11    5  131 1    
    12    6    7 1    
    13    6  132 1    
    14    6  133 1    
    15    7    8 1    
    16    8    9 1    
    17    8  134 1    
    18    8  135 1    
    19    9   10 ar   
    20    9   14 ar   
    21   10   11 ar   
    22   10  136 1    
    23   11   12 ar   
    24   11  126 1    
    25   12   13 ar   
    26   12  137 1    
    27   13   14 ar   
    28   13   15 1    
    29   14  138 1    
    30   15   16 1    
    31   15  139 1    
    32   15  140 1    
    33   16   17 1    
    34   17   18 1    
    35   17  141 1    
    36   17  142 1    
    37   18   19 1    
    38   18   67 1    
    39   18  143 1    
    40   19   20 am   BACKBONE|DICT|INTERRES
    41   19  144 1    
    42   20   21 2    
    43   20   22 1    
    44   22   23 1    
    45   22   24 1    
    46   22  145 1    
    47   23  146 1    
    48   23  147 1    
    49   23  148 1    
    50   24   25 am   BACKBONE|DICT|INTERRES
    51   24  149 1    
    52   25   26 2    
    53   25   27 1    
    54   27   28 1    
    55   27   29 1    
    56   27  150 1    
    57   28  151 1    
    58   28  152 1    
    59   28  153 1    
    60   29   30 am   BACKBONE|DICT|INTERRES
    61   29  154 1    
    62   30   31 2    
    63   30   32 1    
    64   32   33 1    
    65   32   34 1    
    66   32  155 1    
    67   33  156 1    
    68   33  157 1    
    69   33  158 1    
    70   34   35 am   BACKBONE|DICT|INTERRES
    71   34  159 1    
    72   35   36 2    
    73   35   37 1    
    74   37   38 1    
    75   37   39 1    
    76   37  160 1    
    77   38  161 1    
    78   38  162 1    
    79   38  163 1    
    80   39   40 am   BACKBONE|DICT|INTERRES
    81   39  164 1    
    82   40   41 2    
    83   40   42 1    
    84   42   43 1    
    85   42   44 1    
    86   42  165 1    
    87   43  166 1    
    88   43  167 1    
    89   43  168 1    
    90   44   45 am   BACKBONE|DICT|INTERRES
    91   44  169 1    
    92   45   46 2    
    93   45   47 1    
    94   47   48 1    
    95   47   49 1    
    96   47  170 1    
    97   48  171 1    
    98   48  172 1    
    99   48  173 1    
   100   49   50 am   BACKBONE|DICT|INTERRES
   101   49  174 1    
   102   50   51 2    
   103   50   52 1    
   104   52   53 1    
   105   52   54 1    
   106   52  175 1    
   107   53  176 1    
   108   53  177 1    
   109   53  178 1    
   110   54   55 am   BACKBONE|DICT|INTERRES
   111   54  179 1    
   112   55   56 2    
   113   55   57 1    
   114   57   58 1    
   115   57   59 1    
   116   57  180 1    
   117   58  181 1    
   118   58  182 1    
   119   58  183 1    
   120   59   60 am   BACKBONE|DICT|INTERRES
   121   59  184 1    
   122   60   61 2    
   123   60   62 1    
   124   62   63 1    
   125   62   64 1    
   126   62  185 1    
   127   63  186 1    
   128   63  187 1    
   129   63  188 1    
   130   64   65 am   BACKBONE|DICT|INTERRES
   131   64  189 1    
   132   65   66 2    
   133   67   68 2    
   134   67   69 am   BACKBONE|DICT|INTERRES
   135   69   70 1    
   136   69  190 1    
   137   70   71 1    
   138   70   72 1    
   139   70  191 1    
   140   71  192 1    
   141   71  193 1    
   142   71  194 1    
   143   72   73 2    
   144   72   74 am   BACKBONE|DICT|INTERRES
   145   74   75 1    
   146   74  195 1    
   147   75   76 1    
   148   75   77 1    
   149   75  196 1    
   150   76  197 1    
   151   76  198 1    
   152   76  199 1    
   153   77   78 2    
   154   77   79 am   BACKBONE|DICT|INTERRES
   155   79   80 1    
   156   79  200 1    
   157   80   81 1    
   158   80   82 1    
   159   80  201 1    
   160   81  202 1    
   161   81  203 1    
   162   81  204 1    
   163   82   83 2    
   164   82   84 am   BACKBONE|DICT|INTERRES
   165   84   85 1    
   166   84  205 1    
   167   85   86 1    
   168   85   87 1    
   169   85  206 1    
   170   86  207 1    
   171   86  208 1    
   172   86  209 1    
   173   87   88 2    
   174   87   89 am   BACKBONE|DICT|INTERRES
   175   89   90 1    
   176   89  210 1    
   177   90   91 1    
   178   90   92 1    
   179   90  211 1    
   180   91  212 1    
   181   91  213 1    
   182   91  214 1    
   183   92   93 2    
   184   92   94 am   BACKBONE|DICT|INTERRES
   185   94   95 1    
   186   94  215 1    
   187   95   96 1    
   188   95   97 1    
   189   95  216 1    
   190   96  217 1    
   191   96  218 1    
   192   96  219 1    
   193   97   98 2    
   194   97   99 am   BACKBONE|DICT|INTERRES
   195   99  100 1    
   196   99  220 1    
   197  100  101 1    
   198  100  102 1    
   199  100  221 1    
   200  101  222 1    
   201  101  223 1    
   202  101  224 1    
   203  102  103 2    
   204  102  104 am   BACKBONE|DICT|INTERRES
   205  104  105 1    
   206  104  225 1    
   207  105  106 1    
   208  105  107 1    
   209  105  226 1    
   210  106  227 1    
   211  106  228 1    
   212  106  229 1    
   213  107  108 2    
   214  107  109 am   BACKBONE|DICT|INTERRES
   215  109  110 1    
   216  109  230 1    
   217  110  111 1    
   218  110  112 1    
   219  110  231 1    
   220  111  232 1    
   221  111  233 1    
   222  111  234 1    
   223  112  113 2    
   224  112  114 am   BACKBONE|DICT|INTERRES
   225  114  115 1    
   226  114  235 1    
   227  115  116 1    
   228  115  117 1    
   229  115  236 1    
   230  116  237 1    
   231  116  238 1    
   232  116  239 1    
   233  117  118 2    
   234  117  119 am   BACKBONE|DICT|INTERRES
   235  119  120 1    
   236  119  240 1    
   237  120  121 1    
   238  120  124 1    
   239  120  241 1    
   240  121  122 am   BACKBONE|DICT|INTERRES
   241  121  123 2    
   242  122  242 1    
   243  122  243 1    
   244  124  125 1    
   245  124  244 1    
   246  124  245 1    
   247  125  126 1    
   248  126  246 1    
   249  126  247 1    
@<TRIPOS>SUBSTRUCTURE
     1 UNK         1 GROUP             0       ****    0 ROOT    
