@<TRIPOS>MOLECULE
3R540
247   249    1
SMALL
USER_CHARGES


@<TRIPOS>ATOM
      1 CA         -1.5546   -9.0233  -45.5216 C.3       0 UNK        -0.1800 
      2 C          -1.2152   -9.8802  -46.7334 C.2       0 UNK         0.5000 
      3 O          -1.3012   -9.4027  -47.8653 O.2       0 UNK        -0.5000 
      4 N          -0.8387  -11.1436  -46.5000 N.am      1 UNK        -0.5000 
      5 CA         -0.4074  -12.0947  -47.5302 C.3       1 UNK         0.1400 
      6 C6         -0.4878  -13.5538  -47.0120 C.3       23 UNK        -0.0398 
      7 S7         -0.9853  -14.7362  -48.3108 S.3       23 UNK        -0.2404 
      8 C8          0.4625  -15.8476  -48.4142 C.3       23 UNK        -0.0205 
      9 C9          0.2787  -17.0324  -49.3644 C.ar      23 UNK        -0.0193 
     10 C10        -0.5125  -16.9331  -50.5169 C.ar      23 UNK        -0.1150 
     11 C11        -0.6416  -18.0125  -51.3942 C.ar      23 UNK        -0.0193 
     12 C12         0.0393  -19.1994  -51.1220 C.ar      23 UNK        -0.1150 
     13 C13         0.8339  -19.3205  -49.9813 C.ar      23 UNK        -0.0193 
     14 C14         0.9475  -18.2357  -49.1036 C.ar      23 UNK        -0.1150 
     15 C15         1.5793  -20.6231  -49.7260 C.3       23 UNK        -0.0205 
     16 S16         0.4498  -21.9783  -49.2698 S.3       23 UNK        -0.2404 
     17 C17        -0.0144  -21.4752  -47.5821 C.3       23 UNK        -0.0398 
     18 CA         -0.4264  -22.6720  -46.6906 C.3       11 UNK         0.1400 
     19 N          -0.1449  -22.4172  -45.2744 N.am      11 UNK        -0.5000 
     20 C          -0.2544  -23.3136  -44.2845 C.2       10 UNK         0.5000 
     21 O          -0.6293  -24.4725  -44.4542 O.2       10 UNK        -0.5000 
     22 CA          0.0598  -22.8211  -42.8602 C.3       10 UNK         0.1400 
     23 CB          1.5741  -22.6995  -42.6344 C.3       10 UNK        -0.1800 
     24 N          -0.5906  -21.5449  -42.5661 N.am      10 UNK        -0.5000 
     25 C          -1.9177  -21.3872  -42.4590 C.2       9 UNK         0.5000 
     26 O          -2.7238  -22.3169  -42.5152 O.2       9 UNK        -0.5000 
     27 CA         -2.4345  -19.9438  -42.3124 C.3       9 UNK         0.1400 
     28 CB         -2.3577  -19.4783  -40.8508 C.3       9 UNK        -0.1800 
     29 N          -1.7196  -18.9942  -43.1669 N.am      9 UNK        -0.5000 
     30 C          -1.6952  -19.0449  -44.5068 C.2       8 UNK         0.5000 
     31 O          -2.2947  -19.8851  -45.1744 O.2       8 UNK        -0.5000 
     32 CA         -0.8137  -18.0099  -45.2212 C.3       8 UNK         0.1400 
     33 CB         -1.5206  -16.6489  -45.2468 C.3       8 UNK        -0.1800 
     34 N           0.5045  -17.8721  -44.6001 N.am      8 UNK        -0.5000 
     35 C           1.4020  -18.8602  -44.4741 C.2       7 UNK         0.5000 
     36 O           1.2331  -19.9951  -44.9111 O.2       7 UNK        -0.5000 
     37 CA          2.6758  -18.5521  -43.6720 C.3       7 UNK         0.1400 
     38 CB          3.7169  -17.8295  -44.5383 C.3       7 UNK        -0.1800 
     39 N           2.3833  -17.7632  -42.4774 N.am      7 UNK        -0.5000 
     40 C           1.6928  -18.2202  -41.4227 C.2       6 UNK         0.5000 
     41 O           1.2807  -19.3764  -41.3209 O.2       6 UNK        -0.5000 
     42 CA          1.3731  -17.1931  -40.3213 C.3       6 UNK         0.1400 
     43 CB          2.5499  -17.0619  -39.3431 C.3       6 UNK        -0.1800 
     44 N           1.0484  -15.8749  -40.8718 N.am      6 UNK        -0.5000 
     45 C          -0.0579  -15.6075  -41.5804 C.2       5 UNK         0.5000 
     46 O          -0.9415  -16.4360  -41.8009 O.2       5 UNK        -0.5000 
     47 CA         -0.1669  -14.1932  -42.1843 C.3       5 UNK         0.1400 
     48 CB         -0.7626  -13.2114  -41.1649 C.3       5 UNK        -0.1800 
     49 N           1.1173  -13.6747  -42.6706 N.am      5 UNK        -0.5000 
     50 C           1.7956  -14.2055  -43.6950 C.2       4 UNK         0.5000 
     51 O           1.3998  -15.1824  -44.3364 O.2       4 UNK        -0.5000 
     52 CA          3.1520  -13.5784  -44.0440 C.3       4 UNK         0.1400 
     53 CB          4.2207  -14.0117  -43.0214 C.3       4 UNK        -0.1800 
     54 N           3.5102  -14.0354  -45.3825 N.am      4 UNK        -0.5000 
     55 C           4.5030  -13.5832  -46.1552 C.2       3 UNK         0.5000 
     56 O           5.2760  -12.6827  -45.8271 O.2       3 UNK        -0.5000 
     57 CA          4.6329  -14.2356  -47.5433 C.3       3 UNK         0.1400 
     58 CB          4.4392  -15.7642  -47.5103 C.3       3 UNK        -0.1800 
     59 N           3.6472  -13.6479  -48.4443 N.am      3 UNK        -0.5000 
     60 C           3.8419  -12.5533  -49.1899 C.2       2 UNK         0.5000 
     61 O           4.9234  -11.9737  -49.2962 O.2       2 UNK        -0.5000 
     62 CA          2.6099  -12.0064  -49.9402 C.3       2 UNK         0.1400 
     63 CB          2.5293  -12.6124  -51.3501 C.3       2 UNK        -0.1800 
     64 N           1.3339  -12.2372  -49.2523 N.am      2 UNK        -0.5000 
     65 C           1.0073  -11.7516  -48.0466 C.2       1 UNK         0.5000 
     66 O           1.7754  -11.0866  -47.3466 O.2       1 UNK        -0.5000 
     67 C          -1.8935  -23.0774  -46.9398 C.2       11 UNK         0.5000 
     68 O          -2.1485  -23.9670  -47.7529 O.2       11 UNK        -0.5000 
     69 N          -2.8316  -22.4473  -46.2197 N.am      12 UNK        -0.5000 
     70 CA         -4.2620  -22.7582  -46.2354 C.3       12 UNK         0.1400 
     71 CB         -5.0214  -21.7276  -45.3877 C.3       12 UNK        -0.1800 
     72 C          -4.5791  -24.1892  -45.7652 C.2       12 UNK         0.5000 
     73 O          -5.5010  -24.8069  -46.2971 O.2       12 UNK        -0.5000 
     74 N          -3.8016  -24.6985  -44.8020 N.am      13 UNK        -0.5000 
     75 CA         -3.9034  -26.0712  -44.3147 C.3       13 UNK         0.1400 
     76 CB         -3.3663  -26.1408  -42.8762 C.3       13 UNK        -0.1800 
     77 C          -3.1565  -27.0588  -45.2289 C.2       13 UNK         0.5000 
     78 O          -3.7000  -28.1141  -45.5569 O.2       13 UNK        -0.5000 
     79 N          -1.9183  -26.7106  -45.6023 N.am      14 UNK        -0.5000 
     80 CA         -0.9860  -27.5958  -46.2985 C.3       14 UNK         0.1400 
     81 CB          0.4442  -27.0666  -46.1069 C.3       14 UNK        -0.1800 
     82 C          -1.2818  -27.7802  -47.7962 C.2       14 UNK         0.5000 
     83 O          -1.0989  -28.8865  -48.3069 O.2       14 UNK        -0.5000 
     84 N          -1.6853  -26.7024  -48.4806 N.am      15 UNK        -0.5000 
     85 CA         -1.7604  -26.6437  -49.9435 C.3       15 UNK         0.1400 
     86 CB         -0.4846  -25.9575  -50.4688 C.3       15 UNK        -0.1800 
     87 C          -3.0249  -25.9329  -50.4542 C.2       15 UNK         0.5000 
     88 O          -3.0914  -25.6186  -51.6433 O.2       15 UNK        -0.5000 
     89 N          -3.9874  -25.6523  -49.5616 N.am      16 UNK        -0.5000 
     90 CA         -5.2190  -24.8918  -49.8179 C.3       16 UNK         0.1400 
     91 CB         -6.1708  -25.6906  -50.7341 C.3       16 UNK        -0.1800 
     92 C          -4.9391  -23.4654  -50.3424 C.2       16 UNK         0.5000 
     93 O          -5.6581  -22.9788  -51.2157 O.2       16 UNK        -0.5000 
     94 N          -3.8630  -22.8469  -49.8279 N.am      17 UNK        -0.5000 
     95 CA         -3.2949  -21.5600  -50.2469 C.3       17 UNK         0.1400 
     96 CB         -4.2344  -20.3935  -49.8851 C.3       17 UNK        -0.1800 
     97 C          -2.8691  -21.5878  -51.7291 C.2       17 UNK         0.5000 
     98 O          -3.2357  -20.7074  -52.5090 O.2       17 UNK        -0.5000 
     99 N          -2.1462  -22.6601  -52.0884 N.am      18 UNK        -0.5000 
    100 CA        -1.6842  -23.0259  -53.4325 C.3       18 UNK         0.1400 
    101 CB        -0.5989  -22.0437  -53.9173 C.3       18 UNK        -0.1800 
    102 C         -2.8315  -23.2009  -54.4524 C.2       18 UNK         0.5000 
    103 O         -2.6301  -22.9758  -55.6470 O.2       18 UNK        -0.5000 
    104 N         -4.0239  -23.5634  -53.9559 N.am      19 UNK        -0.5000 
    105 CA        -5.3191  -23.7253  -54.6307 C.3       19 UNK         0.1400 
    106 CB        -5.2583  -24.8441  -55.6867 C.3       19 UNK        -0.1800 
    107 C         -5.9167  -22.4310  -55.2256 C.2       19 UNK         0.5000 
    108 O         -7.1344  -22.2530  -55.1759 O.2       19 UNK        -0.5000 
    109 N         -5.0686  -21.5555  -55.7777 N.am      20 UNK        -0.5000 
    110 CA        -5.4309  -20.2814  -56.3977 C.3       20 UNK         0.1400 
    111 CB        -4.2297  -19.7716  -57.2093 C.3       20 UNK        -0.1800 
    112 C         -5.8839  -19.2083  -55.3903 C.2       20 UNK         0.5000 
    113 O         -6.6189  -18.2989  -55.7757 O.2       20 UNK        -0.5000 
    114 N         -5.4165  -19.3115  -54.1369 N.am      21 UNK        -0.5000 
    115 CA        -5.7005  -18.4332  -52.9942 C.3       21 UNK         0.1400 
    116 CB        -7.2070  -18.4112  -52.6642 C.3       21 UNK        -0.1800 
    117 C         -5.1002  -17.0137  -53.0893 C.2       21 UNK         0.5000 
    118 O         -5.2923  -16.2246  -52.1634 O.2       21 UNK        -0.5000 
    119 N         -4.3461  -16.7258  -54.1610 N.am      22 UNK        -0.5000 
    120 CA        -3.5916  -15.4791  -54.3963 C.3       22 UNK         0.1400 
    121 C         -4.4674  -14.1898  -54.4952 C.2       22 UNK         0.5000 
    122 N         -5.7528  -14.2941  -54.8112 N.am      22 UNK        -0.7600 
    123 O         -3.9769  -13.0772  -54.3218 O.2       22 UNK        -0.5000 
    124 C124       -2.3772  -15.3334  -53.4312 C.3       23 UNK        -0.0398 
    125 S125       -1.0885  -16.5873  -53.7609 S.3       23 UNK        -0.2404 
    126 C126       -1.5460  -17.9250  -52.6134 C.3       23 UNK        -0.0205 
    127 H127       -0.8941   -8.1572  -45.4785 H         1 UNK         0.0600 
    128 H128       -1.4486   -9.5782  -44.5890 H         1 UNK         0.0600 
    129 H129       -2.5824   -8.6666  -45.5898 H         1 UNK         0.0600 
    130 H130       -0.7562  -11.4603  -45.5453 H         1 UNK         0.3000 
    131 H131       -1.1002  -11.9828  -48.3676 H         1 UNK         0.0600 
    132 H132        0.4403  -13.8703  -46.5337 H         1 UNK         0.0800 
    133 H133       -1.2525  -13.6289  -46.2374 H         1 UNK         0.0800 
    134 H134        1.3242  -15.2755  -48.7536 H         1 UNK         0.0800 
    135 H135        0.6976  -16.2123  -47.4131 H         1 UNK         0.0800 
    136 H136       -1.0318  -16.0137  -50.7423 H         1 UNK         0.1150 
    137 H137       -0.0556  -20.0402  -51.7936 H         1 UNK         0.1150 
    138 H138        1.5683  -18.3246  -48.2229 H         1 UNK         0.1150 
    139 H139        2.1148  -20.9072  -50.6330 H         1 UNK         0.0800 
    140 H140        2.3398  -20.4955  -48.9541 H         1 UNK         0.0800 
    141 H141       -0.7867  -20.7042  -47.6203 H         1 UNK         0.0800 
    142 H142        0.8647  -20.9930  -47.1586 H         1 UNK         0.0800 
    143 H143        0.1908  -23.5304  -46.9642 H         1 UNK         0.0600 
    144 H144        0.2079  -21.4890  -45.0489 H         1 UNK         0.3000 
    145 H145       -0.3251  -23.5652  -42.1596 H         1 UNK         0.0600 
    146 H146        1.7958  -22.4048  -41.6085 H         1 UNK         0.0600 
    147 H147        2.0720  -23.6529  -42.8148 H         1 UNK         0.0600 
    148 H148        2.0276  -21.9625  -43.2968 H         1 UNK         0.0600 
    149 H149        0.0082  -20.7326  -42.4749 H         1 UNK         0.3000 
    150 H150       -3.4831  -19.9366  -42.6169 H         1 UNK         0.0600 
    151 H151       -2.9097  -20.1540  -40.1963 H         1 UNK         0.0600 
    152 H152       -2.7886  -18.4840  -40.7311 H         1 UNK         0.0600 
    153 H153       -1.3288  -19.4409  -40.4925 H         1 UNK         0.0600 
    154 H154       -1.2321  -18.2361  -42.7003 H         1 UNK         0.3000 
    155 H155       -0.6589  -18.3389  -46.2509 H         1 UNK         0.0600 
    156 H156       -2.3847  -16.6722  -45.9116 H         1 UNK         0.0600 
    157 H157       -0.8515  -15.8717  -45.6022 H         1 UNK         0.0600 
    158 H158       -1.8735  -16.3471  -44.2613 H         1 UNK         0.0600 
    159 H159        0.7497  -16.9462  -44.2615 H         1 UNK         0.3000 
    160 H160        3.1057  -19.5040  -43.3527 H         1 UNK         0.0600 
    161 H161        3.3568  -16.8605  -44.8774 H         1 UNK         0.0600 
    162 H162        3.9610  -18.4164  -45.4247 H         1 UNK         0.0600 
    163 H163        4.6447  -17.6686  -43.9893 H         1 UNK         0.0600 
    164 H164        2.6515  -16.7919  -42.4946 H         1 UNK         0.3000 
    165 H165        0.5055  -17.5574  -39.7668 H         1 UNK         0.0600 
    166 H166        2.3051  -16.3898  -38.5205 H         1 UNK         0.0600 
    167 H167        2.8033  -18.0291  -38.9068 H         1 UNK         0.0600 
    168 H168        3.4448  -16.6789  -39.8352 H         1 UNK         0.0600 
    169 H169        1.7218  -15.1374  -40.7277 H         1 UNK         0.3000 
    170 H170       -0.8491  -14.2528  -43.0352 H         1 UNK         0.0600 
    171 H171       -1.7282  -13.5652  -40.8009 H         1 UNK         0.0600 
    172 H172       -0.1120  -13.0835  -40.2990 H         1 UNK         0.0600 
    173 H173       -0.9250  -12.2301  -41.6112 H         1 UNK         0.0600 
    174 H174        1.4983  -12.8761  -42.1834 H         1 UNK         0.3000 
    175 H175        3.0494  -12.4916  -44.0499 H         1 UNK         0.0600 
    176 H176        4.3638  -15.0928  -43.0227 H         1 UNK         0.0600 
    177 H177        5.1851  -13.5499  -43.2321 H         1 UNK         0.0600 
    178 H178        3.9429  -13.7170  -42.0089 H         1 UNK         0.0600 
    179 H179        2.8973  -14.7652  -45.7218 H         1 UNK         0.3000 
    180 H180        5.6418  -14.0372  -47.9116 H         1 UNK         0.0600 
    181 H181        3.4216  -16.0520  -47.2459 H         1 UNK         0.0600 
    182 H182        5.1146  -16.2272  -46.7897 H         1 UNK         0.0600 
    183 H183        4.6587  -16.2028  -48.4838 H         1 UNK         0.0600 
    184 H184        2.7156  -14.0277  -48.4103 H         1 UNK         0.3000 
    185 H185        2.7414  -10.9268  -50.0388 H         1 UNK         0.0600 
    186 H186        3.4549  -12.4433  -51.9021 H         1 UNK         0.0600 
    187 H187        2.3592  -13.6895  -51.3164 H         1 UNK         0.0600 
    188 H188        1.7220  -12.1625  -51.9283 H         1 UNK         0.0600 
    189 H189        0.6457  -12.7742  -49.7609 H         1 UNK         0.3000 
    190 H190       -2.5498  -21.6653  -45.6322 H         1 UNK         0.3000 
    191 H191       -4.6161  -22.6646  -47.2616 H         1 UNK         0.0600 
    192 H192       -4.8855  -20.7195  -45.7797 H         1 UNK         0.0600 
    193 H193       -6.0925  -21.9334  -45.3870 H         1 UNK         0.0600 
    194 H194       -4.6843  -21.7321  -44.3510 H         1 UNK         0.0600 
    195 H195       -3.0574  -24.1293  -44.4204 H         1 UNK         0.3000 
    196 H196       -4.9550  -26.3655  -44.2897 H         1 UNK         0.0600 
    197 H197       -3.4488  -27.1527  -42.4776 H         1 UNK         0.0600 
    198 H198       -3.9303  -25.4830  -42.2146 H         1 UNK         0.0600 
    199 H199       -2.3171  -25.8494  -42.8180 H         1 UNK         0.0600 
    200 H200       -1.5315  -25.8349  -45.2555 H         1 UNK         0.3000 
    201 H201       -1.0408  -28.5809  -45.8297 H         1 UNK         0.0600 
    202 H202        0.7050  -27.0096  -45.0498 H         1 UNK         0.0600 
    203 H203        0.5648  -26.0705  -46.5349 H         1 UNK         0.0600 
    204 H204        1.1729  -27.7213  -46.5867 H         1 UNK         0.0600 
    205 H205       -1.8099  -25.8170  -47.9956 H         1 UNK         0.3000 
    206 H206       -1.8039  -27.6507  -50.3627 H         1 UNK         0.0600 
    207 H207        0.4100  -26.4914  -50.1480 H         1 UNK         0.0600 
    208 H208       -0.4662  -25.9284  -51.5589 H         1 UNK         0.0600 
    209 H209       -0.4068  -24.9310  -50.1082 H         1 UNK         0.0600 
    210 H210       -3.8400  -25.9418  -48.6050 H         1 UNK         0.3000 
    211 H211       -5.7202  -24.7678  -48.8592 H         1 UNK         0.0600 
    212 H212       -5.7692  -25.8024  -51.7418 H         1 UNK         0.0600 
    213 H213       -7.1375  -25.1933  -50.8221 H         1 UNK         0.0600 
    214 H214       -6.3562  -26.6877  -50.3347 H         1 UNK         0.0600 
    215 H215       -3.3197  -23.3548  -49.1347 H         1 UNK         0.3000 
    216 H216       -2.3808  -21.4204  -49.6714 H         1 UNK         0.0600 
    217 H217       -3.7833  -19.4351  -50.1455 H         1 UNK         0.0600 
    218 H218       -4.4377  -20.3746  -48.8144 H         1 UNK         0.0600 
    219 H219       -5.1899  -20.4640  -50.4045 H         1 UNK         0.0600 
    220 H220       -1.9563  -23.3499  -51.3760 H         1 UNK         0.3000 
    221 H221       -1.2203  -24.0084  -53.3356 H         1 UNK         0.0600 
    222 H222       -1.0032  -21.0458  -54.0865 H         1 UNK         0.0600 
    223 H223        0.2108  -21.9639  -53.1923 H         1 UNK         0.0600 
    224 H224       -0.1563  -22.3795  -54.8557 H         1 UNK         0.0600 
    225 H225       -4.0623  -23.7017  -52.9542 H         1 UNK         0.3000 
    226 H226       -6.0097  -24.0506  -53.8511 H         1 UNK         0.0600 
    227 H227       -4.9063  -25.7786  -55.2496 H         1 UNK         0.0600 
    228 H228       -6.2460  -25.0340  -56.1084 H         1 UNK         0.0600 
    229 H229       -4.5956  -24.5891  -56.5141 H         1 UNK         0.0600 
    230 H230       -4.0880  -21.8216  -55.8069 H         1 UNK         0.3000 
    231 H231       -6.2604  -20.4604  -57.0848 H         1 UNK         0.0600 
    232 H232       -3.3592  -19.5999  -56.5744 H         1 UNK         0.0600 
    233 H233       -4.4641  -18.8309  -57.7096 H         1 UNK         0.0600 
    234 H234       -3.9445  -20.4864  -57.9813 H         1 UNK         0.0600 
    235 H235       -4.7768  -20.0706  -53.9283 H         1 UNK         0.3000 
    236 H236       -5.1963  -18.8950  -52.1476 H         1 UNK         0.0600 
    237 H237       -7.6026  -19.4224  -52.5664 H         1 UNK         0.0600 
    238 H238       -7.3921  -17.8997  -51.7191 H         1 UNK         0.0600 
    239 H239       -7.7856  -17.8951  -53.4303 H         1 UNK         0.0600 
    240 H240       -4.2564  -17.4343  -54.8733 H         1 UNK         0.3000 
    241 H241       -3.1839  -15.5796  -55.4028 H         1 UNK         0.0600 
    242 H242       -6.3162  -13.4617  -54.8866 H         1 UNK         0.3800 
    243 H243       -6.1682  -15.1992  -54.9689 H         1 UNK         0.3800 
    244 H244       -1.8946  -14.3634  -53.5587 H         1 UNK         0.0800 
    245 H245       -2.6937  -15.3731  -52.3884 H         1 UNK         0.0800 
    246 H246       -2.5718  -17.8162  -52.2689 H         1 UNK         0.0800 
    247 H247       -1.5152  -18.8573  -53.1768 H         1 UNK         0.0800 
@<TRIPOS>BOND
     1    1    2 1    
     2    1  127 1    
     3    1  128 1    
     4    1  129 1    
     5    2    3 2    
     6    2    4 am   BACKBONE|DICT|INTERRES
     7    4    5 1    
     8    4  130 1    
     9    5    6 1    
    10    5   65 1    
    11    5  131 1    
    12    6    7 1    
    13    6  132 1    
    14    6  133 1    
    15    7    8 1    
    16    8    9 1    
    17    8  134 1    
    18    8  135 1    
    19    9   10 ar   
    20    9   14 ar   
    21   10   11 ar   
    22   10  136 1    
    23   11   12 ar   
    24   11  126 1    
    25   12   13 ar   
    26   12  137 1    
    27   13   14 ar   
    28   13   15 1    
    29   14  138 1    
    30   15   16 1    
    31   15  139 1    
    32   15  140 1    
    33   16   17 1    
    34   17   18 1    
    35   17  141 1    
    36   17  142 1    
    37   18   19 1    
    38   18   67 1    
    39   18  143 1    
    40   19   20 am   BACKBONE|DICT|INTERRES
    41   19  144 1    
    42   20   21 2    
    43   20   22 1    
    44   22   23 1    
    45   22   24 1    
    46   22  145 1    
    47   23  146 1    
    48   23  147 1    
    49   23  148 1    
    50   24   25 am   BACKBONE|DICT|INTERRES
    51   24  149 1    
    52   25   26 2    
    53   25   27 1    
    54   27   28 1    
    55   27   29 1    
    56   27  150 1    
    57   28  151 1    
    58   28  152 1    
    59   28  153 1    
    60   29   30 am   BACKBONE|DICT|INTERRES
    61   29  154 1    
    62   30   31 2    
    63   30   32 1    
    64   32   33 1    
    65   32   34 1    
    66   32  155 1    
    67   33  156 1    
    68   33  157 1    
    69   33  158 1    
    70   34   35 am   BACKBONE|DICT|INTERRES
    71   34  159 1    
    72   35   36 2    
    73   35   37 1    
    74   37   38 1    
    75   37   39 1    
    76   37  160 1    
    77   38  161 1    
    78   38  162 1    
    79   38  163 1    
    80   39   40 am   BACKBONE|DICT|INTERRES
    81   39  164 1    
    82   40   41 2    
    83   40   42 1    
    84   42   43 1    
    85   42   44 1    
    86   42  165 1    
    87   43  166 1    
    88   43  167 1    
    89   43  168 1    
    90   44   45 am   BACKBONE|DICT|INTERRES
    91   44  169 1    
    92   45   46 2    
    93   45   47 1    
    94   47   48 1    
    95   47   49 1    
    96   47  170 1    
    97   48  171 1    
    98   48  172 1    
    99   48  173 1    
   100   49   50 am   BACKBONE|DICT|INTERRES
   101   49  174 1    
   102   50   51 2    
   103   50   52 1    
   104   52   53 1    
   105   52   54 1    
   106   52  175 1    
   107   53  176 1    
   108   53  177 1    
   109   53  178 1    
   110   54   55 am   BACKBONE|DICT|INTERRES
   111   54  179 1    
   112   55   56 2    
   113   55   57 1    
   114   57   58 1    
   115   57   59 1    
   116   57  180 1    
   117   58  181 1    
   118   58  182 1    
   119   58  183 1    
   120   59   60 am   BACKBONE|DICT|INTERRES
   121   59  184 1    
   122   60   61 2    
   123   60   62 1    
   124   62   63 1    
   125   62   64 1    
   126   62  185 1    
   127   63  186 1    
   128   63  187 1    
   129   63  188 1    
   130   64   65 am   BACKBONE|DICT|INTERRES
   131   64  189 1    
   132   65   66 2    
   133   67   68 2    
   134   67   69 am   BACKBONE|DICT|INTERRES
   135   69   70 1    
   136   69  190 1    
   137   70   71 1    
   138   70   72 1    
   139   70  191 1    
   140   71  192 1    
   141   71  193 1    
   142   71  194 1    
   143   72   73 2    
   144   72   74 am   BACKBONE|DICT|INTERRES
   145   74   75 1    
   146   74  195 1    
   147   75   76 1    
   148   75   77 1    
   149   75  196 1    
   150   76  197 1    
   151   76  198 1    
   152   76  199 1    
   153   77   78 2    
   154   77   79 am   BACKBONE|DICT|INTERRES
   155   79   80 1    
   156   79  200 1    
   157   80   81 1    
   158   80   82 1    
   159   80  201 1    
   160   81  202 1    
   161   81  203 1    
   162   81  204 1    
   163   82   83 2    
   164   82   84 am   BACKBONE|DICT|INTERRES
   165   84   85 1    
   166   84  205 1    
   167   85   86 1    
   168   85   87 1    
   169   85  206 1    
   170   86  207 1    
   171   86  208 1    
   172   86  209 1    
   173   87   88 2    
   174   87   89 am   BACKBONE|DICT|INTERRES
   175   89   90 1    
   176   89  210 1    
   177   90   91 1    
   178   90   92 1    
   179   90  211 1    
   180   91  212 1    
   181   91  213 1    
   182   91  214 1    
   183   92   93 2    
   184   92   94 am   BACKBONE|DICT|INTERRES
   185   94   95 1    
   186   94  215 1    
   187   95   96 1    
   188   95   97 1    
   189   95  216 1    
   190   96  217 1    
   191   96  218 1    
   192   96  219 1    
   193   97   98 2    
   194   97   99 am   BACKBONE|DICT|INTERRES
   195   99  100 1    
   196   99  220 1    
   197  100  101 1    
   198  100  102 1    
   199  100  221 1    
   200  101  222 1    
   201  101  223 1    
   202  101  224 1    
   203  102  103 2    
   204  102  104 am   BACKBONE|DICT|INTERRES
   205  104  105 1    
   206  104  225 1    
   207  105  106 1    
   208  105  107 1    
   209  105  226 1    
   210  106  227 1    
   211  106  228 1    
   212  106  229 1    
   213  107  108 2    
   214  107  109 am   BACKBONE|DICT|INTERRES
   215  109  110 1    
   216  109  230 1    
   217  110  111 1    
   218  110  112 1    
   219  110  231 1    
   220  111  232 1    
   221  111  233 1    
   222  111  234 1    
   223  112  113 2    
   224  112  114 am   BACKBONE|DICT|INTERRES
   225  114  115 1    
   226  114  235 1    
   227  115  116 1    
   228  115  117 1    
   229  115  236 1    
   230  116  237 1    
   231  116  238 1    
   232  116  239 1    
   233  117  118 2    
   234  117  119 am   BACKBONE|DICT|INTERRES
   235  119  120 1    
   236  119  240 1    
   237  120  121 1    
   238  120  124 1    
   239  120  241 1    
   240  121  122 am   BACKBONE|DICT|INTERRES
   241  121  123 2    
   242  122  242 1    
   243  122  243 1    
   244  124  125 1    
   245  124  244 1    
   246  124  245 1    
   247  125  126 1    
   248  126  246 1    
   249  126  247 1    
@<TRIPOS>SUBSTRUCTURE
     1 UNK         1 GROUP             0       ****    0 ROOT    
