@<TRIPOS>MOLECULE
3R540
247   249    1
SMALL
USER_CHARGES


@<TRIPOS>ATOM
      1 CA         -1.8659  -17.5111  -51.0669 C.3       0 UNK        -0.1800 
      2 C          -1.7035  -16.1362  -50.4340 C.2       0 UNK         0.5000 
      3 O          -2.6389  -15.3359  -50.4647 O.2       0 UNK        -0.5000 
      4 N          -0.5238  -15.8599  -49.8626 N.am      1 UNK        -0.5000 
      5 CA         -0.2190  -14.6459  -49.0944 C.3       1 UNK         0.1400 
      6 C6          1.2886  -14.5567  -48.7476 C.3       23 UNK        -0.0398 
      7 S7          2.3037  -14.1289  -50.2006 S.3       23 UNK        -0.2404 
      8 C8          3.4102  -15.5678  -50.3475 C.3       23 UNK        -0.0205 
      9 C9          2.7093  -16.7764  -50.9491 C.ar      23 UNK        -0.0193 
     10 C10         2.2773  -16.7412  -52.2758 C.ar      23 UNK        -0.1150 
     11 C11         1.6534  -17.8497  -52.8507 C.ar      23 UNK        -0.0193 
     12 C12         1.4644  -19.0050  -52.0869 C.ar      23 UNK        -0.1150 
     13 C13         1.8961  -19.0629  -50.7567 C.ar      23 UNK        -0.0193 
     14 C14         2.5227  -17.9390  -50.1974 C.ar      23 UNK        -0.1150 
     15 C15         1.6921  -20.3672  -49.9811 C.3       23 UNK        -0.0205 
     16 S16         1.8318  -20.2413  -48.1638 S.3       23 UNK        -0.2404 
     17 C17         0.3619  -19.2415  -47.7721 C.3       23 UNK        -0.0398 
     18 CA         -0.8285  -20.1026  -47.2996 C.3       11 UNK         0.1400 
     19 N          -0.5551  -20.8033  -46.0452 N.am      11 UNK        -0.5000 
     20 C          -1.1496  -21.9313  -45.6400 C.2       10 UNK         0.5000 
     21 O          -1.9832  -22.5358  -46.3190 O.2       10 UNK        -0.5000 
     22 CA         -0.7747  -22.4479  -44.2338 C.3       10 UNK         0.1400 
     23 CB         -0.8717  -23.9814  -44.1149 C.3       10 UNK        -0.1800 
     24 N           0.5189  -21.9496  -43.7489 N.am      10 UNK        -0.5000 
     25 C           1.7456  -22.2335  -44.2161 C.2       9 UNK         0.5000 
     26 O           1.9656  -23.0489  -45.1102 O.2       9 UNK        -0.5000 
     27 CA          2.9370  -21.4681  -43.5999 C.3       9 UNK         0.1400 
     28 CB          3.5619  -20.5244  -44.6403 C.3       9 UNK        -0.1800 
     29 N           2.5759  -20.6860  -42.4155 N.am      9 UNK        -0.5000 
     30 C           2.4318  -21.1833  -41.1795 C.2       8 UNK         0.5000 
     31 O           2.6616  -22.3560  -40.8832 O.2       8 UNK        -0.5000 
     32 CA          1.9039  -20.2148  -40.1008 C.3       8 UNK         0.1400 
     33 CB          3.0676  -19.5077  -39.3901 C.3       8 UNK        -0.1800 
     34 N           0.9799  -19.2091  -40.6326 N.am      8 UNK        -0.5000 
     35 C          -0.2093  -19.4812  -41.1889 C.2       7 UNK         0.5000 
     36 O          -0.6842  -20.6134  -41.2688 O.2       7 UNK        -0.5000 
     37 CA         -0.9554  -18.3071  -41.8430 C.3       7 UNK         0.1400 
     38 CB         -1.7371  -17.4922  -40.8035 C.3       7 UNK        -0.1800 
     39 N          -0.0517  -17.4320  -42.5918 N.am      7 UNK        -0.5000 
     40 C           0.6045  -17.7985  -43.7009 C.2       6 UNK         0.5000 
     41 O           0.4193  -18.8745  -44.2667 O.2       6 UNK        -0.5000 
     42 CA          1.6533  -16.8272  -44.2641 C.3       6 UNK         0.1400 
     43 CB          1.0254  -15.8986  -45.3025 C.3       6 UNK        -0.1800 
     44 N           2.2693  -16.0233  -43.2142 N.am      6 UNK        -0.5000 
     45 C           3.2556  -16.4565  -42.4194 C.2       5 UNK         0.5000 
     46 O           3.7697  -17.5711  -42.5136 O.2       5 UNK        -0.5000 
     47 CA          3.7147  -15.4918  -41.3102 C.3       5 UNK         0.1400 
     48 CB          4.7753  -14.5178  -41.8443 C.3       5 UNK        -0.1800 
     49 N           2.6059  -14.7303  -40.7303 N.am      5 UNK        -0.5000 
     50 C           1.6071  -15.2783  -40.0256 C.2       4 UNK         0.5000 
     51 O           1.5312  -16.4808  -39.7737 O.2       4 UNK        -0.5000 
     52 CA          0.4840  -14.3365  -39.5566 C.3       4 UNK         0.1400 
     53 CB          0.8390  -13.7187  -38.1960 C.3       4 UNK        -0.1800 
     54 N           0.1429  -13.2651  -40.4988 N.am      4 UNK        -0.5000 
     55 C          -0.2728  -13.4317  -41.7627 C.2       3 UNK         0.5000 
     56 O          -0.2955  -14.5236  -42.3348 O.2       3 UNK        -0.5000 
     57 CA         -0.7769  -12.1585  -42.4698 C.3       3 UNK         0.1400 
     58 CB          0.3293  -11.0903  -42.6102 C.3       3 UNK        -0.1800 
     59 N          -1.4584  -12.4361  -43.7427 N.am      3 UNK        -0.5000 
     60 C          -0.9255  -12.6878  -44.9475 C.2       2 UNK         0.5000 
     61 O           0.2826  -12.6659  -45.1957 O.2       2 UNK        -0.5000 
     62 CA         -1.9387  -12.9843  -46.0729 C.3       2 UNK         0.1400 
     63 CB         -2.8459  -11.7679  -46.3320 C.3       2 UNK        -0.1800 
     64 N          -1.2533  -13.3107  -47.3239 N.am      2 UNK        -0.5000 
     65 C          -1.0719  -14.5441  -47.8086 C.2       1 UNK         0.5000 
     66 O          -1.5154  -15.5626  -47.2757 O.2       1 UNK        -0.5000 
     67 C          -2.0886  -19.2349  -47.1613 C.2       11 UNK         0.5000 
     68 O          -2.9115  -19.2300  -48.0745 O.2       11 UNK        -0.5000 
     69 N          -2.2576  -18.5695  -46.0070 N.am      12 UNK        -0.5000 
     70 CA         -3.4429  -17.7521  -45.7097 C.3       12 UNK         0.1400 
     71 CB         -3.1695  -16.8485  -44.4975 C.3       12 UNK        -0.1800 
     72 C          -4.7058  -18.6084  -45.4840 C.2       12 UNK         0.5000 
     73 O          -5.8187  -18.1286  -45.6977 O.2       12 UNK        -0.5000 
     74 N          -4.5004  -19.8759  -45.0984 N.am      13 UNK        -0.5000 
     75 CA         -5.5230  -20.9205  -45.0234 C.3       13 UNK         0.1400 
     76 CB         -5.0262  -22.0124  -44.0608 C.3       13 UNK        -0.1800 
     77 C          -5.8580  -21.5327  -46.4019 C.2       13 UNK         0.5000 
     78 O          -6.7849  -22.3372  -46.4898 O.2       13 UNK        -0.5000 
     79 N          -5.0804  -21.1736  -47.4361 N.am      14 UNK        -0.5000 
     80 CA         -5.1261  -21.6258  -48.8309 C.3       14 UNK         0.1400 
     81 CB         -6.4943  -21.3334  -49.4773 C.3       14 UNK        -0.1800 
     82 C          -4.6865  -23.0864  -49.0517 C.2       14 UNK         0.5000 
     83 O          -4.6723  -23.5336  -50.1978 O.2       14 UNK        -0.5000 
     84 N          -4.2993  -23.8009  -47.9874 N.am      15 UNK        -0.5000 
     85 CA         -3.8822  -25.2016  -48.0297 C.3       15 UNK         0.1400 
     86 CB         -3.8092  -25.7581  -46.6008 C.3       15 UNK        -0.1800 
     87 C          -2.5458  -25.3834  -48.7655 C.2       15 UNK         0.5000 
     88 O          -2.4532  -26.2177  -49.6661 O.2       15 UNK        -0.5000 
     89 N          -1.5535  -24.5522  -48.4185 N.am      16 UNK        -0.5000 
     90 CA         -0.2405  -24.5300  -49.0717 C.3       16 UNK         0.1400 
     91 CB          0.7675  -23.8230  -48.1604 C.3       16 UNK        -0.1800 
     92 C          -0.2732  -23.8791  -50.4687 C.2       16 UNK         0.5000 
     93 O           0.6351  -24.1094  -51.2665 O.2       16 UNK        -0.5000 
     94 N          -1.3326  -23.1085  -50.7508 N.am      17 UNK        -0.5000 
     95 CA         -1.6416  -22.5511  -52.0689 C.3       17 UNK         0.1400 
     96 CB         -2.4112  -21.2344  -51.8774 C.3       17 UNK        -0.1800 
     97 C          -2.4310  -23.5394  -52.9594 C.2       17 UNK         0.5000 
     98 O          -2.7488  -23.1957  -54.0975 O.2       17 UNK        -0.5000 
     99 N          -2.7375  -24.7378  -52.4341 N.am      18 UNK        -0.5000 
    100 CA        -3.4586  -25.8430  -53.0748 C.3       18 UNK         0.1400 
    101 CB        -2.6513  -26.4088  -54.2622 C.3       18 UNK        -0.1800 
    102 C         -4.9171  -25.4968  -53.4428 C.2       18 UNK         0.5000 
    103 O         -5.4278  -25.9830  -54.4536 O.2       18 UNK        -0.5000 
    104 N         -5.5606  -24.6699  -52.6041 N.am      19 UNK        -0.5000 
    105 CA        -6.9386  -24.1790  -52.7144 C.3       19 UNK         0.1400 
    106 CB        -7.9443  -25.3293  -52.5008 C.3       19 UNK        -0.1800 
    107 C         -7.2002  -23.3751  -54.0066 C.2       19 UNK         0.5000 
    108 O         -8.2965  -23.4413  -54.5664 O.2       19 UNK        -0.5000 
    109 N         -6.1854  -22.6300  -54.4567 N.am      20 UNK        -0.5000 
    110 CA        -6.2016  -21.8111  -55.6625 C.3       20 UNK         0.1400 
    111 CB        -5.5515  -22.6058  -56.8086 C.3       20 UNK        -0.1800 
    112 C         -5.4508  -20.4968  -55.4048 C.2       20 UNK         0.5000 
    113 O         -4.7257  -20.3779  -54.4139 O.2       20 UNK        -0.5000 
    114 N         -5.6372  -19.5318  -56.3117 N.am      21 UNK        -0.5000 
    115 CA        -4.8958  -18.2720  -56.3427 C.3       21 UNK         0.1400 
    116 CB        -5.6852  -17.2592  -57.1882 C.3       21 UNK        -0.1800 
    117 C         -3.4797  -18.4702  -56.9177 C.2       21 UNK         0.5000 
    118 O         -3.2275  -19.4510  -57.6229 O.2       21 UNK        -0.5000 
    119 N         -2.5913  -17.5119  -56.6333 N.am      22 UNK        -0.5000 
    120 CA        -1.1941  -17.4969  -57.1033 C.3       22 UNK         0.1400 
    121 C         -1.0131  -17.2307  -58.6288 C.2       22 UNK         0.5000 
    122 N         -2.0295  -16.7836  -59.3567 N.am      22 UNK        -0.7600 
    123 O          0.0732  -17.4374  -59.1627 O.2       22 UNK        -0.5000 
    124 C124       -0.3237  -16.5114  -56.2831 C.3       23 UNK        -0.0398 
    125 S125       -0.3328  -16.8529  -54.4897 S.3       23 UNK        -0.2404 
    126 C126        1.2137  -17.7921  -54.3043 C.3       23 UNK        -0.0205 
    127 H127       -2.1018  -17.4159  -52.1262 H         1 UNK         0.0600 
    128 H128       -0.9627  -18.1115  -50.9702 H         1 UNK         0.0600 
    129 H129       -2.6819  -18.0499  -50.5853 H         1 UNK         0.0600 
    130 H130        0.2213  -16.5382  -49.9171 H         1 UNK         0.3000 
    131 H131       -0.4835  -13.7912  -49.7209 H         1 UNK         0.0600 
    132 H132        1.6385  -15.4887  -48.3015 H         1 UNK         0.0800 
    133 H133        1.4762  -13.7806  -48.0026 H         1 UNK         0.0800 
    134 H134        3.8397  -15.8022  -49.3722 H         1 UNK         0.0800 
    135 H135        4.2493  -15.2965  -50.9897 H         1 UNK         0.0800 
    136 H136        2.4272  -15.8461  -52.8636 H         1 UNK         0.1150 
    137 H137        0.9865  -19.8664  -52.5327 H         1 UNK         0.1150 
    138 H138        2.8843  -17.9632  -49.1801 H         1 UNK         0.1150 
    139 H139        0.7146  -20.7880  -50.2223 H         1 UNK         0.0800 
    140 H140        2.4308  -21.0903  -50.3291 H         1 UNK         0.0800 
    141 H141        0.0871  -18.6469  -48.6444 H         1 UNK         0.0800 
    142 H142        0.6475  -18.5307  -46.9988 H         1 UNK         0.0800 
    143 H143       -1.0335  -20.8433  -48.0760 H         1 UNK         0.0600 
    144 H144        0.0755  -20.3333  -45.4014 H         1 UNK         0.3000 
    145 H145       -1.5194  -22.0257  -43.5583 H         1 UNK         0.0600 
    146 H146       -0.5284  -24.3250  -43.1392 H         1 UNK         0.0600 
    147 H147       -1.9040  -24.3118  -44.2253 H         1 UNK         0.0600 
    148 H148       -0.2807  -24.4880  -44.8784 H         1 UNK         0.0600 
    149 H149        0.4539  -21.2755  -42.9964 H         1 UNK         0.3000 
    150 H150        3.6900  -22.2066  -43.3173 H         1 UNK         0.0600 
    151 H151        3.9326  -21.0828  -45.5008 H         1 UNK         0.0600 
    152 H152        4.4047  -19.9736  -44.2221 H         1 UNK         0.0600 
    153 H153        2.8388  -19.8001  -45.0140 H         1 UNK         0.0600 
    154 H154        2.3999  -19.7017  -42.5609 H         1 UNK         0.3000 
    155 H155        1.3619  -20.8080  -39.3616 H         1 UNK         0.0600 
    156 H156        3.6333  -18.8759  -40.0755 H         1 UNK         0.0600 
    157 H157        3.7614  -20.2311  -38.9601 H         1 UNK         0.0600 
    158 H158        2.7077  -18.8780  -38.5762 H         1 UNK         0.0600 
    159 H159        1.2688  -18.2380  -40.5506 H         1 UNK         0.3000 
    160 H160       -1.6689  -18.7369  -42.5472 H         1 UNK         0.0600 
    161 H161       -2.2330  -16.6356  -41.2607 H         1 UNK         0.0600 
    162 H162       -1.0887  -17.1219  -40.0106 H         1 UNK         0.0600 
    163 H163       -2.5078  -18.1039  -40.3331 H         1 UNK         0.0600 
    164 H164        0.0798  -16.4894  -42.2404 H         1 UNK         0.3000 
    165 H165        2.4282  -17.4133  -44.7622 H         1 UNK         0.0600 
    166 H166        0.1558  -15.3817  -44.8988 H         1 UNK         0.0600 
    167 H167        1.7347  -15.1476  -45.6502 H         1 UNK         0.0600 
    168 H168        0.6935  -16.4604  -46.1723 H         1 UNK         0.0600 
    169 H169        1.8516  -15.1203  -43.0339 H         1 UNK         0.3000 
    170 H170        4.1675  -16.0904  -40.5167 H         1 UNK         0.0600 
    171 H171        5.6229  -15.0583  -42.2678 H         1 UNK         0.0600 
    172 H172        4.3733  -13.8723  -42.6263 H         1 UNK         0.0600 
    173 H173        5.1623  -13.8810  -41.0486 H         1 UNK         0.0600 
    174 H174        2.5902  -13.7352  -40.8990 H         1 UNK         0.3000 
    175 H175       -0.4133  -14.9428  -39.4239 H         1 UNK         0.0600 
    176 H176        0.0061  -13.1412  -37.7946 H         1 UNK         0.0600 
    177 H177        1.0765  -14.4929  -37.4649 H         1 UNK         0.0600 
    178 H178        1.7037  -13.0578  -38.2670 H         1 UNK         0.0600 
    179 H179        0.1353  -12.3319  -40.1132 H         1 UNK         0.3000 
    180 H180       -1.5502  -11.7391  -41.8244 H         1 UNK         0.0600 
    181 H181        1.2196  -11.4846  -43.1007 H         1 UNK         0.0600 
    182 H182        0.6411  -10.7164  -41.6347 H         1 UNK         0.0600 
    183 H183       -0.0197  -10.2321  -43.1848 H         1 UNK         0.0600 
    184 H184       -2.4628  -12.5060  -43.6617 H         1 UNK         0.3000 
    185 H185       -2.5617  -13.8223  -45.7530 H         1 UNK         0.0600 
    186 H186       -2.2663  -10.8822  -46.5956 H         1 UNK         0.0600 
    187 H187       -3.5427  -11.9652  -47.1471 H         1 UNK         0.0600 
    188 H188       -3.4441  -11.5200  -45.4547 H         1 UNK         0.0600 
    189 H189       -0.8007  -12.5336  -47.7833 H         1 UNK         0.3000 
    190 H190       -1.5319  -18.6140  -45.3038 H         1 UNK         0.3000 
    191 H191       -3.6309  -17.1090  -46.5721 H         1 UNK         0.0600 
    192 H192       -2.2207  -16.3204  -44.5944 H         1 UNK         0.0600 
    193 H193       -3.1545  -17.4127  -43.5673 H         1 UNK         0.0600 
    194 H194       -3.9503  -16.0936  -44.4000 H         1 UNK         0.0600 
    195 H195       -3.5486  -20.1697  -44.9428 H         1 UNK         0.3000 
    196 H196       -6.4419  -20.4919  -44.6179 H         1 UNK         0.0600 
    197 H197       -5.7826  -22.7862  -43.9229 H         1 UNK         0.0600 
    198 H198       -4.8037  -21.6005  -43.0762 H         1 UNK         0.0600 
    199 H199       -4.1248  -22.5005  -44.4328 H         1 UNK         0.0600 
    200 H200       -4.3530  -20.4916  -47.2588 H         1 UNK         0.3000 
    201 H201       -4.3897  -21.0170  -49.3550 H         1 UNK         0.0600 
    202 H202       -6.7972  -20.2999  -49.3091 H         1 UNK         0.0600 
    203 H203       -7.2776  -21.9830  -49.0859 H         1 UNK         0.0600 
    204 H204       -6.4542  -21.4850  -50.5563 H         1 UNK         0.0600 
    205 H205       -4.2710  -23.3433  -47.0882 H         1 UNK         0.3000 
    206 H206       -4.6430  -25.7648  -48.5745 H         1 UNK         0.0600 
    207 H207       -4.7755  -25.6884  -46.1009 H         1 UNK         0.0600 
    208 H208       -3.5191  -26.8095  -46.6050 H         1 UNK         0.0600 
    209 H209       -3.0806  -25.2184  -45.9973 H         1 UNK         0.0600 
    210 H210       -1.7153  -23.8763  -47.6757 H         1 UNK         0.3000 
    211 H211        0.0965  -25.5604  -49.2041 H         1 UNK         0.0600 
    212 H212        0.4687  -22.7972  -47.9568 H         1 UNK         0.0600 
    213 H213        1.7593  -23.7920  -48.6131 H         1 UNK         0.0600 
    214 H214        0.8614  -24.3405  -47.2062 H         1 UNK         0.0600 
    215 H215       -2.0410  -23.0008  -50.0405 H         1 UNK         0.3000 
    216 H216       -0.7080  -22.3199  -52.5859 H         1 UNK         0.0600 
    217 H217       -2.4965  -20.6963  -52.8221 H         1 UNK         0.0600 
    218 H218       -1.9039  -20.5734  -51.1745 H         1 UNK         0.0600 
    219 H219       -3.4232  -21.4070  -51.5120 H         1 UNK         0.0600 
    220 H220       -2.4614  -24.9171  -51.4774 H         1 UNK         0.3000 
    221 H221       -3.5234  -26.6303  -52.3227 H         1 UNK         0.0600 
    222 H222       -2.6005  -25.7026  -55.0915 H         1 UNK         0.0600 
    223 H223       -1.6312  -26.6521  -53.9649 H         1 UNK         0.0600 
    224 H224       -3.1042  -27.3253  -54.6419 H         1 UNK         0.0600 
    225 H225       -5.0535  -24.3205  -51.7921 H         1 UNK         0.3000 
    226 H226       -7.0725  -23.4751  -51.8924 H         1 UNK         0.0600 
    227 H227       -7.7415  -25.8614  -51.5714 H         1 UNK         0.0600 
    228 H228       -7.9119  -26.0525  -53.3161 H         1 UNK         0.0600 
    229 H229       -8.9652  -24.9507  -52.4397 H         1 UNK         0.0600 
    230 H230       -5.3207  -22.5909  -53.9314 H         1 UNK         0.3000 
    231 H231       -7.2292  -21.5589  -55.9329 H         1 UNK         0.0600 
    232 H232       -6.0904  -23.5341  -56.9993 H         1 UNK         0.0600 
    233 H233       -4.5165  -22.8627  -56.5774 H         1 UNK         0.0600 
    234 H234       -5.5491  -22.0341  -57.7372 H         1 UNK         0.0600 
    235 H235       -6.2189  -19.7235  -57.1141 H         1 UNK         0.3000 
    236 H236       -4.8081  -17.8860  -55.3246 H         1 UNK         0.0600 
    237 H237       -5.1906  -16.2873  -57.2025 H         1 UNK         0.0600 
    238 H238       -5.7884  -17.5908  -58.2223 H         1 UNK         0.0600 
    239 H239       -6.6860  -17.1045  -56.7845 H         1 UNK         0.0600 
    240 H240       -2.8681  -16.7360  -56.0497 H         1 UNK         0.3000 
    241 H241       -0.7921  -18.4977  -56.9331 H         1 UNK         0.0600 
    242 H242       -1.8992  -16.6195  -60.3428 H         1 UNK         0.3800 
    243 H243       -2.9276  -16.6123  -58.9348 H         1 UNK         0.3800 
    244 H244        0.7075  -16.5175  -56.6403 H         1 UNK         0.0800 
    245 H245       -0.6796  -15.4902  -56.4287 H         1 UNK         0.0800 
    246 H246        2.0063  -17.3264  -54.8918 H         1 UNK         0.0800 
    247 H247        1.0769  -18.7961  -54.7089 H         1 UNK         0.0800 
@<TRIPOS>BOND
     1    1    2 1    
     2    1  127 1    
     3    1  128 1    
     4    1  129 1    
     5    2    3 2    
     6    2    4 am   BACKBONE|DICT|INTERRES
     7    4    5 1    
     8    4  130 1    
     9    5    6 1    
    10    5   65 1    
    11    5  131 1    
    12    6    7 1    
    13    6  132 1    
    14    6  133 1    
    15    7    8 1    
    16    8    9 1    
    17    8  134 1    
    18    8  135 1    
    19    9   10 ar   
    20    9   14 ar   
    21   10   11 ar   
    22   10  136 1    
    23   11   12 ar   
    24   11  126 1    
    25   12   13 ar   
    26   12  137 1    
    27   13   14 ar   
    28   13   15 1    
    29   14  138 1    
    30   15   16 1    
    31   15  139 1    
    32   15  140 1    
    33   16   17 1    
    34   17   18 1    
    35   17  141 1    
    36   17  142 1    
    37   18   19 1    
    38   18   67 1    
    39   18  143 1    
    40   19   20 am   BACKBONE|DICT|INTERRES
    41   19  144 1    
    42   20   21 2    
    43   20   22 1    
    44   22   23 1    
    45   22   24 1    
    46   22  145 1    
    47   23  146 1    
    48   23  147 1    
    49   23  148 1    
    50   24   25 am   BACKBONE|DICT|INTERRES
    51   24  149 1    
    52   25   26 2    
    53   25   27 1    
    54   27   28 1    
    55   27   29 1    
    56   27  150 1    
    57   28  151 1    
    58   28  152 1    
    59   28  153 1    
    60   29   30 am   BACKBONE|DICT|INTERRES
    61   29  154 1    
    62   30   31 2    
    63   30   32 1    
    64   32   33 1    
    65   32   34 1    
    66   32  155 1    
    67   33  156 1    
    68   33  157 1    
    69   33  158 1    
    70   34   35 am   BACKBONE|DICT|INTERRES
    71   34  159 1    
    72   35   36 2    
    73   35   37 1    
    74   37   38 1    
    75   37   39 1    
    76   37  160 1    
    77   38  161 1    
    78   38  162 1    
    79   38  163 1    
    80   39   40 am   BACKBONE|DICT|INTERRES
    81   39  164 1    
    82   40   41 2    
    83   40   42 1    
    84   42   43 1    
    85   42   44 1    
    86   42  165 1    
    87   43  166 1    
    88   43  167 1    
    89   43  168 1    
    90   44   45 am   BACKBONE|DICT|INTERRES
    91   44  169 1    
    92   45   46 2    
    93   45   47 1    
    94   47   48 1    
    95   47   49 1    
    96   47  170 1    
    97   48  171 1    
    98   48  172 1    
    99   48  173 1    
   100   49   50 am   BACKBONE|DICT|INTERRES
   101   49  174 1    
   102   50   51 2    
   103   50   52 1    
   104   52   53 1    
   105   52   54 1    
   106   52  175 1    
   107   53  176 1    
   108   53  177 1    
   109   53  178 1    
   110   54   55 am   BACKBONE|DICT|INTERRES
   111   54  179 1    
   112   55   56 2    
   113   55   57 1    
   114   57   58 1    
   115   57   59 1    
   116   57  180 1    
   117   58  181 1    
   118   58  182 1    
   119   58  183 1    
   120   59   60 am   BACKBONE|DICT|INTERRES
   121   59  184 1    
   122   60   61 2    
   123   60   62 1    
   124   62   63 1    
   125   62   64 1    
   126   62  185 1    
   127   63  186 1    
   128   63  187 1    
   129   63  188 1    
   130   64   65 am   BACKBONE|DICT|INTERRES
   131   64  189 1    
   132   65   66 2    
   133   67   68 2    
   134   67   69 am   BACKBONE|DICT|INTERRES
   135   69   70 1    
   136   69  190 1    
   137   70   71 1    
   138   70   72 1    
   139   70  191 1    
   140   71  192 1    
   141   71  193 1    
   142   71  194 1    
   143   72   73 2    
   144   72   74 am   BACKBONE|DICT|INTERRES
   145   74   75 1    
   146   74  195 1    
   147   75   76 1    
   148   75   77 1    
   149   75  196 1    
   150   76  197 1    
   151   76  198 1    
   152   76  199 1    
   153   77   78 2    
   154   77   79 am   BACKBONE|DICT|INTERRES
   155   79   80 1    
   156   79  200 1    
   157   80   81 1    
   158   80   82 1    
   159   80  201 1    
   160   81  202 1    
   161   81  203 1    
   162   81  204 1    
   163   82   83 2    
   164   82   84 am   BACKBONE|DICT|INTERRES
   165   84   85 1    
   166   84  205 1    
   167   85   86 1    
   168   85   87 1    
   169   85  206 1    
   170   86  207 1    
   171   86  208 1    
   172   86  209 1    
   173   87   88 2    
   174   87   89 am   BACKBONE|DICT|INTERRES
   175   89   90 1    
   176   89  210 1    
   177   90   91 1    
   178   90   92 1    
   179   90  211 1    
   180   91  212 1    
   181   91  213 1    
   182   91  214 1    
   183   92   93 2    
   184   92   94 am   BACKBONE|DICT|INTERRES
   185   94   95 1    
   186   94  215 1    
   187   95   96 1    
   188   95   97 1    
   189   95  216 1    
   190   96  217 1    
   191   96  218 1    
   192   96  219 1    
   193   97   98 2    
   194   97   99 am   BACKBONE|DICT|INTERRES
   195   99  100 1    
   196   99  220 1    
   197  100  101 1    
   198  100  102 1    
   199  100  221 1    
   200  101  222 1    
   201  101  223 1    
   202  101  224 1    
   203  102  103 2    
   204  102  104 am   BACKBONE|DICT|INTERRES
   205  104  105 1    
   206  104  225 1    
   207  105  106 1    
   208  105  107 1    
   209  105  226 1    
   210  106  227 1    
   211  106  228 1    
   212  106  229 1    
   213  107  108 2    
   214  107  109 am   BACKBONE|DICT|INTERRES
   215  109  110 1    
   216  109  230 1    
   217  110  111 1    
   218  110  112 1    
   219  110  231 1    
   220  111  232 1    
   221  111  233 1    
   222  111  234 1    
   223  112  113 2    
   224  112  114 am   BACKBONE|DICT|INTERRES
   225  114  115 1    
   226  114  235 1    
   227  115  116 1    
   228  115  117 1    
   229  115  236 1    
   230  116  237 1    
   231  116  238 1    
   232  116  239 1    
   233  117  118 2    
   234  117  119 am   BACKBONE|DICT|INTERRES
   235  119  120 1    
   236  119  240 1    
   237  120  121 1    
   238  120  124 1    
   239  120  241 1    
   240  121  122 am   BACKBONE|DICT|INTERRES
   241  121  123 2    
   242  122  242 1    
   243  122  243 1    
   244  124  125 1    
   245  124  244 1    
   246  124  245 1    
   247  125  126 1    
   248  126  246 1    
   249  126  247 1    
@<TRIPOS>SUBSTRUCTURE
     1 UNK         1 GROUP             0       ****    0 ROOT    
