@<TRIPOS>MOLECULE
3R540
247   249    1
SMALL
USER_CHARGES


@<TRIPOS>ATOM
      1 CA         -2.2431  -13.5845  -42.8603 C.3       0 UNK        -0.1800 
      2 C          -1.7371  -13.4910  -44.2927 C.2       0 UNK         0.5000 
      3 O          -1.1037  -14.4262  -44.7731 O.2       0 UNK        -0.5000 
      4 N          -2.0297  -12.3748  -44.9725 N.am      1 UNK        -0.5000 
      5 CA         -1.5328  -12.0004  -46.3033 C.3       1 UNK         0.1400 
      6 C6         -1.6772  -13.1159  -47.3800 C.3       23 UNK        -0.0398 
      7 S7         -1.9250  -12.4656  -49.0694 S.3       23 UNK        -0.2404 
      8 C8         -3.4613  -13.3016  -49.5763 C.3       23 UNK        -0.0205 
      9 C9         -3.2750  -14.8056  -49.7244 C.ar      23 UNK        -0.0193 
     10 C10        -2.4923  -15.3169  -50.7617 C.ar      23 UNK        -0.1150 
     11 C11        -2.3300  -16.6973  -50.9226 C.ar      23 UNK        -0.0193 
     12 C12        -2.9548  -17.5636  -50.0195 C.ar      23 UNK        -0.1150 
     13 C13        -3.7366  -17.0700  -48.9650 C.ar      23 UNK        -0.0193 
     14 C14        -3.8920  -15.6869  -48.8332 C.ar      23 UNK        -0.1150 
     15 C15        -4.4559  -17.9709  -47.9566 C.3       23 UNK        -0.0205 
     16 S16        -4.0052  -19.7416  -47.9838 S.3       23 UNK        -0.2404 
     17 C17        -2.4530  -19.7057  -47.0275 C.3       23 UNK        -0.0398 
     18 CA         -1.8248  -21.1117  -46.8486 C.3       11 UNK         0.1400 
     19 N          -0.3901  -21.0118  -46.5774 N.am      11 UNK        -0.5000 
     20 C           0.5393  -21.9253  -46.8812 C.2       10 UNK         0.5000 
     21 O           0.2895  -22.9809  -47.4631 O.2       10 UNK        -0.5000 
     22 CA          1.9743  -21.6328  -46.4074 C.3       10 UNK         0.1400 
     23 CB          2.6706  -20.6401  -47.3504 C.3       10 UNK        -0.1800 
     24 N           2.0109  -21.1221  -45.0353 N.am      10 UNK        -0.5000 
     25 C           1.6835  -21.8433  -43.9522 C.2       9 UNK         0.5000 
     26 O           1.3833  -23.0368  -43.9907 O.2       9 UNK        -0.5000 
     27 CA          1.6778  -21.1102  -42.5983 C.3       9 UNK         0.1400 
     28 CB          3.0945  -21.0502  -42.0077 C.3       9 UNK        -0.1800 
     29 N           1.1229  -19.7592  -42.6893 N.am      9 UNK        -0.5000 
     30 C          -0.1659  -19.4830  -42.9384 C.2       8 UNK         0.5000 
     31 O          -1.0401  -20.3422  -43.0467 O.2       8 UNK        -0.5000 
     32 CA         -0.5374  -17.9999  -43.1324 C.3       8 UNK         0.1400 
     33 CB         -0.7796  -17.3149  -41.7798 C.3       8 UNK        -0.1800 
     34 N           0.4757  -17.2576  -43.8823 N.am      8 UNK        -0.5000 
     35 C           0.8151  -17.5118  -45.1530 C.2       7 UNK         0.5000 
     36 O           0.2770  -18.3768  -45.8416 O.2       7 UNK        -0.5000 
     37 CA          1.9998  -16.7233  -45.7340 C.3       7 UNK         0.1400 
     38 CB          1.5547  -15.3699  -46.3048 C.3       7 UNK        -0.1800 
     39 N           3.0679  -16.5425  -44.7508 N.am      7 UNK        -0.5000 
     40 C           3.8703  -17.5334  -44.3375 C.2       6 UNK         0.5000 
     41 O           3.8211  -18.6807  -44.7815 O.2       6 UNK        -0.5000 
     42 CA          4.8608  -17.1998  -43.2085 C.3       6 UNK         0.1400 
     43 CB          6.1440  -16.5718  -43.7699 C.3       6 UNK        -0.1800 
     44 N           4.2750  -16.3142  -42.2011 N.am      6 UNK        -0.5000 
     45 C           3.3386  -16.7076  -41.3253 C.2       5 UNK         0.5000 
     46 O           2.8926  -17.8531  -41.2781 O.2       5 UNK        -0.5000 
     47 CA          2.7761  -15.6453  -40.3617 C.3       5 UNK         0.1400 
     48 CB          3.6162  -15.5871  -39.0775 C.3       5 UNK        -0.1800 
     49 N           2.6853  -14.3030  -40.9380 N.am      5 UNK        -0.5000 
     50 C           1.9884  -13.9774  -42.0347 C.2       4 UNK         0.5000 
     51 O           1.3573  -14.7951  -42.7031 O.2       4 UNK        -0.5000 
     52 CA          2.0202  -12.5046  -42.4884 C.3       4 UNK         0.1400 
     53 CB          2.6915  -11.5445  -41.4812 C.3       4 UNK        -0.1800 
     54 N           2.6318  -12.3521  -43.8104 N.am      4 UNK        -0.5000 
     55 C           3.8475  -12.7688  -44.2000 C.2       3 UNK         0.5000 
     56 O           4.6148  -13.4018  -43.4725 O.2       3 UNK        -0.5000 
     57 CA          4.2865  -12.4310  -45.6396 C.3       3 UNK         0.1400 
     58 CB          4.9668  -13.6251  -46.3314 C.3       3 UNK        -0.1800 
     59 N           3.1742  -11.9520  -46.4684 N.am      3 UNK        -0.5000 
     60 C           2.9333  -10.6605  -46.7288 C.2       2 UNK         0.5000 
     61 O           3.6287   -9.7351  -46.3081 O.2       2 UNK        -0.5000 
     62 CA          1.7036  -10.3361  -47.5976 C.3       2 UNK         0.1400 
     63 CB          2.0769  -10.3832  -49.0873 C.3       2 UNK        -0.1800 
     64 N           0.5206  -11.1761  -47.3797 N.am      2 UNK        -0.5000 
     65 C          -0.1207  -11.3683  -46.2188 C.2       1 UNK         0.5000 
     66 O           0.3331  -11.0117  -45.1283 O.2       1 UNK        -0.5000 
     67 C          -2.5427  -21.9964  -45.8015 C.2       11 UNK         0.5000 
     68 O          -3.5407  -21.5865  -45.2055 O.2       11 UNK        -0.5000 
     69 N          -2.0232  -23.2140  -45.6051 N.am      12 UNK        -0.5000 
     70 CA         -2.6567  -24.2777  -44.8324 C.3       12 UNK         0.1400 
     71 CB         -1.6086  -25.3622  -44.5402 C.3       12 UNK        -0.1800 
     72 C          -3.8386  -24.8775  -45.6135 C.2       12 UNK         0.5000 
     73 O          -3.8248  -24.8656  -46.8474 O.2       12 UNK        -0.5000 
     74 N          -4.8133  -25.4470  -44.8939 N.am      13 UNK        -0.5000 
     75 CA         -6.0045  -26.0828  -45.4705 C.3       13 UNK         0.1400 
     76 CB         -6.9665  -26.4738  -44.3385 C.3       13 UNK        -0.1800 
     77 C          -5.6881  -27.3041  -46.3577 C.2       13 UNK         0.5000 
     78 O          -6.4052  -27.5538  -47.3266 O.2       13 UNK        -0.5000 
     79 N          -4.6065  -28.0222  -46.0246 N.am      14 UNK        -0.5000 
     80 CA         -4.0853  -29.1477  -46.8011 C.3       14 UNK         0.1400 
     81 CB         -3.1604  -29.9848  -45.9040 C.3       14 UNK        -0.1800 
     82 C          -3.3395  -28.7044  -48.0755 C.2       14 UNK         0.5000 
     83 O          -3.3031  -29.4626  -49.0454 O.2       14 UNK        -0.5000 
     84 N          -2.7528  -27.4993  -48.0511 N.am      15 UNK        -0.5000 
     85 CA         -2.0408  -26.9034  -49.1814 C.3       15 UNK         0.1400 
     86 CB         -0.9953  -25.9047  -48.6601 C.3       15 UNK        -0.1800 
     87 C          -3.0099  -26.2155  -50.1561 C.2       15 UNK         0.5000 
     88 O          -2.8532  -26.3619  -51.3683 O.2       15 UNK        -0.5000 
     89 N          -3.9906  -25.4870  -49.5988 N.am      16 UNK        -0.5000 
     90 CA         -5.0449  -24.7352  -50.2867 C.3       16 UNK         0.1400 
     91 CB         -6.0251  -25.6941  -50.9926 C.3       16 UNK        -0.1800 
     92 C          -4.4886  -23.6461  -51.2272 C.2       16 UNK         0.5000 
     93 O          -5.0249  -23.4354  -52.3182 O.2       16 UNK        -0.5000 
     94 N          -3.4168  -22.9671  -50.7846 N.am      17 UNK        -0.5000 
     95 CA         -2.6432  -21.9841  -51.5546 C.3       17 UNK         0.1400 
     96 CB         -1.4836  -21.4475  -50.7036 C.3       17 UNK        -0.1800 
     97 C          -3.4713  -20.8185  -52.1233 C.2       17 UNK         0.5000 
     98 O          -3.1166  -20.2956  -53.1784 O.2       17 UNK        -0.5000 
     99 N          -4.5840  -20.4770  -51.4586 N.am      18 UNK        -0.5000 
    100 CA        -5.5817  -19.4982  -51.8994 C.3       18 UNK         0.1400 
    101 CB        -6.7106  -19.4376  -50.8600 C.3       18 UNK        -0.1800 
    102 C         -6.1777  -19.7891  -53.2917 C.2       18 UNK         0.5000 
    103 O         -6.5786  -18.8494  -53.9775 O.2       18 UNK        -0.5000 
    104 N         -6.2168  -21.0717  -53.6762 N.am      19 UNK        -0.5000 
    105 CA        -6.6236  -21.5385  -54.9978 C.3       19 UNK         0.1400 
    106 CB        -7.7365  -22.5865  -54.8389 C.3       19 UNK        -0.1800 
    107 C         -5.4300  -22.1354  -55.7608 C.2       19 UNK         0.5000 
    108 O         -5.2884  -21.8759  -56.9559 O.2       19 UNK        -0.5000 
    109 N         -4.5956  -22.9265  -55.0708 N.am      20 UNK        -0.5000 
    110 CA        -3.5108  -23.7056  -55.6708 C.3       20 UNK         0.1400 
    111 CB        -3.0502  -24.7803  -54.6736 C.3       20 UNK        -0.1800 
    112 C         -2.3124  -22.8700  -56.1596 C.2       20 UNK         0.5000 
    113 O         -1.6245  -23.3088  -57.0827 O.2       20 UNK        -0.5000 
    114 N         -2.0754  -21.7035  -55.5456 N.am      21 UNK        -0.5000 
    115 CA        -0.9825  -20.7928  -55.8915 C.3       21 UNK         0.1400 
    116 CB        -0.0127  -20.6765  -54.7026 C.3       21 UNK        -0.1800 
    117 C         -1.5294  -19.4161  -56.2934 C.2       21 UNK         0.5000 
    118 O         -1.1593  -18.8982  -57.3477 O.2       21 UNK        -0.5000 
    119 N         -2.4084  -18.8589  -55.4543 N.am      22 UNK        -0.5000 
    120 CA        -3.0301  -17.5367  -55.6257 C.3       22 UNK         0.1400 
    121 C         -4.3781  -17.5631  -56.4051 C.2       22 UNK         0.5000 
    122 N         -4.8236  -18.6933  -56.9395 N.am      22 UNK        -0.7600 
    123 O         -5.0206  -16.5280  -56.5605 O.2       22 UNK        -0.5000 
    124 C124       -3.1473  -16.7959  -54.2671 C.3       23 UNK        -0.0398 
    125 S125       -1.5034  -16.3547  -53.6036 S.3       23 UNK        -0.2404 
    126 C126       -1.4436  -17.2724  -52.0267 C.3       23 UNK        -0.0205 
    127 H127       -1.4023  -13.6983  -42.1760 H         1 UNK         0.0600 
    128 H128       -2.8037  -12.6965  -42.5674 H         1 UNK         0.0600 
    129 H129       -2.8937  -14.4519  -42.7488 H         1 UNK         0.0600 
    130 H130       -2.5403  -11.6441  -44.4972 H         1 UNK         0.3000 
    131 H131       -2.1890  -11.1805  -46.5994 H         1 UNK         0.0600 
    132 H132       -0.8137  -13.7800  -47.3821 H         1 UNK         0.0800 
    133 H133       -2.5293  -13.7490  -47.1318 H         1 UNK         0.0800 
    134 H134       -4.2521  -13.0721  -48.8604 H         1 UNK         0.0800 
    135 H135       -3.7869  -12.8892  -50.5323 H         1 UNK         0.0800 
    136 H136       -2.0037  -14.6306  -51.4386 H         1 UNK         0.1150 
    137 H137       -2.8206  -18.6260  -50.1450 H         1 UNK         0.1150 
    138 H138       -4.5003  -15.2941  -48.0303 H         1 UNK         0.1150 
    139 H139       -4.2905  -17.5867  -46.9488 H         1 UNK         0.0800 
    140 H140       -5.5282  -17.8884  -48.1337 H         1 UNK         0.0800 
    141 H141       -2.6163  -19.2215  -46.0629 H         1 UNK         0.0800 
    142 H142       -1.7635  -19.0593  -47.5728 H         1 UNK         0.0800 
    143 H143       -1.9350  -21.6417  -47.7951 H         1 UNK         0.0600 
    144 H144       -0.0911  -20.1538  -46.1184 H         1 UNK         0.3000 
    145 H145        2.5319  -22.5713  -46.4336 H         1 UNK         0.0600 
    146 H146        3.7057  -20.4729  -47.0517 H         1 UNK         0.0600 
    147 H147        2.6834  -21.0181  -48.3734 H         1 UNK         0.0600 
    148 H148        2.1669  -19.6736  -47.3645 H         1 UNK         0.0600 
    149 H149        2.3053  -20.1600  -44.9134 H         1 UNK         0.3000 
    150 H150        1.0517  -21.6858  -41.9132 H         1 UNK         0.0600 
    151 H151        3.5286  -22.0477  -41.9297 H         1 UNK         0.0600 
    152 H152        3.0850  -20.6216  -41.0054 H         1 UNK         0.0600 
    153 H153        3.7632  -20.4475  -42.6229 H         1 UNK         0.0600 
    154 H154        1.7680  -18.9918  -42.5346 H         1 UNK         0.3000 
    155 H155       -1.4661  -17.9597  -43.7054 H         1 UNK         0.0600 
    156 H156       -1.0689  -16.2725  -41.9124 H         1 UNK         0.0600 
    157 H157        0.1115  -17.3384  -41.1532 H         1 UNK         0.0600 
    158 H158       -1.5811  -17.8099  -41.2303 H         1 UNK         0.0600 
    159 H159        0.9074  -16.4651  -43.4125 H         1 UNK         0.3000 
    160 H160        2.3950  -17.3105  -46.5656 H         1 UNK         0.0600 
    161 H161        1.3925  -14.6307  -45.5204 H         1 UNK         0.0600 
    162 H162        0.6226  -15.4773  -46.8596 H         1 UNK         0.0600 
    163 H163        2.2891  -14.9727  -47.0029 H         1 UNK         0.0600 
    164 H164        3.1121  -15.6525  -44.2756 H         1 UNK         0.3000 
    165 H165        5.1346  -18.1385  -42.7216 H         1 UNK         0.0600 
    166 H166        5.9463  -15.6190  -44.2588 H         1 UNK         0.0600 
    167 H167        6.8752  -16.3973  -42.9805 H         1 UNK         0.0600 
    168 H168        6.6098  -17.2281  -44.5061 H         1 UNK         0.0600 
    169 H169        4.5547  -15.3411  -42.2231 H         1 UNK         0.3000 
    170 H170        1.7645  -15.9521  -40.0905 H         1 UNK         0.0600 
    171 H171        3.6835  -16.5704  -38.6100 H         1 UNK         0.0600 
    172 H172        4.6336  -15.2482  -39.2774 H         1 UNK         0.0600 
    173 H173        3.1736  -14.9110  -38.3458 H         1 UNK         0.0600 
    174 H174        3.2023  -13.5748  -40.4674 H         1 UNK         0.3000 
    175 H175        0.9782  -12.1992  -42.5937 H         1 UNK         0.0600 
    176 H176        2.6137  -10.5122  -41.8228 H         1 UNK         0.0600 
    177 H177        2.2073  -11.5927  -40.5049 H         1 UNK         0.0600 
    178 H178        3.7510  -11.7638  -41.3437 H         1 UNK         0.0600 
    179 H179        2.0516  -11.8646  -44.4852 H         1 UNK         0.3000 
    180 H180        5.0424  -11.6483  -45.5506 H         1 UNK         0.0600 
    181 H181        4.3674  -14.5313  -46.2781 H         1 UNK         0.0600 
    182 H182        5.9256  -13.8451  -45.8612 H         1 UNK         0.0600 
    183 H183        5.1687  -13.4141  -47.3816 H         1 UNK         0.0600 
    184 H184        2.5428  -12.6464  -46.8398 H         1 UNK         0.3000 
    185 H185        1.4093   -9.3121  -47.3590 H         1 UNK         0.0600 
    186 H186        1.2567  -10.0288  -49.7120 H         1 UNK         0.0600 
    187 H187        2.9393   -9.7486  -49.2964 H         1 UNK         0.0600 
    188 H188        2.3288  -11.3954  -49.4063 H         1 UNK         0.0600 
    189 H189        0.0626  -11.5084  -48.2187 H         1 UNK         0.3000 
    190 H190       -1.2085  -23.4697  -46.1514 H         1 UNK         0.3000 
    191 H191       -3.0198  -23.8658  -43.8886 H         1 UNK         0.0600 
    192 H192       -0.7669  -24.9530  -43.9809 H         1 UNK         0.0600 
    193 H193       -2.0324  -26.1695  -43.9418 H         1 UNK         0.0600 
    194 H194       -1.2155  -25.8026  -45.4576 H         1 UNK         0.0600 
    195 H195       -4.7547  -25.4324  -43.8857 H         1 UNK         0.3000 
    196 H196       -6.5026  -25.3433  -46.1012 H         1 UNK         0.0600 
    197 H197       -7.8744  -26.9287  -44.7371 H         1 UNK         0.0600 
    198 H198       -7.2698  -25.6016  -43.7591 H         1 UNK         0.0600 
    199 H199       -6.5128  -27.1917  -43.6541 H         1 UNK         0.0600 
    200 H200       -4.0886  -27.7568  -45.2002 H         1 UNK         0.3000 
    201 H201       -4.9229  -29.7776  -47.1085 H         1 UNK         0.0600 
    202 H202       -3.6929  -30.3610  -45.0304 H         1 UNK         0.0600 
    203 H203       -2.3054  -29.4051  -45.5535 H         1 UNK         0.0600 
    204 H204       -2.7715  -30.8497  -46.4433 H         1 UNK         0.0600 
    205 H205       -2.8848  -26.9129  -47.2402 H         1 UNK         0.3000 
    206 H206       -1.5117  -27.6879  -49.7270 H         1 UNK         0.0600 
    207 H207       -1.4535  -25.0867  -48.1043 H         1 UNK         0.0600 
    208 H208       -0.2760  -26.3927  -48.0024 H         1 UNK         0.0600 
    209 H209       -0.4335  -25.4620  -49.4836 H         1 UNK         0.0600 
    210 H210       -3.9885  -25.3923  -48.5847 H         1 UNK         0.3000 
    211 H211       -5.6006  -24.2098  -49.5089 H         1 UNK         0.0600 
    212 H212       -5.5521  -26.2166  -51.8247 H         1 UNK         0.0600 
    213 H213       -6.8831  -25.1525  -51.3926 H         1 UNK         0.0600 
    214 H214       -6.4087  -26.4434  -50.2998 H         1 UNK         0.0600 
    215 H215       -3.0506  -23.2144  -49.8773 H         1 UNK         0.3000 
    216 H216       -2.2115  -22.5142  -52.4044 H         1 UNK         0.0600 
    217 H217       -0.8937  -22.2561  -50.2709 H         1 UNK         0.0600 
    218 H218       -1.8400  -20.8144  -49.8932 H         1 UNK         0.0600 
    219 H219       -0.8077  -20.8419  -51.3087 H         1 UNK         0.0600 
    220 H220       -4.7853  -20.9621  -50.5968 H         1 UNK         0.3000 
    221 H221       -5.0942  -18.5228  -51.9397 H         1 UNK         0.0600 
    222 H222       -7.2302  -20.3929  -50.7754 H         1 UNK         0.0600 
    223 H223       -6.3303  -19.1777  -49.8748 H         1 UNK         0.0600 
    224 H224       -7.4505  -18.6830  -51.1298 H         1 UNK         0.0600 
    225 H225       -5.8546  -21.7771  -53.0434 H         1 UNK         0.3000 
    226 H226       -7.0173  -20.7136  -55.5952 H         1 UNK         0.0600 
    227 H227       -8.6125  -22.1566  -54.3530 H         1 UNK         0.0600 
    228 H228       -8.0567  -22.9675  -55.8095 H         1 UNK         0.0600 
    229 H229       -7.4079  -23.4382  -54.2416 H         1 UNK         0.0600 
    230 H230       -4.7845  -23.1096  -54.0881 H         1 UNK         0.3000 
    231 H231       -3.9191  -24.2197  -56.5437 H         1 UNK         0.0600 
    232 H232       -2.6221  -24.3425  -53.7727 H         1 UNK         0.0600 
    233 H233       -2.2895  -25.4245  -55.1161 H         1 UNK         0.0600 
    234 H234       -3.8792  -25.4198  -54.3691 H         1 UNK         0.0600 
    235 H235       -2.6969  -21.3995  -54.8051 H         1 UNK         0.3000 
    236 H236       -0.4162  -21.1729  -56.7442 H         1 UNK         0.0600 
    237 H237        0.8189  -20.0131  -54.9430 H         1 UNK         0.0600 
    238 H238        0.4094  -21.6477  -54.4446 H         1 UNK         0.0600 
    239 H239       -0.5005  -20.2782  -53.8130 H         1 UNK         0.0600 
    240 H240       -2.6609  -19.3550  -54.6020 H         1 UNK         0.3000 
    241 H241       -2.3742  -16.9321  -56.2550 H         1 UNK         0.0600 
    242 H242       -4.3055  -19.5524  -56.8477 H         1 UNK         0.3800 
    243 H243       -5.6927  -18.6869  -57.4484 H         1 UNK         0.3800 
    244 H244       -3.7059  -15.8647  -54.3738 H         1 UNK         0.0800 
    245 H245       -3.6987  -17.4002  -53.5463 H         1 UNK         0.0800 
    246 H246       -1.6919  -18.3154  -52.2198 H         1 UNK         0.0800 
    247 H247       -0.4140  -17.2670  -51.6676 H         1 UNK         0.0800 
@<TRIPOS>BOND
     1    1    2 1    
     2    1  127 1    
     3    1  128 1    
     4    1  129 1    
     5    2    3 2    
     6    2    4 am   BACKBONE|DICT|INTERRES
     7    4    5 1    
     8    4  130 1    
     9    5    6 1    
    10    5   65 1    
    11    5  131 1    
    12    6    7 1    
    13    6  132 1    
    14    6  133 1    
    15    7    8 1    
    16    8    9 1    
    17    8  134 1    
    18    8  135 1    
    19    9   10 ar   
    20    9   14 ar   
    21   10   11 ar   
    22   10  136 1    
    23   11   12 ar   
    24   11  126 1    
    25   12   13 ar   
    26   12  137 1    
    27   13   14 ar   
    28   13   15 1    
    29   14  138 1    
    30   15   16 1    
    31   15  139 1    
    32   15  140 1    
    33   16   17 1    
    34   17   18 1    
    35   17  141 1    
    36   17  142 1    
    37   18   19 1    
    38   18   67 1    
    39   18  143 1    
    40   19   20 am   BACKBONE|DICT|INTERRES
    41   19  144 1    
    42   20   21 2    
    43   20   22 1    
    44   22   23 1    
    45   22   24 1    
    46   22  145 1    
    47   23  146 1    
    48   23  147 1    
    49   23  148 1    
    50   24   25 am   BACKBONE|DICT|INTERRES
    51   24  149 1    
    52   25   26 2    
    53   25   27 1    
    54   27   28 1    
    55   27   29 1    
    56   27  150 1    
    57   28  151 1    
    58   28  152 1    
    59   28  153 1    
    60   29   30 am   BACKBONE|DICT|INTERRES
    61   29  154 1    
    62   30   31 2    
    63   30   32 1    
    64   32   33 1    
    65   32   34 1    
    66   32  155 1    
    67   33  156 1    
    68   33  157 1    
    69   33  158 1    
    70   34   35 am   BACKBONE|DICT|INTERRES
    71   34  159 1    
    72   35   36 2    
    73   35   37 1    
    74   37   38 1    
    75   37   39 1    
    76   37  160 1    
    77   38  161 1    
    78   38  162 1    
    79   38  163 1    
    80   39   40 am   BACKBONE|DICT|INTERRES
    81   39  164 1    
    82   40   41 2    
    83   40   42 1    
    84   42   43 1    
    85   42   44 1    
    86   42  165 1    
    87   43  166 1    
    88   43  167 1    
    89   43  168 1    
    90   44   45 am   BACKBONE|DICT|INTERRES
    91   44  169 1    
    92   45   46 2    
    93   45   47 1    
    94   47   48 1    
    95   47   49 1    
    96   47  170 1    
    97   48  171 1    
    98   48  172 1    
    99   48  173 1    
   100   49   50 am   BACKBONE|DICT|INTERRES
   101   49  174 1    
   102   50   51 2    
   103   50   52 1    
   104   52   53 1    
   105   52   54 1    
   106   52  175 1    
   107   53  176 1    
   108   53  177 1    
   109   53  178 1    
   110   54   55 am   BACKBONE|DICT|INTERRES
   111   54  179 1    
   112   55   56 2    
   113   55   57 1    
   114   57   58 1    
   115   57   59 1    
   116   57  180 1    
   117   58  181 1    
   118   58  182 1    
   119   58  183 1    
   120   59   60 am   BACKBONE|DICT|INTERRES
   121   59  184 1    
   122   60   61 2    
   123   60   62 1    
   124   62   63 1    
   125   62   64 1    
   126   62  185 1    
   127   63  186 1    
   128   63  187 1    
   129   63  188 1    
   130   64   65 am   BACKBONE|DICT|INTERRES
   131   64  189 1    
   132   65   66 2    
   133   67   68 2    
   134   67   69 am   BACKBONE|DICT|INTERRES
   135   69   70 1    
   136   69  190 1    
   137   70   71 1    
   138   70   72 1    
   139   70  191 1    
   140   71  192 1    
   141   71  193 1    
   142   71  194 1    
   143   72   73 2    
   144   72   74 am   BACKBONE|DICT|INTERRES
   145   74   75 1    
   146   74  195 1    
   147   75   76 1    
   148   75   77 1    
   149   75  196 1    
   150   76  197 1    
   151   76  198 1    
   152   76  199 1    
   153   77   78 2    
   154   77   79 am   BACKBONE|DICT|INTERRES
   155   79   80 1    
   156   79  200 1    
   157   80   81 1    
   158   80   82 1    
   159   80  201 1    
   160   81  202 1    
   161   81  203 1    
   162   81  204 1    
   163   82   83 2    
   164   82   84 am   BACKBONE|DICT|INTERRES
   165   84   85 1    
   166   84  205 1    
   167   85   86 1    
   168   85   87 1    
   169   85  206 1    
   170   86  207 1    
   171   86  208 1    
   172   86  209 1    
   173   87   88 2    
   174   87   89 am   BACKBONE|DICT|INTERRES
   175   89   90 1    
   176   89  210 1    
   177   90   91 1    
   178   90   92 1    
   179   90  211 1    
   180   91  212 1    
   181   91  213 1    
   182   91  214 1    
   183   92   93 2    
   184   92   94 am   BACKBONE|DICT|INTERRES
   185   94   95 1    
   186   94  215 1    
   187   95   96 1    
   188   95   97 1    
   189   95  216 1    
   190   96  217 1    
   191   96  218 1    
   192   96  219 1    
   193   97   98 2    
   194   97   99 am   BACKBONE|DICT|INTERRES
   195   99  100 1    
   196   99  220 1    
   197  100  101 1    
   198  100  102 1    
   199  100  221 1    
   200  101  222 1    
   201  101  223 1    
   202  101  224 1    
   203  102  103 2    
   204  102  104 am   BACKBONE|DICT|INTERRES
   205  104  105 1    
   206  104  225 1    
   207  105  106 1    
   208  105  107 1    
   209  105  226 1    
   210  106  227 1    
   211  106  228 1    
   212  106  229 1    
   213  107  108 2    
   214  107  109 am   BACKBONE|DICT|INTERRES
   215  109  110 1    
   216  109  230 1    
   217  110  111 1    
   218  110  112 1    
   219  110  231 1    
   220  111  232 1    
   221  111  233 1    
   222  111  234 1    
   223  112  113 2    
   224  112  114 am   BACKBONE|DICT|INTERRES
   225  114  115 1    
   226  114  235 1    
   227  115  116 1    
   228  115  117 1    
   229  115  236 1    
   230  116  237 1    
   231  116  238 1    
   232  116  239 1    
   233  117  118 2    
   234  117  119 am   BACKBONE|DICT|INTERRES
   235  119  120 1    
   236  119  240 1    
   237  120  121 1    
   238  120  124 1    
   239  120  241 1    
   240  121  122 am   BACKBONE|DICT|INTERRES
   241  121  123 2    
   242  122  242 1    
   243  122  243 1    
   244  124  125 1    
   245  124  244 1    
   246  124  245 1    
   247  125  126 1    
   248  126  246 1    
   249  126  247 1    
@<TRIPOS>SUBSTRUCTURE
     1 UNK         1 GROUP             0       ****    0 ROOT    
