@<TRIPOS>MOLECULE
3R540
247   249    1
SMALL
USER_CHARGES


@<TRIPOS>ATOM
      1 CA          3.4467  -16.3876  -47.1192 C.3       0 UNK        -0.1800 
      2 C           4.1820  -15.0514  -47.0829 C.2       0 UNK         0.5000 
      3 O           4.9673  -14.8212  -46.1658 O.2       0 UNK        -0.5000 
      4 N           3.9788  -14.1446  -48.0489 N.am      1 UNK        -0.5000 
      5 CA          3.0637  -14.2404  -49.1944 C.3       1 UNK         0.1400 
      6 C6          3.4528  -13.2320  -50.3095 C.3       23 UNK        -0.0398 
      7 S7          5.1046  -13.3720  -51.1050 S.3       23 UNK        -0.2404 
      8 C8          5.9482  -14.8747  -50.4755 C.3       23 UNK        -0.0205 
      9 C9          5.2646  -16.2141  -50.7548 C.ar      23 UNK        -0.0193 
     10 C10         4.3126  -16.3747  -51.7694 C.ar      23 UNK        -0.1150 
     11 C11         3.6781  -17.6034  -51.9611 C.ar      23 UNK        -0.0193 
     12 C12         4.0416  -18.6966  -51.1722 C.ar      23 UNK        -0.1150 
     13 C13         4.9937  -18.5605  -50.1591 C.ar      23 UNK        -0.0193 
     14 C14         5.5990  -17.3157  -49.9582 C.ar      23 UNK        -0.1150 
     15 C15         5.3809  -19.7546  -49.2925 C.3       23 UNK        -0.0205 
     16 S16         4.2140  -20.0315  -47.9157 S.3       23 UNK        -0.2404 
     17 C17         2.8632  -20.9416  -48.7389 C.3       23 UNK        -0.0398 
     18 CA          2.5530  -22.3205  -48.1069 C.3       11 UNK         0.1400 
     19 N           2.1127  -22.2265  -46.7099 N.am      11 UNK        -0.5000 
     20 C           1.9813  -23.2736  -45.8812 C.2       10 UNK         0.5000 
     21 O           2.2944  -24.4261  -46.1796 O.2       10 UNK        -0.5000 
     22 CA          1.3530  -23.0013  -44.5023 C.3       10 UNK         0.1400 
     23 CB          2.4146  -22.5629  -43.4819 C.3       10 UNK        -0.1800 
     24 N           0.2861  -22.0027  -44.5807 N.am      10 UNK        -0.5000 
     25 C          -0.9268  -22.2509  -45.0968 C.2       9 UNK         0.5000 
     26 O          -1.2825  -23.3599  -45.4908 O.2       9 UNK        -0.5000 
     27 CA         -1.8947  -21.0631  -45.2430 C.3       9 UNK         0.1400 
     28 CB         -2.7836  -20.9233  -43.9999 C.3       9 UNK        -0.1800 
     29 N          -1.2179  -19.7962  -45.5070 N.am      9 UNK        -0.5000 
     30 C          -0.4969  -19.5377  -46.6062 C.2       8 UNK         0.5000 
     31 O          -0.3699  -20.3250  -47.5406 O.2       8 UNK        -0.5000 
     32 CA          0.2483  -18.1979  -46.6526 C.3       8 UNK         0.1400 
     33 CB         -0.6608  -17.1084  -47.2224 C.3       8 UNK        -0.1800 
     34 N           0.7475  -17.7758  -45.3465 N.am      8 UNK        -0.5000 
     35 C           1.6363  -18.4525  -44.6075 C.2       7 UNK         0.5000 
     36 O           2.1238  -19.5303  -44.9457 O.2       7 UNK        -0.5000 
     37 CA          1.9998  -17.8396  -43.2468 C.3       7 UNK         0.1400 
     38 CB          3.0629  -16.7418  -43.4067 C.3       7 UNK        -0.1800 
     39 N           0.8149  -17.2834  -42.5945 N.am      7 UNK        -0.5000 
     40 C          -0.0809  -18.0118  -41.9146 C.2       6 UNK         0.5000 
     41 O           0.0400  -19.2186  -41.7019 O.2       6 UNK        -0.5000 
     42 CA         -1.3328  -17.2737  -41.4010 C.3       6 UNK         0.1400 
     43 CB         -1.0662  -16.6576  -40.0193 C.3       6 UNK        -0.1800 
     44 N          -1.8058  -16.2277  -42.3108 N.am      6 UNK        -0.5000 
     45 C          -2.3198  -16.4577  -43.5269 C.2       5 UNK         0.5000 
     46 O          -2.4510  -17.5816  -44.0101 O.2       5 UNK        -0.5000 
     47 CA         -2.7186  -15.2235  -44.3609 C.3       5 UNK         0.1400 
     48 CB         -4.1470  -14.7813  -44.0116 C.3       5 UNK        -0.1800 
     49 N          -1.8168  -14.0707  -44.2500 N.am      5 UNK        -0.5000 
     50 C          -0.4861  -14.0889  -44.4083 C.2       4 UNK         0.5000 
     51 O           0.1744  -15.1189  -44.5477 O.2       4 UNK        -0.5000 
     52 CA          0.2034  -12.7183  -44.4651 C.3       4 UNK         0.1400 
     53 CB          1.7232  -12.8172  -44.2394 C.3       4 UNK        -0.1800 
     54 N          -0.0419  -12.1511  -45.7859 N.am      4 UNK        -0.5000 
     55 C          -0.9873  -11.2524  -46.0869 C.2       3 UNK         0.5000 
     56 O          -1.7258  -10.7363  -45.2470 O.2       3 UNK        -0.5000 
     57 CA         -1.1520  -10.8727  -47.5747 C.3       3 UNK         0.1400 
     58 CB         -0.3268   -9.6188  -47.9014 C.3       3 UNK        -0.1800 
     59 N          -0.7744  -11.9437  -48.5007 N.am      3 UNK        -0.5000 
     60 C          -1.4277  -13.1067  -48.6312 C.2       2 UNK         0.5000 
     61 O          -2.4768  -13.3646  -48.0406 O.2       2 UNK        -0.5000 
     62 CA         -0.8084  -14.1716  -49.5637 C.3       2 UNK         0.1400 
     63 CB         -1.4560  -14.0941  -50.9545 C.3       2 UNK        -0.1800 
     64 N           0.6558  -14.1555  -49.7256 N.am      2 UNK        -0.5000 
     65 C           1.5866  -14.0687  -48.7611 C.2       1 UNK         0.5000 
     66 O           1.3153  -13.8660  -47.5782 O.2       1 UNK        -0.5000 
     67 C           1.5217  -23.0807  -48.9717 C.2       11 UNK         0.5000 
     68 O           1.8989  -23.9807  -49.7235 O.2       11 UNK        -0.5000 
     69 N           0.2407  -22.7120  -48.8308 N.am      12 UNK        -0.5000 
     70 CA         -0.8950  -23.2816  -49.5572 C.3       12 UNK         0.1400 
     71 CB         -2.1031  -22.3519  -49.3715 C.3       12 UNK        -0.1800 
     72 C          -1.2520  -24.7146  -49.1173 C.2       12 UNK         0.5000 
     73 O          -1.8807  -25.4422  -49.8875 O.2       12 UNK        -0.5000 
     74 N          -0.8612  -25.0868  -47.8899 N.am      13 UNK        -0.5000 
     75 CA         -1.0586  -26.3839  -47.2431 C.3       13 UNK         0.1400 
     76 CB         -0.1770  -27.4592  -47.9165 C.3       13 UNK        -0.1800 
     77 C          -2.5543  -26.7470  -47.1609 C.2       13 UNK         0.5000 
     78 O          -3.2963  -26.0698  -46.4495 O.2       13 UNK        -0.5000 
     79 N          -2.9821  -27.7756  -47.9052 N.am      14 UNK        -0.5000 
     80 CA         -4.3653  -28.2532  -47.9743 C.3       14 UNK         0.1400 
     81 CB         -4.4033  -29.5494  -48.7980 C.3       14 UNK        -0.1800 
     82 C          -5.3634  -27.2238  -48.5431 C.2       14 UNK         0.5000 
     83 O          -6.5461  -27.2880  -48.2057 O.2       14 UNK        -0.5000 
     84 N          -4.8810  -26.2915  -49.3785 N.am      15 UNK        -0.5000 
     85 CA         -5.6798  -25.1924  -49.9274 C.3       15 UNK         0.1400 
     86 CB         -5.0215  -24.7037  -51.2248 C.3       15 UNK        -0.1800 
     87 C          -5.8976  -24.0482  -48.9113 C.2       15 UNK         0.5000 
     88 O          -6.8634  -23.2955  -49.0453 O.2       15 UNK        -0.5000 
     89 N          -5.0238  -23.9707  -47.8933 N.am      16 UNK        -0.5000 
     90 CA         -5.1428  -23.1882  -46.6563 C.3       16 UNK         0.1400 
     91 CB         -6.2099  -23.8307  -45.7472 C.3       16 UNK        -0.1800 
     92 C          -5.3684  -21.6704  -46.8361 C.2       16 UNK         0.5000 
     93 O          -5.9957  -21.0451  -45.9815 O.2       16 UNK        -0.5000 
     94 N          -4.8762  -21.1050  -47.9475 N.am      17 UNK        -0.5000 
     95 CA         -4.9569  -19.7011  -48.3845 C.3       17 UNK         0.1400 
     96 CB         -4.3164  -18.7443  -47.3608 C.3       17 UNK        -0.1800 
     97 C          -6.3668  -19.2229  -48.7891 C.2       17 UNK         0.5000 
     98 O          -6.4750  -18.2865  -49.5820 O.2       17 UNK        -0.5000 
     99 N          -7.4183  -19.8865  -48.2886 N.am      18 UNK        -0.5000 
    100 CA        -8.8119  -19.7270  -48.7081 C.3       18 UNK         0.1400 
    101 CB        -9.7105  -20.5747  -47.7955 C.3       18 UNK        -0.1800 
    102 C         -9.0172  -20.1102  -50.1860 C.2       18 UNK         0.5000 
    103 O         -9.7989  -19.4629  -50.8839 O.2       18 UNK        -0.5000 
    104 N         -8.2640  -21.1183  -50.6374 N.am      19 UNK        -0.5000 
    105 CA        -8.0046  -21.4208  -52.0364 C.3       19 UNK         0.1400 
    106 CB        -8.4402  -22.8662  -52.3231 C.3       19 UNK        -0.1800 
    107 C         -6.4994  -21.2348  -52.2912 C.2       19 UNK         0.5000 
    108 O         -5.6997  -21.2893  -51.3530 O.2       19 UNK        -0.5000 
    109 N         -6.1400  -21.0174  -53.5623 N.am      20 UNK        -0.5000 
    110 CA        -4.7773  -20.9022  -54.1057 C.3       20 UNK         0.1400 
    111 CB        -3.9787  -22.1995  -53.8572 C.3       20 UNK        -0.1800 
    112 C         -3.9696  -19.6632  -53.6578 C.2       20 UNK         0.5000 
    113 O         -2.8442  -19.4987  -54.1340 O.2       20 UNK        -0.5000 
    114 N         -4.5286  -18.8240  -52.7712 N.am      21 UNK        -0.5000 
    115 CA        -3.9849  -17.5956  -52.1682 C.3       21 UNK         0.1400 
    116 CB        -3.7178  -16.5182  -53.2368 C.3       21 UNK        -0.1800 
    117 C         -2.7468  -17.8238  -51.2775 C.2       21 UNK         0.5000 
    118 O         -2.7581  -17.4515  -50.1062 O.2       21 UNK        -0.5000 
    119 N         -1.7194  -18.4501  -51.8480 N.am      22 UNK        -0.5000 
    120 CA        -0.4917  -18.9173  -51.1989 C.3       22 UNK         0.1400 
    121 C          0.1034  -20.1890  -51.8710 C.2       22 UNK         0.5000 
    122 N         -0.4962  -20.7549  -52.9139 N.am      22 UNK        -0.7600 
    123 O          1.1290  -20.6917  -51.4283 O.2       22 UNK        -0.5000 
    124 C124        0.5534  -17.7885  -50.9881 C.3       23 UNK        -0.0398 
    125 S125        1.0441  -16.8992  -52.5116 S.3       23 UNK        -0.2404 
    126 C126        2.5838  -17.7444  -53.0077 C.3       23 UNK        -0.0205 
    127 H127        3.4741  -16.8495  -48.1043 H         1 UNK         0.0600 
    128 H128        3.8950  -17.0917  -46.4184 H         1 UNK         0.0600 
    129 H129        2.4090  -16.2389  -46.8293 H         1 UNK         0.0600 
    130 H130        4.4662  -13.2642  -47.9749 H         1 UNK         0.3000 
    131 H131        3.1176  -15.2433  -49.6092 H         1 UNK         0.0600 
    132 H132        2.7401  -13.2883  -51.1334 H         1 UNK         0.0800 
    133 H133        3.3683  -12.2136  -49.9262 H         1 UNK         0.0800 
    134 H134        6.9334  -14.9120  -50.9417 H         1 UNK         0.0800 
    135 H135        6.1386  -14.7598  -49.4090 H         1 UNK         0.0800 
    136 H136        4.0334  -15.5419  -52.3979 H         1 UNK         0.1150 
    137 H137        3.5671  -19.6501  -51.3452 H         1 UNK         0.1150 
    138 H138        6.3330  -17.2027  -49.1724 H         1 UNK         0.1150 
    139 H139        5.4609  -20.6544  -49.9042 H         1 UNK         0.0800 
    140 H140        6.3742  -19.5945  -48.8708 H         1 UNK         0.0800 
    141 H141        3.1360  -21.0946  -49.7816 H         1 UNK         0.0800 
    142 H142        1.9789  -20.3040  -48.7492 H         1 UNK         0.0800 
    143 H143        3.4759  -22.9044  -48.1189 H         1 UNK         0.0600 
    144 H144        1.8758  -21.3034  -46.3686 H         1 UNK         0.3000 
    145 H145        0.9181  -23.9369  -44.1438 H         1 UNK         0.0600 
    146 H146        1.9660  -22.3452  -42.5125 H         1 UNK         0.0600 
    147 H147        3.1513  -23.3526  -43.3299 H         1 UNK         0.0600 
    148 H148        2.9563  -21.6759  -43.8084 H         1 UNK         0.0600 
    149 H149        0.5299  -21.0545  -44.3266 H         1 UNK         0.3000 
    150 H150       -2.5373  -21.2736  -46.0982 H         1 UNK         0.0600 
    151 H151       -3.2964  -21.8598  -43.7765 H         1 UNK         0.0600 
    152 H152       -3.5508  -20.1634  -44.1512 H         1 UNK         0.0600 
    153 H153       -2.2027  -20.6440  -43.1199 H         1 UNK         0.0600 
    154 H154       -1.3445  -19.0586  -44.8210 H         1 UNK         0.3000 
    155 H155        1.1078  -18.3153  -47.3154 H         1 UNK         0.0600 
    156 H156       -1.5839  -17.0189  -46.6528 H         1 UNK         0.0600 
    157 H157       -0.1666  -16.1379  -47.2191 H         1 UNK         0.0600 
    158 H158       -0.9387  -17.3430  -48.2479 H         1 UNK         0.0600 
    159 H159        0.4290  -16.8699  -45.0087 H         1 UNK         0.3000 
    160 H160        2.4199  -18.6293  -42.6201 H         1 UNK         0.0600 
    161 H161        2.7156  -15.9268  -44.0428 H         1 UNK         0.0600 
    162 H162        3.9711  -17.1431  -43.8580 H         1 UNK         0.0600 
    163 H163        3.3397  -16.3176  -42.4416 H         1 UNK         0.0600 
    164 H164        0.5998  -16.3166  -42.8026 H         1 UNK         0.3000 
    165 H165       -2.1298  -18.0130  -41.2960 H         1 UNK         0.0600 
    166 H166       -0.2944  -15.8882  -40.0631 H         1 UNK         0.0600 
    167 H167       -1.9690  -16.2058  -39.6079 H         1 UNK         0.0600 
    168 H168       -0.7327  -17.4173  -39.3111 H         1 UNK         0.0600 
    169 H169       -1.7220  -15.2724  -41.9960 H         1 UNK         0.3000 
    170 H170       -2.7160  -15.5228  -45.4092 H         1 UNK         0.0600 
    171 H171       -4.8481  -15.6116  -44.1079 H         1 UNK         0.0600 
    172 H172       -4.2148  -14.4101  -42.9883 H         1 UNK         0.0600 
    173 H173       -4.4895  -13.9909  -44.6799 H         1 UNK         0.0600 
    174 H174       -2.2646  -13.1688  -44.1659 H         1 UNK         0.3000 
    175 H175       -0.2165  -12.0846  -43.6813 H         1 UNK         0.0600 
    176 H176        1.9457  -13.2645  -43.2700 H         1 UNK         0.0600 
    177 H177        2.1875  -11.8314  -44.2589 H         1 UNK         0.0600 
    178 H178        2.2093  -13.4281  -45.0016 H         1 UNK         0.0600 
    179 H179        0.4625  -12.6069  -46.5442 H         1 UNK         0.3000 
    180 H180       -2.2062  -10.6402  -47.7395 H         1 UNK         0.0600 
    181 H181        0.7420   -9.7968  -47.7756 H         1 UNK         0.0600 
    182 H182       -0.6007   -8.7896  -47.2477 H         1 UNK         0.0600 
    183 H183       -0.4953   -9.2911  -48.9274 H         1 UNK         0.0600 
    184 H184        0.0824  -11.8161  -49.0176 H         1 UNK         0.3000 
    185 H185       -1.0715  -15.1402  -49.1414 H         1 UNK         0.0600 
    186 H186       -1.1855  -13.1739  -51.4735 H         1 UNK         0.0600 
    187 H187       -1.1552  -14.9351  -51.5790 H         1 UNK         0.0600 
    188 H188       -2.5441  -14.1237  -50.8814 H         1 UNK         0.0600 
    189 H189        0.9700  -14.3179  -50.6714 H         1 UNK         0.3000 
    190 H190        0.0310  -21.9147  -48.2319 H         1 UNK         0.3000 
    191 H191       -0.6412  -23.3112  -50.6188 H         1 UNK         0.0600 
    192 H192       -1.8855  -21.3425  -49.7181 H         1 UNK         0.0600 
    193 H193       -2.9672  -22.7009  -49.9336 H         1 UNK         0.0600 
    194 H194       -2.3877  -22.2901  -48.3215 H         1 UNK         0.0600 
    195 H195       -0.4480  -24.3769  -47.2992 H         1 UNK         0.3000 
    196 H196       -0.7145  -26.2700  -46.2141 H         1 UNK         0.0600 
    197 H197       -0.2764  -28.4221  -47.4138 H         1 UNK         0.0600 
    198 H198        0.8756  -27.1795  -47.8652 H         1 UNK         0.0600 
    199 H199       -0.4251  -27.6023  -48.9687 H         1 UNK         0.0600 
    200 H200       -2.3103  -28.2554  -48.4865 H         1 UNK         0.3000 
    201 H201       -4.6852  -28.4858  -46.9565 H         1 UNK         0.0600 
    202 H202       -3.7710  -30.3186  -48.3541 H         1 UNK         0.0600 
    203 H203       -4.0655  -29.3848  -49.8220 H         1 UNK         0.0600 
    204 H204       -5.4159  -29.9522  -48.8471 H         1 UNK         0.0600 
    205 H205       -3.8924  -26.2950  -49.6039 H         1 UNK         0.3000 
    206 H206       -6.6680  -25.5770  -50.1886 H         1 UNK         0.0600 
    207 H207       -4.9457  -25.5113  -51.9529 H         1 UNK         0.0600 
    208 H208       -5.6058  -23.9129  -51.6887 H         1 UNK         0.0600 
    209 H209       -4.0185  -24.3178  -51.0571 H         1 UNK         0.0600 
    210 H210       -4.2926  -24.6701  -47.8657 H         1 UNK         0.3000 
    211 H211       -4.1816  -23.2870  -46.1497 H         1 UNK         0.0600 
    212 H212       -7.2100  -23.7320  -46.1709 H         1 UNK         0.0600 
    213 H213       -6.2217  -23.3671  -44.7601 H         1 UNK         0.0600 
    214 H214       -6.0117  -24.8928  -45.6002 H         1 UNK         0.0600 
    215 H215       -4.4672  -21.7288  -48.6281 H         1 UNK         0.3000 
    216 H216       -4.3559  -19.6523  -49.2936 H         1 UNK         0.0600 
    217 H217       -3.2802  -19.0146  -47.1755 H         1 UNK         0.0600 
    218 H218       -4.8419  -18.7405  -46.4061 H         1 UNK         0.0600 
    219 H219       -4.3153  -17.7195  -47.7342 H         1 UNK         0.0600 
    220 H220       -7.2265  -20.6035  -47.6003 H         1 UNK         0.3000 
    221 H221       -9.0840  -18.6763  -48.5897 H         1 UNK         0.0600 
    222 H222       -9.4592  -21.6347  -47.8573 H         1 UNK         0.0600 
    223 H223       -9.6157  -20.2680  -46.7537 H         1 UNK         0.0600 
    224 H224      -10.7601  -20.4679  -48.0724 H         1 UNK         0.0600 
    225 H225       -7.6332  -21.5805  -49.9887 H         1 UNK         0.3000 
    226 H226       -8.5538  -20.7426  -52.6927 H         1 UNK         0.0600 
    227 H227       -9.5164  -22.9808  -52.1934 H         1 UNK         0.0600 
    228 H228       -8.2034  -23.1556  -53.3476 H         1 UNK         0.0600 
    229 H229       -7.9510  -23.5765  -51.6567 H         1 UNK         0.0600 
    230 H230       -6.8738  -20.9592  -54.2552 H         1 UNK         0.3000 
    231 H231       -4.9011  -20.7983  -55.1845 H         1 UNK         0.0600 
    232 H232       -3.0446  -22.1985  -54.4201 H         1 UNK         0.0600 
    233 H233       -4.5421  -23.0785  -54.1702 H         1 UNK         0.0600 
    234 H234       -3.7203  -22.3229  -52.8050 H         1 UNK         0.0600 
    235 H235       -5.4245  -19.1078  -52.4004 H         1 UNK         0.3000 
    236 H236       -4.7717  -17.2153  -51.5150 H         1 UNK         0.0600 
    237 H237       -3.4132  -15.5795  -52.7739 H         1 UNK         0.0600 
    238 H238       -2.9270  -16.8104  -53.9281 H         1 UNK         0.0600 
    239 H239       -4.6146  -16.3143  -53.8217 H         1 UNK         0.0600 
    240 H240       -1.8328  -18.7159  -52.8212 H         1 UNK         0.3000 
    241 H241       -0.7794  -19.2626  -50.2043 H         1 UNK         0.0600 
    242 H242       -1.3314  -20.3700  -53.3384 H         1 UNK         0.3800 
    243 H243       -0.0749  -21.5762  -53.3164 H         1 UNK         0.3800 
    244 H244        0.1315  -17.0425  -50.3164 H         1 UNK         0.0800 
    245 H245        1.4306  -18.1693  -50.4657 H         1 UNK         0.0800 
    246 H246        2.9317  -17.3172  -53.9490 H         1 UNK         0.0800 
    247 H247        2.3731  -18.7950  -53.2118 H         1 UNK         0.0800 
@<TRIPOS>BOND
     1    1    2 1    
     2    1  127 1    
     3    1  128 1    
     4    1  129 1    
     5    2    3 2    
     6    2    4 am   BACKBONE|DICT|INTERRES
     7    4    5 1    
     8    4  130 1    
     9    5    6 1    
    10    5   65 1    
    11    5  131 1    
    12    6    7 1    
    13    6  132 1    
    14    6  133 1    
    15    7    8 1    
    16    8    9 1    
    17    8  134 1    
    18    8  135 1    
    19    9   10 ar   
    20    9   14 ar   
    21   10   11 ar   
    22   10  136 1    
    23   11   12 ar   
    24   11  126 1    
    25   12   13 ar   
    26   12  137 1    
    27   13   14 ar   
    28   13   15 1    
    29   14  138 1    
    30   15   16 1    
    31   15  139 1    
    32   15  140 1    
    33   16   17 1    
    34   17   18 1    
    35   17  141 1    
    36   17  142 1    
    37   18   19 1    
    38   18   67 1    
    39   18  143 1    
    40   19   20 am   BACKBONE|DICT|INTERRES
    41   19  144 1    
    42   20   21 2    
    43   20   22 1    
    44   22   23 1    
    45   22   24 1    
    46   22  145 1    
    47   23  146 1    
    48   23  147 1    
    49   23  148 1    
    50   24   25 am   BACKBONE|DICT|INTERRES
    51   24  149 1    
    52   25   26 2    
    53   25   27 1    
    54   27   28 1    
    55   27   29 1    
    56   27  150 1    
    57   28  151 1    
    58   28  152 1    
    59   28  153 1    
    60   29   30 am   BACKBONE|DICT|INTERRES
    61   29  154 1    
    62   30   31 2    
    63   30   32 1    
    64   32   33 1    
    65   32   34 1    
    66   32  155 1    
    67   33  156 1    
    68   33  157 1    
    69   33  158 1    
    70   34   35 am   BACKBONE|DICT|INTERRES
    71   34  159 1    
    72   35   36 2    
    73   35   37 1    
    74   37   38 1    
    75   37   39 1    
    76   37  160 1    
    77   38  161 1    
    78   38  162 1    
    79   38  163 1    
    80   39   40 am   BACKBONE|DICT|INTERRES
    81   39  164 1    
    82   40   41 2    
    83   40   42 1    
    84   42   43 1    
    85   42   44 1    
    86   42  165 1    
    87   43  166 1    
    88   43  167 1    
    89   43  168 1    
    90   44   45 am   BACKBONE|DICT|INTERRES
    91   44  169 1    
    92   45   46 2    
    93   45   47 1    
    94   47   48 1    
    95   47   49 1    
    96   47  170 1    
    97   48  171 1    
    98   48  172 1    
    99   48  173 1    
   100   49   50 am   BACKBONE|DICT|INTERRES
   101   49  174 1    
   102   50   51 2    
   103   50   52 1    
   104   52   53 1    
   105   52   54 1    
   106   52  175 1    
   107   53  176 1    
   108   53  177 1    
   109   53  178 1    
   110   54   55 am   BACKBONE|DICT|INTERRES
   111   54  179 1    
   112   55   56 2    
   113   55   57 1    
   114   57   58 1    
   115   57   59 1    
   116   57  180 1    
   117   58  181 1    
   118   58  182 1    
   119   58  183 1    
   120   59   60 am   BACKBONE|DICT|INTERRES
   121   59  184 1    
   122   60   61 2    
   123   60   62 1    
   124   62   63 1    
   125   62   64 1    
   126   62  185 1    
   127   63  186 1    
   128   63  187 1    
   129   63  188 1    
   130   64   65 am   BACKBONE|DICT|INTERRES
   131   64  189 1    
   132   65   66 2    
   133   67   68 2    
   134   67   69 am   BACKBONE|DICT|INTERRES
   135   69   70 1    
   136   69  190 1    
   137   70   71 1    
   138   70   72 1    
   139   70  191 1    
   140   71  192 1    
   141   71  193 1    
   142   71  194 1    
   143   72   73 2    
   144   72   74 am   BACKBONE|DICT|INTERRES
   145   74   75 1    
   146   74  195 1    
   147   75   76 1    
   148   75   77 1    
   149   75  196 1    
   150   76  197 1    
   151   76  198 1    
   152   76  199 1    
   153   77   78 2    
   154   77   79 am   BACKBONE|DICT|INTERRES
   155   79   80 1    
   156   79  200 1    
   157   80   81 1    
   158   80   82 1    
   159   80  201 1    
   160   81  202 1    
   161   81  203 1    
   162   81  204 1    
   163   82   83 2    
   164   82   84 am   BACKBONE|DICT|INTERRES
   165   84   85 1    
   166   84  205 1    
   167   85   86 1    
   168   85   87 1    
   169   85  206 1    
   170   86  207 1    
   171   86  208 1    
   172   86  209 1    
   173   87   88 2    
   174   87   89 am   BACKBONE|DICT|INTERRES
   175   89   90 1    
   176   89  210 1    
   177   90   91 1    
   178   90   92 1    
   179   90  211 1    
   180   91  212 1    
   181   91  213 1    
   182   91  214 1    
   183   92   93 2    
   184   92   94 am   BACKBONE|DICT|INTERRES
   185   94   95 1    
   186   94  215 1    
   187   95   96 1    
   188   95   97 1    
   189   95  216 1    
   190   96  217 1    
   191   96  218 1    
   192   96  219 1    
   193   97   98 2    
   194   97   99 am   BACKBONE|DICT|INTERRES
   195   99  100 1    
   196   99  220 1    
   197  100  101 1    
   198  100  102 1    
   199  100  221 1    
   200  101  222 1    
   201  101  223 1    
   202  101  224 1    
   203  102  103 2    
   204  102  104 am   BACKBONE|DICT|INTERRES
   205  104  105 1    
   206  104  225 1    
   207  105  106 1    
   208  105  107 1    
   209  105  226 1    
   210  106  227 1    
   211  106  228 1    
   212  106  229 1    
   213  107  108 2    
   214  107  109 am   BACKBONE|DICT|INTERRES
   215  109  110 1    
   216  109  230 1    
   217  110  111 1    
   218  110  112 1    
   219  110  231 1    
   220  111  232 1    
   221  111  233 1    
   222  111  234 1    
   223  112  113 2    
   224  112  114 am   BACKBONE|DICT|INTERRES
   225  114  115 1    
   226  114  235 1    
   227  115  116 1    
   228  115  117 1    
   229  115  236 1    
   230  116  237 1    
   231  116  238 1    
   232  116  239 1    
   233  117  118 2    
   234  117  119 am   BACKBONE|DICT|INTERRES
   235  119  120 1    
   236  119  240 1    
   237  120  121 1    
   238  120  124 1    
   239  120  241 1    
   240  121  122 am   BACKBONE|DICT|INTERRES
   241  121  123 2    
   242  122  242 1    
   243  122  243 1    
   244  124  125 1    
   245  124  244 1    
   246  124  245 1    
   247  125  126 1    
   248  126  246 1    
   249  126  247 1    
@<TRIPOS>SUBSTRUCTURE
     1 UNK         1 GROUP             0       ****    0 ROOT    
