@<TRIPOS>MOLECULE
3R540
247   249    1
SMALL
USER_CHARGES


@<TRIPOS>ATOM
      1 CA         -0.6989  -18.1267  -49.6516 C.3       0 UNK        -0.1800 
      2 C          -0.4169  -16.6332  -49.7533 C.2       0 UNK         0.5000 
      3 O          -1.2879  -15.8640  -50.1555 O.2       0 UNK        -0.5000 
      4 N           0.7960  -16.2219  -49.3710 N.am      1 UNK        -0.5000 
      5 CA          1.2908  -14.8431  -49.3143 C.3       1 UNK         0.1400 
      6 C6          2.8440  -14.7909  -49.2325 C.3       23 UNK        -0.0398 
      7 S7          3.6093  -16.0718  -48.1649 S.3       23 UNK        -0.2404 
      8 C8          4.4981  -17.0981  -49.3838 C.3       23 UNK        -0.0205 
      9 C9          3.5664  -17.9672  -50.2206 C.ar      23 UNK        -0.0193 
     10 C10         3.0807  -17.5067  -51.4480 C.ar      23 UNK        -0.1150 
     11 C11         2.2398  -18.3067  -52.2246 C.ar      23 UNK        -0.0193 
     12 C12         1.9088  -19.5883  -51.7798 C.ar      23 UNK        -0.1150 
     13 C13         2.3973  -20.0776  -50.5648 C.ar      23 UNK        -0.0193 
     14 C14         3.2166  -19.2487  -49.7826 C.ar      23 UNK        -0.1150 
     15 C15         2.0100  -21.5039  -50.1654 C.3       23 UNK        -0.0205 
     16 S16         2.9201  -22.2139  -48.7515 S.3       23 UNK        -0.2404 
     17 C17         1.9428  -21.5771  -47.3491 C.3       23 UNK        -0.0398 
     18 CA          1.1464  -22.6956  -46.6365 C.3       11 UNK         0.1400 
     19 N           0.7542  -22.3101  -45.2814 N.am      11 UNK        -0.5000 
     20 C           0.2708  -23.1539  -44.3598 C.2       10 UNK         0.5000 
     21 O           0.1138  -24.3600  -44.5511 O.2       10 UNK        -0.5000 
     22 CA         -0.1455  -22.5385  -43.0118 C.3       10 UNK         0.1400 
     23 CB          1.0841  -22.2353  -42.1427 C.3       10 UNK        -0.1800 
     24 N          -0.9472  -21.3249  -43.1718 N.am      10 UNK        -0.5000 
     25 C          -2.1520  -21.2901  -43.7597 C.2       9 UNK         0.5000 
     26 O          -2.7261  -22.2817  -44.2083 O.2       9 UNK        -0.5000 
     27 CA         -2.8096  -19.9092  -43.9124 C.3       9 UNK         0.1400 
     28 CB         -3.4357  -19.4532  -42.5862 C.3       9 UNK        -0.1800 
     29 N          -1.8768  -18.8904  -44.3885 N.am      9 UNK        -0.5000 
     30 C          -1.2416  -18.9239  -45.5692 C.2       8 UNK         0.5000 
     31 O          -1.3728  -19.8166  -46.4036 O.2       8 UNK        -0.5000 
     32 CA         -0.2529  -17.7833  -45.8420 C.3       8 UNK         0.1400 
     33 CB         -1.0171  -16.4766  -46.0936 C.3       8 UNK        -0.1800 
     34 N           0.6897  -17.5985  -44.7408 N.am      8 UNK        -0.5000 
     35 C           1.5228  -18.5333  -44.2622 C.2       7 UNK         0.5000 
     36 O           1.6277  -19.6666  -44.7279 O.2       7 UNK        -0.5000 
     37 CA          2.3378  -18.1539  -43.0164 C.3       7 UNK         0.1400 
     38 CB          3.6131  -17.3911  -43.4063 C.3       7 UNK        -0.1800 
     39 N           1.5465  -17.3559  -42.0807 N.am      7 UNK        -0.5000 
     40 C           0.5333  -17.8364  -41.3463 C.2       6 UNK         0.5000 
     41 O           0.1882  -19.0191  -41.3446 O.2       6 UNK        -0.5000 
     42 CA         -0.2487  -16.8098  -40.5053 C.3       6 UNK         0.1400 
     43 CB          0.5040  -16.4817  -39.2071 C.3       6 UNK        -0.1800 
     44 N          -0.5198  -15.5709  -41.2389 N.am      6 UNK        -0.5000 
     45 C          -1.3412  -15.4924  -42.2948 C.2       5 UNK         0.5000 
     46 O          -1.9753  -16.4518  -42.7339 O.2       5 UNK        -0.5000 
     47 CA         -1.4547  -14.1270  -43.0026 C.3       5 UNK         0.1400 
     48 CB         -2.5394  -13.2685  -42.3360 C.3       5 UNK        -0.1800 
     49 N          -0.2148  -13.3466  -43.0955 N.am      5 UNK        -0.5000 
     50 C           0.9614  -13.7819  -43.5680 C.2       4 UNK         0.5000 
     51 O           1.1917  -14.9573  -43.8478 O.2       4 UNK        -0.5000 
     52 CA          2.0248  -12.7042  -43.8270 C.3       4 UNK         0.1400 
     53 CB          3.4126  -13.3016  -44.1223 C.3       4 UNK        -0.1800 
     54 N           1.5835  -11.9445  -44.9895 N.am      4 UNK        -0.5000 
     55 C           1.1936  -10.6640  -44.9937 C.2       3 UNK         0.5000 
     56 O           1.2772   -9.9198  -44.0160 O.2       3 UNK        -0.5000 
     57 CA          0.5700  -10.1312  -46.3028 C.3       3 UNK         0.1400 
     58 CB          1.6447   -9.4736  -47.1815 C.3       3 UNK        -0.1800 
     59 N          -0.1138  -11.1683  -47.0814 N.am      3 UNK        -0.5000 
     60 C          -1.1826  -11.8602  -46.6629 C.2       2 UNK         0.5000 
     61 O          -1.7963  -11.5955  -45.6287 O.2       2 UNK        -0.5000 
     62 CA         -1.6416  -13.0643  -47.5120 C.3       2 UNK         0.1400 
     63 CB         -2.9004  -12.6981  -48.3133 C.3       2 UNK        -0.1800 
     64 N          -0.6626  -13.6556  -48.4354 N.am      2 UNK        -0.5000 
     65 C           0.5977  -14.0420  -48.1885 C.2       1 UNK         0.5000 
     66 O           1.1916  -13.8118  -47.1352 O.2       1 UNK        -0.5000 
     67 C          -0.0610  -23.1779  -47.4660 C.2       11 UNK         0.5000 
     68 O           0.0351  -24.2169  -48.1177 O.2       11 UNK        -0.5000 
     69 N          -1.1885  -22.4556  -47.3916 N.am      12 UNK        -0.5000 
     70 CA         -2.4484  -22.8231  -48.0379 C.3       12 UNK         0.1400 
     71 CB         -3.4779  -21.6993  -47.8573 C.3       12 UNK        -0.1800 
     72 C          -3.0088  -24.1634  -47.5328 C.2       12 UNK         0.5000 
     73 O          -3.4409  -24.9760  -48.3488 O.2       12 UNK        -0.5000 
     74 N          -2.9505  -24.3936  -46.2133 N.am      13 UNK        -0.5000 
     75 CA         -3.3385  -25.6540  -45.5796 C.3       13 UNK         0.1400 
     76 CB         -3.3421  -25.4917  -44.0522 C.3       13 UNK        -0.1800 
     77 C          -2.4430  -26.8320  -46.0041 C.2       13 UNK         0.5000 
     78 O          -2.9645  -27.9060  -46.3048 O.2       13 UNK        -0.5000 
     79 N          -1.1227  -26.6031  -46.0575 N.am      14 UNK        -0.5000 
     80 CA         -0.1275  -27.5795  -46.5074 C.3       14 UNK         0.1400 
     81 CB          1.2831  -27.0523  -46.2032 C.3       14 UNK        -0.1800 
     82 C          -0.2676  -27.9365  -47.9997 C.2       14 UNK         0.5000 
     83 O          -0.1438  -29.1078  -48.3596 O.2       14 UNK        -0.5000 
     84 N          -0.5455  -26.9269  -48.8348 N.am      15 UNK        -0.5000 
     85 CA         -0.7843  -27.0676  -50.2724 C.3       15 UNK         0.1400 
     86 CB         -0.6377  -25.6869  -50.9329 C.3       15 UNK        -0.1800 
     87 C          -2.1610  -27.6710  -50.6160 C.2       15 UNK         0.5000 
     88 O          -2.3489  -28.1156  -51.7491 O.2       15 UNK        -0.5000 
     89 N          -3.0951  -27.6474  -49.6526 N.am      16 UNK        -0.5000 
     90 CA         -4.5210  -27.9686  -49.7809 C.3       16 UNK         0.1400 
     91 CB         -4.7322  -29.4631  -50.1007 C.3       16 UNK        -0.1800 
     92 C          -5.2237  -27.0168  -50.7731 C.2       16 UNK         0.5000 
     93 O          -5.9568  -27.4590  -51.6603 O.2       16 UNK        -0.5000 
     94 N          -4.9462  -25.7197  -50.6095 N.am      17 UNK        -0.5000 
     95 CA         -5.4012  -24.6201  -51.4519 C.3       17 UNK         0.1400 
     96 CB         -4.2141  -24.1506  -52.3186 C.3       17 UNK        -0.1800 
     97 C          -5.9861  -23.4992  -50.5703 C.2       17 UNK         0.5000 
     98 O          -6.4360  -23.7617  -49.4523 O.2       17 UNK        -0.5000 
     99 N          -5.9784  -22.2680  -51.0885 N.am      18 UNK        -0.5000 
    100 CA        -6.3992  -21.0485  -50.4093 C.3       18 UNK         0.1400 
    101 CB        -7.8357  -20.6988  -50.8319 C.3       18 UNK        -0.1800 
    102 C         -5.4301  -19.9277  -50.8047 C.2       18 UNK         0.5000 
    103 O         -4.8444  -19.9849  -51.8891 O.2       18 UNK        -0.5000 
    104 N         -5.3113  -18.9026  -49.9503 N.am      19 UNK        -0.5000 
    105 CA        -4.4630  -17.7248  -50.1777 C.3       19 UNK         0.1400 
    106 CB        -4.4351  -16.8670  -48.9037 C.3       19 UNK        -0.1800 
    107 C         -4.8799  -16.8857  -51.4031 C.2       19 UNK         0.5000 
    108 O         -4.0387  -16.2205  -52.0067 O.2       19 UNK        -0.5000 
    109 N         -6.1558  -16.9908  -51.8011 N.am      20 UNK        -0.5000 
    110 CA        -6.7309  -16.4034  -53.0145 C.3       20 UNK         0.1400 
    111 CB        -8.2381  -16.7030  -53.0338 C.3       20 UNK        -0.1800 
    112 C         -6.0712  -16.8717  -54.3317 C.2       20 UNK         0.5000 
    113 O         -6.2566  -16.2176  -55.3585 O.2       20 UNK        -0.5000 
    114 N         -5.3070  -17.9740  -54.2871 N.am      21 UNK        -0.5000 
    115 CA        -4.5141  -18.4907  -55.4018 C.3       21 UNK         0.1400 
    116 CB        -4.0162  -19.9008  -55.0488 C.3       21 UNK        -0.1800 
    117 C         -3.3257  -17.5892  -55.7990 C.2       21 UNK         0.5000 
    118 O         -2.8585  -17.7006  -56.9339 O.2       21 UNK        -0.5000 
    119 N         -2.8514  -16.7253  -54.8897 N.am      22 UNK        -0.5000 
    120 CA        -1.7145  -15.8212  -55.1367 C.3       22 UNK         0.1400 
    121 C         -1.7544  -14.4704  -54.3665 C.2       22 UNK         0.5000 
    122 N         -2.5927  -14.2795  -53.3564 N.am      22 UNK        -0.7600 
    123 O         -1.0222  -13.5497  -54.7199 O.2       22 UNK        -0.5000 
    124 C124       -0.3417  -16.5372  -55.0158 C.3       23 UNK        -0.0398 
    125 S125       -0.0283  -17.2340  -53.3596 S.3       23 UNK        -0.2404 
    126 C126        1.6907  -17.7919  -53.5456 C.3       23 UNK        -0.0205 
    127 H127       -1.5215  -18.3101  -48.9608 H         1 UNK         0.0600 
    128 H128        0.1689  -18.6783  -49.2906 H         1 UNK         0.0600 
    129 H129       -0.9713  -18.5258  -50.6285 H         1 UNK         0.0600 
    130 H130        1.4714  -16.9071  -49.0615 H         1 UNK         0.3000 
    131 H131        1.0097  -14.3587  -50.2520 H         1 UNK         0.0600 
    132 H132        3.1876  -13.8122  -48.8925 H         1 UNK         0.0800 
    133 H133        3.2524  -14.8825  -50.2376 H         1 UNK         0.0800 
    134 H134        5.1048  -16.4605  -50.0286 H         1 UNK         0.0800 
    135 H135        5.2039  -17.7350  -48.8484 H         1 UNK         0.0800 
    136 H136        3.3524  -16.5229  -51.8016 H         1 UNK         0.1150 
    137 H137        1.2643  -20.2086  -52.3872 H         1 UNK         0.1150 
    138 H138        3.6046  -19.5931  -48.8357 H         1 UNK         0.1150 
    139 H139        0.9376  -21.5442  -49.9685 H         1 UNK         0.0800 
    140 H140        2.1845  -22.1584  -51.0207 H         1 UNK         0.0800 
    141 H141        1.2924  -20.7572  -47.6600 H         1 UNK         0.0800 
    142 H142        2.6604  -21.1387  -46.6549 H         1 UNK         0.0800 
    143 H143        1.8149  -23.5521  -46.5225 H         1 UNK         0.0600 
    144 H144        0.8804  -21.3300  -45.0372 H         1 UNK         0.3000 
    145 H145       -0.7578  -23.2748  -42.4872 H         1 UNK         0.0600 
    146 H146        0.7898  -21.8730  -41.1575 H         1 UNK         0.0600 
    147 H147        1.6875  -23.1315  -41.9936 H         1 UNK         0.0600 
    148 H148        1.7244  -21.4794  -42.5979 H         1 UNK         0.0600 
    149 H149       -0.5503  -20.4642  -42.8129 H         1 UNK         0.3000 
    150 H150       -3.6070  -20.0007  -44.6526 H         1 UNK         0.0600 
    151 H151       -4.1375  -20.1974  -42.2076 H         1 UNK         0.0600 
    152 H152       -3.9864  -18.5208  -42.7120 H         1 UNK         0.0600 
    153 H153       -2.6785  -19.2914  -41.8178 H         1 UNK         0.0600 
    154 H154       -1.7256  -18.0952  -43.7741 H         1 UNK         0.3000 
    155 H155        0.3298  -18.0277  -46.7320 H         1 UNK         0.0600 
    156 H156       -0.3437  -15.6240  -46.0807 H         1 UNK         0.0600 
    157 H157       -1.5208  -16.4956  -47.0594 H         1 UNK         0.0600 
    158 H158       -1.7833  -16.2943  -45.3421 H         1 UNK         0.0600 
    159 H159        0.7295  -16.6706  -44.3244 H         1 UNK         0.3000 
    160 H160        2.6349  -19.0768  -42.5140 H         1 UNK         0.0600 
    161 H161        3.3878  -16.4666  -43.9384 H         1 UNK         0.0600 
    162 H162        4.2415  -17.9969  -44.0602 H         1 UNK         0.0600 
    163 H163        4.2063  -17.1374  -42.5278 H         1 UNK         0.0600 
    164 H164        1.6990  -16.3572  -42.1023 H         1 UNK         0.3000 
    165 H165       -1.2060  -17.2624  -40.2371 H         1 UNK         0.0600 
    166 H166       -0.0815  -15.8196  -38.5690 H         1 UNK         0.0600 
    167 H167        0.7066  -17.3878  -38.6346 H         1 UNK         0.0600 
    168 H168        1.4610  -15.9975  -39.4054 H         1 UNK         0.0600 
    169 H169       -0.0291  -14.7399  -40.9436 H         1 UNK         0.3000 
    170 H170       -1.7732  -14.3231  -44.0274 H         1 UNK         0.0600 
    171 H171       -3.4842  -13.8101  -42.2726 H         1 UNK         0.0600 
    172 H172       -2.2571  -12.9789  -41.3232 H         1 UNK         0.0600 
    173 H173       -2.7272  -12.3586  -42.9067 H         1 UNK         0.0600 
    174 H174       -0.3098  -12.3567  -42.9194 H         1 UNK         0.3000 
    175 H175        2.0977  -12.0740  -42.9386 H         1 UNK         0.0600 
    176 H176        3.7633  -13.9078  -43.2862 H         1 UNK         0.0600 
    177 H177        3.3984  -13.9377  -45.0091 H         1 UNK         0.0600 
    178 H178        4.1498  -12.5162  -44.2884 H         1 UNK         0.0600 
    179 H179        1.4343  -12.5034  -45.8283 H         1 UNK         0.3000 
    180 H180       -0.1670   -9.3719  -46.0332 H         1 UNK         0.0600 
    181 H181        2.3990  -10.1941  -47.5005 H         1 UNK         0.0600 
    182 H182        2.1585   -8.6781  -46.6401 H         1 UNK         0.0600 
    183 H183        1.2063   -9.0270  -48.0742 H         1 UNK         0.0600 
    184 H184        0.3328  -11.4615  -47.9373 H         1 UNK         0.3000 
    185 H185       -1.9157  -13.8479  -46.8048 H         1 UNK         0.0600 
    186 H186       -3.6810  -12.3012  -47.6628 H         1 UNK         0.0600 
    187 H187       -2.6861  -11.9421  -49.0696 H         1 UNK         0.0600 
    188 H188       -3.3152  -13.5698  -48.8196 H         1 UNK         0.0600 
    189 H189       -1.0555  -13.9953  -49.3071 H         1 UNK         0.3000 
    190 H190       -1.1936  -21.5872  -46.8600 H         1 UNK         0.3000 
    191 H191       -2.2531  -22.9320  -49.1067 H         1 UNK         0.0600 
    192 H192       -3.6477  -21.4747  -46.8040 H         1 UNK         0.0600 
    193 H193       -4.4369  -21.9813  -48.2889 H         1 UNK         0.0600 
    194 H194       -3.1528  -20.7821  -48.3491 H         1 UNK         0.0600 
    195 H195       -2.6259  -23.6551  -45.5953 H         1 UNK         0.3000 
    196 H196       -4.3582  -25.8837  -45.8960 H         1 UNK         0.0600 
    197 H197       -3.6317  -26.4210  -43.5604 H         1 UNK         0.0600 
    198 H198       -4.0509  -24.7245  -43.7405 H         1 UNK         0.0600 
    199 H199       -2.3589  -25.2110  -43.6735 H         1 UNK         0.0600 
    200 H200       -0.7690  -25.7015  -45.7518 H         1 UNK         0.3000 
    201 H201       -0.2767  -28.4959  -45.9327 H         1 UNK         0.0600 
    202 H202        1.4142  -26.8714  -45.1362 H         1 UNK         0.0600 
    203 H203        1.4862  -26.1182  -46.7274 H         1 UNK         0.0600 
    204 H204        2.0436  -27.7724  -46.5074 H         1 UNK         0.0600 
    205 H205       -0.5540  -25.9780  -48.4675 H         1 UNK         0.3000 
    206 H206       -0.0210  -27.7289  -50.6873 H         1 UNK         0.0600 
    207 H207       -1.3721  -24.9793  -50.5458 H         1 UNK         0.0600 
    208 H208       -0.7792  -25.7492  -52.0125 H         1 UNK         0.0600 
    209 H209        0.3538  -25.2686  -50.7584 H         1 UNK         0.0600 
    210 H210       -2.8316  -27.2213  -48.7737 H         1 UNK         0.3000 
    211 H211       -4.9648  -27.7755  -48.8030 H         1 UNK         0.0600 
    212 H212       -4.3634  -29.7259  -51.0923 H         1 UNK         0.0600 
    213 H213       -5.7914  -29.7203  -50.0689 H         1 UNK         0.0600 
    214 H214       -4.2224  -30.0958  -49.3742 H         1 UNK         0.0600 
    215 H215       -4.3903  -25.4455  -49.7997 H         1 UNK         0.3000 
    216 H216       -6.2053  -24.9564  -52.1091 H         1 UNK         0.0600 
    217 H217       -3.4292  -23.6967  -51.7119 H         1 UNK         0.0600 
    218 H218       -4.5246  -23.4203  -53.0665 H         1 UNK         0.0600 
    219 H219       -3.7700  -24.9870  -52.8592 H         1 UNK         0.0600 
    220 H220       -5.5319  -22.1052  -51.9822 H         1 UNK         0.3000 
    221 H221       -6.3618  -21.1791  -49.3264 H         1 UNK         0.0600 
    222 H222       -8.5279  -21.4986  -50.5680 H         1 UNK         0.0600 
    223 H223       -7.9102  -20.5340  -51.9077 H         1 UNK         0.0600 
    224 H224       -8.1830  -19.7926  -50.3344 H         1 UNK         0.0600 
    225 H225       -5.8346  -18.9173  -49.0866 H         1 UNK         0.3000 
    226 H226       -3.4513  -18.0811  -50.3740 H         1 UNK         0.0600 
    227 H227       -4.0372  -17.4290  -48.0584 H         1 UNK         0.0600 
    228 H228       -3.7973  -15.9927  -49.0371 H         1 UNK         0.0600 
    229 H229       -5.4301  -16.5099  -48.6358 H         1 UNK         0.0600 
    230 H230       -6.7734  -17.5659  -51.2486 H         1 UNK         0.3000 
    231 H231       -6.5944  -15.3219  -52.9538 H         1 UNK         0.0600 
    232 H232       -8.4334  -17.7757  -53.0672 H         1 UNK         0.0600 
    233 H233       -8.7162  -16.2549  -53.9060 H         1 UNK         0.0600 
    234 H234       -8.7333  -16.2977  -52.1512 H         1 UNK         0.0600 
    235 H235       -5.2100  -18.4667  -53.4070 H         1 UNK         0.3000 
    236 H236       -5.1699  -18.5696  -56.2712 H         1 UNK         0.0600 
    237 H237       -4.8458  -20.5654  -54.8067 H         1 UNK         0.0600 
    238 H238       -3.4761  -20.3461  -55.8852 H         1 UNK         0.0600 
    239 H239       -3.3391  -19.8837  -54.1937 H         1 UNK         0.0600 
    240 H240       -3.2733  -16.6815  -53.9707 H         1 UNK         0.3000 
    241 H241       -1.7995  -15.5022  -56.1776 H         1 UNK         0.0600 
    242 H242       -2.5920  -13.3830  -52.8992 H         1 UNK         0.3800 
    243 H243       -3.1407  -15.0338  -52.9466 H         1 UNK         0.3800 
    244 H244        0.4681  -15.8519  -55.2721 H         1 UNK         0.0800 
    245 H245       -0.2833  -17.3484  -55.7425 H         1 UNK         0.0800 
    246 H246        1.7385  -18.5794  -54.2992 H         1 UNK         0.0800 
    247 H247        2.3032  -16.9684  -53.9159 H         1 UNK         0.0800 
@<TRIPOS>BOND
     1    1    2 1    
     2    1  127 1    
     3    1  128 1    
     4    1  129 1    
     5    2    3 2    
     6    2    4 am   BACKBONE|DICT|INTERRES
     7    4    5 1    
     8    4  130 1    
     9    5    6 1    
    10    5   65 1    
    11    5  131 1    
    12    6    7 1    
    13    6  132 1    
    14    6  133 1    
    15    7    8 1    
    16    8    9 1    
    17    8  134 1    
    18    8  135 1    
    19    9   10 ar   
    20    9   14 ar   
    21   10   11 ar   
    22   10  136 1    
    23   11   12 ar   
    24   11  126 1    
    25   12   13 ar   
    26   12  137 1    
    27   13   14 ar   
    28   13   15 1    
    29   14  138 1    
    30   15   16 1    
    31   15  139 1    
    32   15  140 1    
    33   16   17 1    
    34   17   18 1    
    35   17  141 1    
    36   17  142 1    
    37   18   19 1    
    38   18   67 1    
    39   18  143 1    
    40   19   20 am   BACKBONE|DICT|INTERRES
    41   19  144 1    
    42   20   21 2    
    43   20   22 1    
    44   22   23 1    
    45   22   24 1    
    46   22  145 1    
    47   23  146 1    
    48   23  147 1    
    49   23  148 1    
    50   24   25 am   BACKBONE|DICT|INTERRES
    51   24  149 1    
    52   25   26 2    
    53   25   27 1    
    54   27   28 1    
    55   27   29 1    
    56   27  150 1    
    57   28  151 1    
    58   28  152 1    
    59   28  153 1    
    60   29   30 am   BACKBONE|DICT|INTERRES
    61   29  154 1    
    62   30   31 2    
    63   30   32 1    
    64   32   33 1    
    65   32   34 1    
    66   32  155 1    
    67   33  156 1    
    68   33  157 1    
    69   33  158 1    
    70   34   35 am   BACKBONE|DICT|INTERRES
    71   34  159 1    
    72   35   36 2    
    73   35   37 1    
    74   37   38 1    
    75   37   39 1    
    76   37  160 1    
    77   38  161 1    
    78   38  162 1    
    79   38  163 1    
    80   39   40 am   BACKBONE|DICT|INTERRES
    81   39  164 1    
    82   40   41 2    
    83   40   42 1    
    84   42   43 1    
    85   42   44 1    
    86   42  165 1    
    87   43  166 1    
    88   43  167 1    
    89   43  168 1    
    90   44   45 am   BACKBONE|DICT|INTERRES
    91   44  169 1    
    92   45   46 2    
    93   45   47 1    
    94   47   48 1    
    95   47   49 1    
    96   47  170 1    
    97   48  171 1    
    98   48  172 1    
    99   48  173 1    
   100   49   50 am   BACKBONE|DICT|INTERRES
   101   49  174 1    
   102   50   51 2    
   103   50   52 1    
   104   52   53 1    
   105   52   54 1    
   106   52  175 1    
   107   53  176 1    
   108   53  177 1    
   109   53  178 1    
   110   54   55 am   BACKBONE|DICT|INTERRES
   111   54  179 1    
   112   55   56 2    
   113   55   57 1    
   114   57   58 1    
   115   57   59 1    
   116   57  180 1    
   117   58  181 1    
   118   58  182 1    
   119   58  183 1    
   120   59   60 am   BACKBONE|DICT|INTERRES
   121   59  184 1    
   122   60   61 2    
   123   60   62 1    
   124   62   63 1    
   125   62   64 1    
   126   62  185 1    
   127   63  186 1    
   128   63  187 1    
   129   63  188 1    
   130   64   65 am   BACKBONE|DICT|INTERRES
   131   64  189 1    
   132   65   66 2    
   133   67   68 2    
   134   67   69 am   BACKBONE|DICT|INTERRES
   135   69   70 1    
   136   69  190 1    
   137   70   71 1    
   138   70   72 1    
   139   70  191 1    
   140   71  192 1    
   141   71  193 1    
   142   71  194 1    
   143   72   73 2    
   144   72   74 am   BACKBONE|DICT|INTERRES
   145   74   75 1    
   146   74  195 1    
   147   75   76 1    
   148   75   77 1    
   149   75  196 1    
   150   76  197 1    
   151   76  198 1    
   152   76  199 1    
   153   77   78 2    
   154   77   79 am   BACKBONE|DICT|INTERRES
   155   79   80 1    
   156   79  200 1    
   157   80   81 1    
   158   80   82 1    
   159   80  201 1    
   160   81  202 1    
   161   81  203 1    
   162   81  204 1    
   163   82   83 2    
   164   82   84 am   BACKBONE|DICT|INTERRES
   165   84   85 1    
   166   84  205 1    
   167   85   86 1    
   168   85   87 1    
   169   85  206 1    
   170   86  207 1    
   171   86  208 1    
   172   86  209 1    
   173   87   88 2    
   174   87   89 am   BACKBONE|DICT|INTERRES
   175   89   90 1    
   176   89  210 1    
   177   90   91 1    
   178   90   92 1    
   179   90  211 1    
   180   91  212 1    
   181   91  213 1    
   182   91  214 1    
   183   92   93 2    
   184   92   94 am   BACKBONE|DICT|INTERRES
   185   94   95 1    
   186   94  215 1    
   187   95   96 1    
   188   95   97 1    
   189   95  216 1    
   190   96  217 1    
   191   96  218 1    
   192   96  219 1    
   193   97   98 2    
   194   97   99 am   BACKBONE|DICT|INTERRES
   195   99  100 1    
   196   99  220 1    
   197  100  101 1    
   198  100  102 1    
   199  100  221 1    
   200  101  222 1    
   201  101  223 1    
   202  101  224 1    
   203  102  103 2    
   204  102  104 am   BACKBONE|DICT|INTERRES
   205  104  105 1    
   206  104  225 1    
   207  105  106 1    
   208  105  107 1    
   209  105  226 1    
   210  106  227 1    
   211  106  228 1    
   212  106  229 1    
   213  107  108 2    
   214  107  109 am   BACKBONE|DICT|INTERRES
   215  109  110 1    
   216  109  230 1    
   217  110  111 1    
   218  110  112 1    
   219  110  231 1    
   220  111  232 1    
   221  111  233 1    
   222  111  234 1    
   223  112  113 2    
   224  112  114 am   BACKBONE|DICT|INTERRES
   225  114  115 1    
   226  114  235 1    
   227  115  116 1    
   228  115  117 1    
   229  115  236 1    
   230  116  237 1    
   231  116  238 1    
   232  116  239 1    
   233  117  118 2    
   234  117  119 am   BACKBONE|DICT|INTERRES
   235  119  120 1    
   236  119  240 1    
   237  120  121 1    
   238  120  124 1    
   239  120  241 1    
   240  121  122 am   BACKBONE|DICT|INTERRES
   241  121  123 2    
   242  122  242 1    
   243  122  243 1    
   244  124  125 1    
   245  124  244 1    
   246  124  245 1    
   247  125  126 1    
   248  126  246 1    
   249  126  247 1    
@<TRIPOS>SUBSTRUCTURE
     1 UNK         1 GROUP             0       ****    0 ROOT    
