@<TRIPOS>MOLECULE
3R540
247   249    1
SMALL
USER_CHARGES


@<TRIPOS>ATOM
      1 CA         -2.2005  -13.7015  -46.1304 C.3       0 UNK        -0.1800 
      2 C          -0.8810  -13.1739  -46.6732 C.2       0 UNK         0.5000 
      3 O           0.1814  -13.5195  -46.1539 O.2       0 UNK        -0.5000 
      4 N          -0.9470  -12.3230  -47.7079 N.am      1 UNK        -0.5000 
      5 CA          0.1802  -11.7714  -48.4850 C.3       1 UNK         0.1400 
      6 C6          0.9478  -12.8571  -49.2923 C.3       23 UNK        -0.0398 
      7 S7         -0.1252  -13.8336  -50.4025 S.3       23 UNK        -0.2404 
      8 C8         -0.1112  -15.4372  -49.5466 C.3       23 UNK        -0.0205 
      9 C9         -0.9428  -16.4748  -50.2798 C.ar      23 UNK        -0.0193 
     10 C10        -0.3366  -17.3454  -51.1885 C.ar      23 UNK        -0.1150 
     11 C11        -1.0939  -18.3055  -51.8644 C.ar      23 UNK        -0.0193 
     12 C12        -2.4704  -18.3869  -51.6300 C.ar      23 UNK        -0.1150 
     13 C13        -3.0859  -17.5303  -50.7113 C.ar      23 UNK        -0.0193 
     14 C14        -2.3159  -16.5756  -50.0397 C.ar      23 UNK        -0.1150 
     15 C15        -4.5831  -17.6269  -50.4509 C.3       23 UNK        -0.0205 
     16 S16        -5.0331  -19.1058  -49.4865 S.3       23 UNK        -0.2404 
     17 C17        -4.1435  -18.8470  -47.9134 C.3       23 UNK        -0.0398 
     18 CA         -2.8324  -19.6695  -47.8363 C.3       11 UNK         0.1400 
     19 N          -1.8326  -19.0032  -46.9946 N.am      11 UNK        -0.5000 
     20 C          -0.5226  -19.2755  -46.9512 C.2       10 UNK         0.5000 
     21 O           0.0085  -20.1592  -47.6231 O.2       10 UNK        -0.5000 
     22 CA          0.3169  -18.4845  -45.9303 C.3       10 UNK         0.1400 
     23 CB          0.5095  -17.0226  -46.3743 C.3       10 UNK        -0.1800 
     24 N          -0.1911  -18.5687  -44.5535 N.am      10 UNK        -0.5000 
     25 C          -1.3340  -18.0894  -44.0375 C.2       9 UNK         0.5000 
     26 O          -2.1735  -17.4747  -44.6959 O.2       9 UNK        -0.5000 
     27 CA         -1.5854  -18.2980  -42.5312 C.3       9 UNK         0.1400 
     28 CB         -2.8020  -19.2121  -42.2804 C.3       9 UNK        -0.1800 
     29 N          -0.3950  -18.7183  -41.7778 N.am      9 UNK        -0.5000 
     30 C           0.1631  -19.9332  -41.7017 C.2       8 UNK         0.5000 
     31 O          -0.2775  -20.9353  -42.2646 O.2       8 UNK        -0.5000 
     32 CA          1.4838  -19.9933  -40.9115 C.3       8 UNK         0.1400 
     33 CB          1.9564  -21.4355  -40.6333 C.3       8 UNK        -0.1800 
     34 N           2.5428  -19.2163  -41.5669 N.am      8 UNK        -0.5000 
     35 C           3.0479  -19.3981  -42.7974 C.2       7 UNK         0.5000 
     36 O           2.6389  -20.2528  -43.5833 O.2       7 UNK        -0.5000 
     37 CA          4.1897  -18.4646  -43.2499 C.3       7 UNK         0.1400 
     38 CB          3.8496  -17.7859  -44.5862 C.3       7 UNK        -0.1800 
     39 N           4.5303  -17.4229  -42.2800 N.am      7 UNK        -0.5000 
     40 C           5.3401  -17.5741  -41.2241 C.2       6 UNK         0.5000 
     41 O           5.8465  -18.6483  -40.9000 O.2       6 UNK        -0.5000 
     42 CA          5.6222  -16.3158  -40.3868 C.3       6 UNK         0.1400 
     43 CB          6.7746  -15.5120  -41.0092 C.3       6 UNK        -0.1800 
     44 N           4.4394  -15.4583  -40.3009 N.am      6 UNK        -0.5000 
     45 C           3.6605  -15.3299  -39.2189 C.2       5 UNK         0.5000 
     46 O           3.8694  -15.9071  -38.1512 O.2       5 UNK        -0.5000 
     47 CA          2.4350  -14.4015  -39.3447 C.3       5 UNK         0.1400 
     48 CB          2.7901  -12.9799  -38.8833 C.3       5 UNK        -0.1800 
     49 N           1.8844  -14.3373  -40.6999 N.am      5 UNK        -0.5000 
     50 C           1.2864  -15.3581  -41.3263 C.2       4 UNK         0.5000 
     51 O           1.0971  -16.4624  -40.8137 O.2       4 UNK        -0.5000 
     52 CA          0.8295  -15.1267  -42.7785 C.3       4 UNK         0.1400 
     53 CB         -0.6283  -14.6439  -42.8000 C.3       4 UNK        -0.1800 
     54 N           1.6298  -14.2071  -43.5935 N.am      4 UNK        -0.5000 
     55 C           2.9639  -14.1618  -43.7242 C.2       3 UNK         0.5000 
     56 O           3.7429  -14.8410  -43.0558 O.2       3 UNK        -0.5000 
     57 CA          3.5306  -13.2045  -44.7843 C.3       3 UNK         0.1400 
     58 CB          3.8940  -13.9949  -46.0511 C.3       3 UNK        -0.1800 
     59 N           2.5700  -12.1637  -45.1495 N.am      3 UNK        -0.5000 
     60 C           2.6593  -10.8663  -44.8250 C.2       2 UNK         0.5000 
     61 O           3.5643  -10.4037  -44.1288 O.2       2 UNK        -0.5000 
     62 CA          1.5457   -9.9271  -45.3525 C.3       2 UNK         0.1400 
     63 CB          2.0829   -8.5365  -45.7504 C.3       2 UNK        -0.1800 
     64 N           0.7410  -10.5148  -46.4331 N.am      2 UNK        -0.5000 
     65 C           1.1573  -10.9043  -47.6494 C.2       1 UNK         0.5000 
     66 O           2.2733  -10.6420  -48.0999 O.2       1 UNK        -0.5000 
     67 C          -3.0824  -21.1440  -47.4328 C.2       11 UNK         0.5000 
     68 O          -3.7529  -21.8744  -48.1630 O.2       11 UNK        -0.5000 
     69 N          -2.4926  -21.5920  -46.3148 N.am      12 UNK        -0.5000 
     70 CA         -2.3873  -22.9980  -45.9239 C.3       12 UNK         0.1400 
     71 CB         -1.7174  -23.0877  -44.5457 C.3       12 UNK        -0.1800 
     72 C          -1.6205  -23.8499  -46.9576 C.2       12 UNK         0.5000 
     73 O          -1.9632  -25.0166  -47.1453 O.2       12 UNK        -0.5000 
     74 N          -0.6527  -23.2424  -47.6641 N.am      13 UNK        -0.5000 
     75 CA          0.0703  -23.8582  -48.7830 C.3       13 UNK         0.1400 
     76 CB          1.2995  -23.0019  -49.1209 C.3       13 UNK        -0.1800 
     77 C          -0.8092  -24.0706  -50.0341 C.2       13 UNK         0.5000 
     78 O          -0.5038  -24.9403  -50.8496 O.2       13 UNK        -0.5000 
     79 N          -1.8985  -23.2997  -50.1406 N.am      14 UNK        -0.5000 
     80 CA         -2.9465  -23.4322  -51.1506 C.3       14 UNK         0.1400 
     81 CB         -3.3918  -22.0247  -51.5831 C.3       14 UNK        -0.1800 
     82 C          -4.1485  -24.2487  -50.6377 C.2       14 UNK         0.5000 
     83 O          -5.1607  -24.3259  -51.3360 O.2       14 UNK        -0.5000 
     84 N          -4.0444  -24.8091  -49.4221 N.am      15 UNK        -0.5000 
     85 CA         -5.0819  -25.5472  -48.6972 C.3       15 UNK         0.1400 
     86 CB         -5.3248  -26.9205  -49.3556 C.3       15 UNK        -0.1800 
     87 C          -6.3684  -24.7169  -48.4988 C.2       15 UNK         0.5000 
     88 O          -7.4704  -25.2166  -48.7285 O.2       15 UNK        -0.5000 
     89 N          -6.1860  -23.4481  -48.0995 N.am      16 UNK        -0.5000 
     90 CA         -7.2159  -22.4222  -47.9063 C.3       16 UNK         0.1400 
     91 CB         -8.1913  -22.8083  -46.7744 C.3       16 UNK        -0.1800 
     92 C          -7.9166  -22.0559  -49.2300 C.2       16 UNK         0.5000 
     93 O          -9.1462  -22.0358  -49.3065 O.2       16 UNK        -0.5000 
     94 N          -7.0913  -21.7773  -50.2485 N.am      17 UNK        -0.5000 
     95 CA         -7.4496  -21.3445  -51.6037 C.3       17 UNK         0.1400 
     96 CB         -8.2141  -20.0040  -51.5837 C.3       17 UNK        -0.1800 
     97 C          -8.1574  -22.4190  -52.4553 C.2       17 UNK         0.5000 
     98 O          -8.7674  -22.0807  -53.4707 O.2       17 UNK        -0.5000 
     99 N          -8.0347  -23.6961  -52.0691 N.am      18 UNK        -0.5000 
    100 CA        -8.4845  -24.8405  -52.8652 C.3       18 UNK         0.1400 
    101 CB        -8.5501  -26.0882  -51.9740 C.3       18 UNK        -0.1800 
    102 C         -7.5661  -25.0790  -54.0794 C.2       18 UNK         0.5000 
    103 O         -8.0497  -25.4296  -55.1562 O.2       18 UNK        -0.5000 
    104 N         -6.2652  -24.8389  -53.8847 N.am      19 UNK        -0.5000 
    105 CA        -5.2222  -24.8224  -54.9011 C.3       19 UNK         0.1400 
    106 CB        -4.2447  -25.9812  -54.6335 C.3       19 UNK        -0.1800 
    107 C         -4.5473  -23.4443  -54.8295 C.2       19 UNK         0.5000 
    108 O         -3.3794  -23.3450  -54.4544 O.2       19 UNK        -0.5000 
    109 N         -5.3229  -22.3961  -55.1456 N.am      20 UNK        -0.5000 
    110 CA        -5.0239  -20.9665  -54.9629 C.3       20 UNK         0.1400 
    111 CB        -6.1981  -20.1484  -55.5219 C.3       20 UNK        -0.1800 
    112 C         -3.6880  -20.4444  -55.5338 C.2       20 UNK         0.5000 
    113 O         -3.2429  -19.3735  -55.1229 O.2       20 UNK        -0.5000 
    114 N         -3.0694  -21.1937  -56.4531 N.am      21 UNK        -0.5000 
    115 CA        -1.7410  -20.9185  -56.9996 C.3       21 UNK         0.1400 
    116 CB        -1.6109  -21.6492  -58.3460 C.3       21 UNK        -0.1800 
    117 C         -0.5828  -21.3165  -56.0569 C.2       21 UNK         0.5000 
    118 O          0.5553  -20.9388  -56.3373 O.2       21 UNK        -0.5000 
    119 N         -0.8687  -22.0836  -54.9914 N.am      22 UNK        -0.5000 
    120 CA         0.1101  -22.7059  -54.0753 C.3       22 UNK         0.1400 
    121 C          0.9559  -23.8397  -54.7391 C.2       22 UNK         0.5000 
    122 N          0.5134  -24.4327  -55.8421 N.am      22 UNK        -0.7600 
    123 O          2.0147  -24.2144  -54.2422 O.2       22 UNK        -0.5000 
    124 C124        0.9818  -21.6780  -53.2897 C.3       23 UNK        -0.0398 
    125 S125        0.0588  -20.7936  -51.9922 S.3       23 UNK        -0.2404 
    126 C126       -0.4175  -19.2590  -52.8358 C.3       23 UNK        -0.0205 
    127 H127       -2.1648  -14.7874  -46.0429 H         1 UNK         0.0600 
    128 H128       -2.3944  -13.2829  -45.1433 H         1 UNK         0.0600 
    129 H129       -3.0366  -13.4439  -46.7808 H         1 UNK         0.0600 
    130 H130       -1.8590  -12.0690  -48.0614 H         1 UNK         0.3000 
    131 H131       -0.2667  -11.0851  -49.2057 H         1 UNK         0.0600 
    132 H132        1.7084  -12.3948  -49.9238 H         1 UNK         0.0800 
    133 H133        1.4876  -13.5240  -48.6177 H         1 UNK         0.0800 
    134 H134       -0.4975  -15.3096  -48.5369 H         1 UNK         0.0800 
    135 H135        0.9182  -15.7843  -49.4470 H         1 UNK         0.0800 
    136 H136        0.7273  -17.2787  -51.3676 H         1 UNK         0.1150 
    137 H137       -3.0611  -19.1250  -52.1539 H         1 UNK         0.1150 
    138 H138       -2.7838  -15.9055  -49.3322 H         1 UNK         0.1150 
    139 H139       -5.1098  -17.6591  -51.4057 H         1 UNK         0.0800 
    140 H140       -4.9458  -16.7372  -49.9340 H         1 UNK         0.0800 
    141 H141       -3.9313  -17.7812  -47.8195 H         1 UNK         0.0800 
    142 H142       -4.8099  -19.0844  -47.0823 H         1 UNK         0.0800 
    143 H143       -2.3969  -19.7052  -48.8374 H         1 UNK         0.0600 
    144 H144       -2.1764  -18.3049  -46.3387 H         1 UNK         0.3000 
    145 H145        1.3022  -18.9518  -45.9075 H         1 UNK         0.0600 
    146 H146        1.1046  -16.4555  -45.6610 H         1 UNK         0.0600 
    147 H147        1.0292  -16.9802  -47.3310 H         1 UNK         0.0600 
    148 H148       -0.4409  -16.5032  -46.4907 H         1 UNK         0.0600 
    149 H149        0.3896  -19.1124  -43.9282 H         1 UNK         0.3000 
    150 H150       -1.8462  -17.3202  -42.1297 H         1 UNK         0.0600 
    151 H151       -3.7109  -18.7622  -42.6818 H         1 UNK         0.0600 
    152 H152       -2.9640  -19.3737  -41.2148 H         1 UNK         0.0600 
    153 H153       -2.6917  -20.1857  -42.7579 H         1 UNK         0.0600 
    154 H154        0.0990  -17.9590  -41.3119 H         1 UNK         0.3000 
    155 H155        1.2972  -19.5177  -39.9473 H         1 UNK         0.0600 
    156 H156        1.1991  -21.9919  -40.0800 H         1 UNK         0.0600 
    157 H157        2.8672  -21.4418  -40.0345 H         1 UNK         0.0600 
    158 H158        2.1573  -21.9860  -41.5529 H         1 UNK         0.0600 
    159 H159        2.9147  -18.4471  -41.0279 H         1 UNK         0.3000 
    160 H160        5.0683  -19.0932  -43.4089 H         1 UNK         0.0600 
    161 H161        2.9566  -17.1689  -44.4992 H         1 UNK         0.0600 
    162 H162        4.6663  -17.1474  -44.9229 H         1 UNK         0.0600 
    163 H163        3.6719  -18.5209  -45.3717 H         1 UNK         0.0600 
    164 H164        4.1872  -16.4898  -42.4963 H         1 UNK         0.3000 
    165 H165        5.9354  -16.6403  -39.3923 H         1 UNK         0.0600 
    166 H166        7.0217  -14.6436  -40.3984 H         1 UNK         0.0600 
    167 H167        7.6766  -16.1198  -41.0906 H         1 UNK         0.0600 
    168 H168        6.5249  -15.1565  -42.0100 H         1 UNK         0.0600 
    169 H169        4.1681  -14.9811  -41.1547 H         1 UNK         0.3000 
    170 H170        1.6583  -14.7913  -38.6833 H         1 UNK         0.0600 
    171 H171        3.1809  -12.9857  -37.8649 H         1 UNK         0.0600 
    172 H172        3.5482  -12.5268  -39.5234 H         1 UNK         0.0600 
    173 H173        1.9132  -12.3321  -38.8896 H         1 UNK         0.0600 
    174 H174        2.0030  -13.4695  -41.2015 H         1 UNK         0.3000 
    175 H175        0.8744  -16.1005  -43.2674 H         1 UNK         0.0600 
    176 H176       -0.7010  -13.5753  -42.5947 H         1 UNK         0.0600 
    177 H177       -1.0814  -14.8327  -43.7718 H         1 UNK         0.0600 
    178 H178       -1.2392  -15.1526  -42.0548 H         1 UNK         0.0600 
    179 H179        1.0953  -13.6451  -44.2440 H         1 UNK         0.3000 
    180 H180        4.4431  -12.7632  -44.3788 H         1 UNK         0.0600 
    181 H181        4.6361  -14.7641  -45.8338 H         1 UNK         0.0600 
    182 H182        3.0219  -14.4898  -46.4817 H         1 UNK         0.0600 
    183 H183        4.3174  -13.3413  -46.8140 H         1 UNK         0.0600 
    184 H184        1.7739  -12.4705  -45.7000 H         1 UNK         0.3000 
    185 H185        0.8604   -9.7839  -44.5161 H         1 UNK         0.0600 
    186 H186        2.5264   -8.0291  -44.8930 H         1 UNK         0.0600 
    187 H187        2.8514   -8.6014  -46.5209 H         1 UNK         0.0600 
    188 H188        1.2838   -7.8971  -46.1253 H         1 UNK         0.0600 
    189 H189       -0.1979  -10.7826  -46.1727 H         1 UNK         0.3000 
    190 H190       -1.9625  -20.9325  -45.7656 H         1 UNK         0.3000 
    191 H191       -3.3989  -23.4016  -45.8442 H         1 UNK         0.0600 
    192 H192       -1.6389  -24.1241  -44.2152 H         1 UNK         0.0600 
    193 H193       -2.2915  -22.5499  -43.7909 H         1 UNK         0.0600 
    194 H194       -0.7098  -22.6696  -44.5587 H         1 UNK         0.0600 
    195 H195       -0.4380  -22.2694  -47.4756 H         1 UNK         0.3000 
    196 H196        0.4207  -24.8412  -48.4614 H         1 UNK         0.0600 
    197 H197        1.8619  -23.4317  -49.9509 H         1 UNK         0.0600 
    198 H198        1.9766  -22.9309  -48.2697 H         1 UNK         0.0600 
    199 H199        1.0161  -21.9889  -49.4068 H         1 UNK         0.0600 
    200 H200       -2.0872  -22.6288  -49.4085 H         1 UNK         0.3000 
    201 H201       -2.5630  -23.9578  -52.0263 H         1 UNK         0.0600 
    202 H202       -2.6529  -21.5677  -52.2376 H         1 UNK         0.0600 
    203 H203       -3.5459  -21.3615  -50.7341 H         1 UNK         0.0600 
    204 H204       -4.3228  -22.0550  -52.1436 H         1 UNK         0.0600 
    205 H205       -3.1740  -24.6917  -48.9196 H         1 UNK         0.3000 
    206 H206       -4.6883  -25.7306  -47.6966 H         1 UNK         0.0600 
    207 H207       -4.4080  -27.5095  -49.3766 H         1 UNK         0.0600 
    208 H208       -6.0669  -27.4980  -48.8032 H         1 UNK         0.0600 
    209 H209       -5.6780  -26.8237  -50.3811 H         1 UNK         0.0600 
    210 H210       -5.2313  -23.1085  -48.0163 H         1 UNK         0.3000 
    211 H211       -6.6883  -21.5225  -47.5852 H         1 UNK         0.0600 
    212 H212       -8.8037  -23.6710  -47.0372 H         1 UNK         0.0600 
    213 H213       -8.8703  -21.9848  -46.5508 H         1 UNK         0.0600 
    214 H214       -7.6544  -23.0446  -45.8558 H         1 UNK         0.0600 
    215 H215       -6.0994  -21.8427  -50.0667 H         1 UNK         0.3000 
    216 H216       -6.5013  -21.1568  -52.1051 H         1 UNK         0.0600 
    217 H217       -7.6914  -19.2577  -50.9862 H         1 UNK         0.0600 
    218 H218       -8.3146  -19.5958  -52.5899 H         1 UNK         0.0600 
    219 H219       -9.2192  -20.1160  -51.1768 H         1 UNK         0.0600 
    220 H220       -7.4834  -23.9009  -51.2458 H         1 UNK         0.3000 
    221 H221       -9.4906  -24.6344  -53.2366 H         1 UNK         0.0600 
    222 H222       -7.5697  -26.3469  -51.5763 H         1 UNK         0.0600 
    223 H223       -9.2226  -25.9353  -51.1296 H         1 UNK         0.0600 
    224 H224       -8.9167  -26.9496  -52.5334 H         1 UNK         0.0600 
    225 H225       -5.9602  -24.5666  -52.9509 H         1 UNK         0.3000 
    226 H226       -5.6422  -24.9389  -55.9021 H         1 UNK         0.0600 
    227 H227       -4.7504  -26.9441  -54.7043 H         1 UNK         0.0600 
    228 H228       -3.4325  -25.9841  -55.3612 H         1 UNK         0.0600 
    229 H229       -3.7987  -25.9115  -53.6402 H         1 UNK         0.0600 
    230 H230       -6.2657  -22.5993  -55.4458 H         1 UNK         0.3000 
    231 H231       -4.9806  -20.7826  -53.8902 H         1 UNK         0.0600 
    232 H232       -6.3296  -20.3169  -56.5913 H         1 UNK         0.0600 
    233 H233       -7.1331  -20.4046  -55.0235 H         1 UNK         0.0600 
    234 H234       -6.0396  -19.0791  -55.3747 H         1 UNK         0.0600 
    235 H235       -3.5014  -22.0645  -56.7239 H         1 UNK         0.3000 
    236 H236       -1.6535  -19.8461  -57.1862 H         1 UNK         0.0600 
    237 H237       -1.6958  -22.7300  -58.2276 H         1 UNK         0.0600 
    238 H238       -2.3818  -21.3261  -59.0459 H         1 UNK         0.0600 
    239 H239       -0.6462  -21.4449  -58.8123 H         1 UNK         0.0600 
    240 H240       -1.8317  -22.3781  -54.8468 H         1 UNK         0.3000 
    241 H241       -0.4918  -23.2389  -53.3385 H         1 UNK         0.0600 
    242 H242        1.0583  -25.1699  -56.2610 H         1 UNK         0.3800 
    243 H243       -0.3644  -24.1605  -56.2531 H         1 UNK         0.3800 
    244 H244        1.4729  -20.9681  -53.9544 H         1 UNK         0.0800 
    245 H245        1.7907  -22.1846  -52.7618 H         1 UNK         0.0800 
    246 H246        0.4644  -18.7901  -53.2744 H         1 UNK         0.0800 
    247 H247       -1.0893  -19.4921  -53.6606 H         1 UNK         0.0800 
@<TRIPOS>BOND
     1    1    2 1    
     2    1  127 1    
     3    1  128 1    
     4    1  129 1    
     5    2    3 2    
     6    2    4 am   BACKBONE|DICT|INTERRES
     7    4    5 1    
     8    4  130 1    
     9    5    6 1    
    10    5   65 1    
    11    5  131 1    
    12    6    7 1    
    13    6  132 1    
    14    6  133 1    
    15    7    8 1    
    16    8    9 1    
    17    8  134 1    
    18    8  135 1    
    19    9   10 ar   
    20    9   14 ar   
    21   10   11 ar   
    22   10  136 1    
    23   11   12 ar   
    24   11  126 1    
    25   12   13 ar   
    26   12  137 1    
    27   13   14 ar   
    28   13   15 1    
    29   14  138 1    
    30   15   16 1    
    31   15  139 1    
    32   15  140 1    
    33   16   17 1    
    34   17   18 1    
    35   17  141 1    
    36   17  142 1    
    37   18   19 1    
    38   18   67 1    
    39   18  143 1    
    40   19   20 am   BACKBONE|DICT|INTERRES
    41   19  144 1    
    42   20   21 2    
    43   20   22 1    
    44   22   23 1    
    45   22   24 1    
    46   22  145 1    
    47   23  146 1    
    48   23  147 1    
    49   23  148 1    
    50   24   25 am   BACKBONE|DICT|INTERRES
    51   24  149 1    
    52   25   26 2    
    53   25   27 1    
    54   27   28 1    
    55   27   29 1    
    56   27  150 1    
    57   28  151 1    
    58   28  152 1    
    59   28  153 1    
    60   29   30 am   BACKBONE|DICT|INTERRES
    61   29  154 1    
    62   30   31 2    
    63   30   32 1    
    64   32   33 1    
    65   32   34 1    
    66   32  155 1    
    67   33  156 1    
    68   33  157 1    
    69   33  158 1    
    70   34   35 am   BACKBONE|DICT|INTERRES
    71   34  159 1    
    72   35   36 2    
    73   35   37 1    
    74   37   38 1    
    75   37   39 1    
    76   37  160 1    
    77   38  161 1    
    78   38  162 1    
    79   38  163 1    
    80   39   40 am   BACKBONE|DICT|INTERRES
    81   39  164 1    
    82   40   41 2    
    83   40   42 1    
    84   42   43 1    
    85   42   44 1    
    86   42  165 1    
    87   43  166 1    
    88   43  167 1    
    89   43  168 1    
    90   44   45 am   BACKBONE|DICT|INTERRES
    91   44  169 1    
    92   45   46 2    
    93   45   47 1    
    94   47   48 1    
    95   47   49 1    
    96   47  170 1    
    97   48  171 1    
    98   48  172 1    
    99   48  173 1    
   100   49   50 am   BACKBONE|DICT|INTERRES
   101   49  174 1    
   102   50   51 2    
   103   50   52 1    
   104   52   53 1    
   105   52   54 1    
   106   52  175 1    
   107   53  176 1    
   108   53  177 1    
   109   53  178 1    
   110   54   55 am   BACKBONE|DICT|INTERRES
   111   54  179 1    
   112   55   56 2    
   113   55   57 1    
   114   57   58 1    
   115   57   59 1    
   116   57  180 1    
   117   58  181 1    
   118   58  182 1    
   119   58  183 1    
   120   59   60 am   BACKBONE|DICT|INTERRES
   121   59  184 1    
   122   60   61 2    
   123   60   62 1    
   124   62   63 1    
   125   62   64 1    
   126   62  185 1    
   127   63  186 1    
   128   63  187 1    
   129   63  188 1    
   130   64   65 am   BACKBONE|DICT|INTERRES
   131   64  189 1    
   132   65   66 2    
   133   67   68 2    
   134   67   69 am   BACKBONE|DICT|INTERRES
   135   69   70 1    
   136   69  190 1    
   137   70   71 1    
   138   70   72 1    
   139   70  191 1    
   140   71  192 1    
   141   71  193 1    
   142   71  194 1    
   143   72   73 2    
   144   72   74 am   BACKBONE|DICT|INTERRES
   145   74   75 1    
   146   74  195 1    
   147   75   76 1    
   148   75   77 1    
   149   75  196 1    
   150   76  197 1    
   151   76  198 1    
   152   76  199 1    
   153   77   78 2    
   154   77   79 am   BACKBONE|DICT|INTERRES
   155   79   80 1    
   156   79  200 1    
   157   80   81 1    
   158   80   82 1    
   159   80  201 1    
   160   81  202 1    
   161   81  203 1    
   162   81  204 1    
   163   82   83 2    
   164   82   84 am   BACKBONE|DICT|INTERRES
   165   84   85 1    
   166   84  205 1    
   167   85   86 1    
   168   85   87 1    
   169   85  206 1    
   170   86  207 1    
   171   86  208 1    
   172   86  209 1    
   173   87   88 2    
   174   87   89 am   BACKBONE|DICT|INTERRES
   175   89   90 1    
   176   89  210 1    
   177   90   91 1    
   178   90   92 1    
   179   90  211 1    
   180   91  212 1    
   181   91  213 1    
   182   91  214 1    
   183   92   93 2    
   184   92   94 am   BACKBONE|DICT|INTERRES
   185   94   95 1    
   186   94  215 1    
   187   95   96 1    
   188   95   97 1    
   189   95  216 1    
   190   96  217 1    
   191   96  218 1    
   192   96  219 1    
   193   97   98 2    
   194   97   99 am   BACKBONE|DICT|INTERRES
   195   99  100 1    
   196   99  220 1    
   197  100  101 1    
   198  100  102 1    
   199  100  221 1    
   200  101  222 1    
   201  101  223 1    
   202  101  224 1    
   203  102  103 2    
   204  102  104 am   BACKBONE|DICT|INTERRES
   205  104  105 1    
   206  104  225 1    
   207  105  106 1    
   208  105  107 1    
   209  105  226 1    
   210  106  227 1    
   211  106  228 1    
   212  106  229 1    
   213  107  108 2    
   214  107  109 am   BACKBONE|DICT|INTERRES
   215  109  110 1    
   216  109  230 1    
   217  110  111 1    
   218  110  112 1    
   219  110  231 1    
   220  111  232 1    
   221  111  233 1    
   222  111  234 1    
   223  112  113 2    
   224  112  114 am   BACKBONE|DICT|INTERRES
   225  114  115 1    
   226  114  235 1    
   227  115  116 1    
   228  115  117 1    
   229  115  236 1    
   230  116  237 1    
   231  116  238 1    
   232  116  239 1    
   233  117  118 2    
   234  117  119 am   BACKBONE|DICT|INTERRES
   235  119  120 1    
   236  119  240 1    
   237  120  121 1    
   238  120  124 1    
   239  120  241 1    
   240  121  122 am   BACKBONE|DICT|INTERRES
   241  121  123 2    
   242  122  242 1    
   243  122  243 1    
   244  124  125 1    
   245  124  244 1    
   246  124  245 1    
   247  125  126 1    
   248  126  246 1    
   249  126  247 1    
@<TRIPOS>SUBSTRUCTURE
     1 UNK         1 GROUP             0       ****    0 ROOT    
