@<TRIPOS>MOLECULE
3R540
247   249    1
SMALL
USER_CHARGES


@<TRIPOS>ATOM
      1 CA         -2.7030  -17.2113  -47.2459 C.3       0 UNK        -0.1800 
      2 C          -3.2911  -15.9645  -47.8920 C.2       0 UNK         0.5000 
      3 O          -4.5061  -15.8669  -48.0533 O.2       0 UNK        -0.5000 
      4 N          -2.4267  -15.0102  -48.2596 N.am      1 UNK        -0.5000 
      5 CA         -2.7827  -13.7486  -48.9281 C.3       1 UNK         0.1400 
      6 C6         -1.5453  -13.0770  -49.5765 C.3       23 UNK        -0.0398 
      7 S7         -0.7880  -14.1246  -50.8628 S.3       23 UNK        -0.2404 
      8 C8          0.6706  -14.7892  -50.0021 C.3       23 UNK        -0.0205 
      9 C9          1.0049  -16.1774  -50.5200 C.ar      23 UNK        -0.0193 
     10 C10         1.7914  -16.3350  -51.6658 C.ar      23 UNK        -0.1150 
     11 C11         2.0775  -17.6118  -52.1586 C.ar      23 UNK        -0.0193 
     12 C12         1.5839  -18.7330  -51.4880 C.ar      23 UNK        -0.1150 
     13 C13         0.7947  -18.5859  -50.3457 C.ar      23 UNK        -0.0193 
     14 C14         0.5094  -17.3073  -49.8626 C.ar      23 UNK        -0.1150 
     15 C15         0.2279  -19.8138  -49.6618 C.3       23 UNK        -0.0205 
     16 S16         1.3020  -20.3866  -48.3212 S.3       23 UNK        -0.2404 
     17 C17         0.3499  -19.8895  -46.8468 C.3       23 UNK        -0.0398 
     18 CA         -0.7294  -20.9243  -46.4363 C.3       11 UNK         0.1400 
     19 N          -0.2407  -22.3055  -46.5030 N.am      11 UNK        -0.5000 
     20 C          -1.0025  -23.4064  -46.5039 C.2       10 UNK         0.5000 
     21 O          -2.2272  -23.3982  -46.4078 O.2       10 UNK        -0.5000 
     22 CA         -0.2558  -24.7500  -46.5888 C.3       10 UNK         0.1400 
     23 CB          0.0691  -25.0897  -48.0517 C.3       10 UNK        -0.1800 
     24 N           0.9801  -24.7541  -45.8035 N.am      10 UNK        -0.5000 
     25 C           1.0311  -24.6322  -44.4691 C.2       9 UNK         0.5000 
     26 O           0.0334  -24.5626  -43.7525 O.2       9 UNK        -0.5000 
     27 CA          2.4308  -24.5028  -43.8376 C.3       9 UNK         0.1400 
     28 CB          3.0080  -25.8889  -43.5154 C.3       9 UNK        -0.1800 
     29 N           3.3816  -23.7605  -44.6735 N.am      9 UNK        -0.5000 
     30 C           3.2227  -22.4864  -45.0537 C.2       8 UNK         0.5000 
     31 O           2.2439  -21.7982  -44.7395 O.2       8 UNK        -0.5000 
     32 CA          4.3140  -21.8953  -45.9608 C.3       8 UNK         0.1400 
     33 CB          4.3139  -22.5559  -47.3516 C.3       8 UNK        -0.1800 
     34 N           4.0410  -20.4723  -46.0789 N.am      8 UNK        -0.5000 
     35 C           4.8945  -19.4909  -46.3814 C.2       7 UNK         0.5000 
     36 O           6.0583  -19.6754  -46.7394 O.2       7 UNK        -0.5000 
     37 CA          4.3579  -18.0521  -46.2119 C.3       7 UNK         0.1400 
     38 CB          3.8909  -17.4762  -47.5584 C.3       7 UNK        -0.1800 
     39 N           3.2555  -17.9612  -45.2469 N.am      7 UNK        -0.5000 
     40 C           3.3572  -18.1969  -43.9318 C.2       6 UNK         0.5000 
     41 O           4.4286  -18.4185  -43.3649 O.2       6 UNK        -0.5000 
     42 CA          2.0386  -18.1864  -43.1299 C.3       6 UNK         0.1400 
     43 CB          2.2389  -18.5796  -41.6554 C.3       6 UNK        -0.1800 
     44 N           1.3731  -16.8868  -43.1701 N.am      6 UNK        -0.5000 
     45 C           0.7028  -16.3600  -44.1996 C.2       5 UNK         0.5000 
     46 O           0.5664  -16.9323  -45.2832 O.2       5 UNK        -0.5000 
     47 CA          0.0739  -14.9717  -43.9532 C.3       5 UNK         0.1400 
     48 CB         -0.5391  -14.3737  -45.2299 C.3       5 UNK        -0.1800 
     49 N          -0.9454  -15.0176  -42.8981 N.am      5 UNK        -0.5000 
     50 C          -0.6901  -15.0922  -41.5819 C.2       4 UNK         0.5000 
     51 O           0.4538  -15.0695  -41.1219 O.2       4 UNK        -0.5000 
     52 CA         -1.8926  -15.2677  -40.6262 C.3       4 UNK         0.1400 
     53 CB         -1.6016  -14.7623  -39.1969 C.3       4 UNK        -0.1800 
     54 N          -3.1512  -14.7119  -41.1352 N.am      4 UNK        -0.5000 
     55 C          -3.4223  -13.4252  -41.3913 C.2       3 UNK         0.5000 
     56 O          -2.6340  -12.4945  -41.2106 O.2       3 UNK        -0.5000 
     57 CA         -4.8146  -13.1366  -41.9856 C.3       3 UNK         0.1400 
     58 CB         -5.6404  -12.2396  -41.0499 C.3       3 UNK        -0.1800 
     59 N          -4.7106  -12.5009  -43.2989 N.am      3 UNK        -0.5000 
     60 C          -4.1113  -13.0498  -44.3626 C.2       2 UNK         0.5000 
     61 O          -3.6471  -14.1955  -44.3704 O.2       2 UNK        -0.5000 
     62 CA         -3.9988  -12.1675  -45.6154 C.3       2 UNK         0.1400 
     63 CB         -3.1330  -10.9189  -45.3562 C.3       2 UNK        -0.1800 
     64 N          -3.4054  -12.9652  -46.6794 N.am      2 UNK        -0.5000 
     65 C          -3.5001  -12.7470  -47.9940 C.2       1 UNK         0.5000 
     66 O          -4.1124  -11.7957  -48.4818 O.2       1 UNK        -0.5000 
     67 C          -1.2923  -20.5949  -45.0419 C.2       11 UNK         0.5000 
     68 O          -2.2695  -19.8552  -44.9319 O.2       11 UNK        -0.5000 
     69 N          -0.6740  -21.1746  -44.0030 N.am      12 UNK        -0.5000 
     70 CA         -1.1616  -21.1331  -42.6269 C.3       12 UNK         0.1400 
     71 CB         -0.0573  -21.6352  -41.6842 C.3       12 UNK        -0.1800 
     72 C          -2.4497  -21.9599  -42.4464 C.2       12 UNK         0.5000 
     73 O          -3.3427  -21.5360  -41.7121 O.2       12 UNK        -0.5000 
     74 N          -2.5191  -23.1203  -43.1149 N.am      13 UNK        -0.5000 
     75 CA         -3.6504  -24.0439  -43.0645 C.3       13 UNK         0.1400 
     76 CB         -3.2315  -25.4101  -43.6294 C.3       13 UNK        -0.1800 
     77 C          -4.9070  -23.5182  -43.7817 C.2       13 UNK         0.5000 
     78 O          -6.0030  -23.6607  -43.2366 O.2       13 UNK        -0.5000 
     79 N          -4.7467  -22.9317  -44.9760 N.am      14 UNK        -0.5000 
     80 CA         -5.8519  -22.4291  -45.7884 C.3       14 UNK         0.1400 
     81 CB         -6.4308  -23.5728  -46.6410 C.3       14 UNK        -0.1800 
     82 C          -5.3965  -21.2734  -46.6872 C.2       14 UNK         0.5000 
     83 O          -4.2979  -21.3132  -47.2420 O.2       14 UNK        -0.5000 
     84 N          -6.2896  -20.2933  -46.8777 N.am      15 UNK        -0.5000 
     85 CA         -6.0880  -19.1454  -47.7663 C.3       15 UNK         0.1400 
     86 CB         -7.1967  -18.1132  -47.5145 C.3       15 UNK        -0.1800 
     87 C          -6.0371  -19.5296  -49.2578 C.2       15 UNK         0.5000 
     88 O          -5.3839  -18.8411  -50.0403 O.2       15 UNK        -0.5000 
     89 N          -6.6935  -20.6429  -49.6210 N.am      16 UNK        -0.5000 
     90 CA         -6.7593  -21.1987  -50.9771 C.3       16 UNK         0.1400 
     91 CB         -7.6576  -22.4440  -50.9635 C.3       16 UNK        -0.1800 
     92 C          -5.3871  -21.5385  -51.5907 C.2       16 UNK         0.5000 
     93 O          -5.2466  -21.5189  -52.8145 O.2       16 UNK        -0.5000 
     94 N          -4.3819  -21.7908  -50.7406 N.am      17 UNK        -0.5000 
     95 CA         -2.9914  -22.0098  -51.1344 C.3       17 UNK         0.1400 
     96 CB         -2.1840  -22.4315  -49.9011 C.3       17 UNK        -0.1800 
     97 C          -2.3502  -20.7942  -51.8367 C.2       17 UNK         0.5000 
     98 O          -1.4396  -20.9834  -52.6415 O.2       17 UNK        -0.5000 
     99 N          -2.8554  -19.5784  -51.5763 N.am      18 UNK        -0.5000 
    100 CA        -2.4376  -18.3567  -52.2705 C.3       18 UNK         0.1400 
    101 CB        -2.9516  -17.1305  -51.5056 C.3       18 UNK        -0.1800 
    102 C         -2.8832  -18.3068  -53.7465 C.2       18 UNK         0.5000 
    103 O         -2.3306  -17.5159  -54.5101 O.2       18 UNK        -0.5000 
    104 N         -3.8536  -19.1483  -54.1278 N.am      19 UNK        -0.5000 
    105 CA        -4.2673  -19.3644  -55.5109 C.3       19 UNK         0.1400 
    106 CB        -5.8026  -19.3902  -55.5872 C.3       19 UNK        -0.1800 
    107 C         -3.6691  -20.6733  -56.0525 C.2       19 UNK         0.5000 
    108 O         -3.1221  -20.6750  -57.1549 O.2       19 UNK        -0.5000 
    109 N         -3.7956  -21.7619  -55.2792 N.am      20 UNK        -0.5000 
    110 CA        -3.3968  -23.1119  -55.6734 C.3       20 UNK         0.1400 
    111 CB        -4.1158  -24.1380  -54.7800 C.3       20 UNK        -0.1800 
    112 C         -1.8705  -23.3144  -55.6689 C.2       20 UNK         0.5000 
    113 O         -1.2710  -23.4556  -56.7355 O.2       20 UNK        -0.5000 
    114 N         -1.2664  -23.3328  -54.4725 N.am      21 UNK        -0.5000 
    115 CA         0.1573  -23.6138  -54.2543 C.3       21 UNK         0.1400 
    116 CB         0.4200  -23.8198  -52.7534 C.3       21 UNK        -0.1800 
    117 C          1.0880  -22.5310  -54.8298 C.2       21 UNK         0.5000 
    118 O          2.1899  -22.8529  -55.2760 O.2       21 UNK        -0.5000 
    119 N          0.6132  -21.2799  -54.8416 N.am      22 UNK        -0.5000 
    120 CA         1.2604  -20.1427  -55.5143 C.3       22 UNK         0.1400 
    121 C          1.1959  -20.1873  -57.0744 C.2       22 UNK         0.5000 
    122 N          0.4417  -21.0877  -57.6955 N.am      22 UNK        -0.7600 
    123 O          1.8581  -19.3986  -57.7424 O.2       22 UNK        -0.5000 
    124 C124        0.7365  -18.7972  -54.9468 C.3       23 UNK        -0.0398 
    125 S125        1.9809  -17.4587  -54.9408 S.3       23 UNK        -0.2404 
    126 C126        2.9201  -17.7863  -53.4130 C.3       23 UNK        -0.0205 
    127 H127       -2.7779  -18.0609  -47.9250 H         1 UNK         0.0600 
    128 H128       -3.2437  -17.4539  -46.3308 H         1 UNK         0.0600 
    129 H129       -1.6542  -17.0734  -46.9855 H         1 UNK         0.0600 
    130 H130       -1.4407  -15.1549  -48.1081 H         1 UNK         0.3000 
    131 H131       -3.4899  -13.9878  -49.7255 H         1 UNK         0.0600 
    132 H132       -1.8309  -12.1404  -50.0592 H         1 UNK         0.0800 
    133 H133       -0.8019  -12.8113  -48.8229 H         1 UNK         0.0800 
    134 H134        1.5161  -14.1158  -50.1503 H         1 UNK         0.0800 
    135 H135        0.4971  -14.8310  -48.9263 H         1 UNK         0.0800 
    136 H136        2.1665  -15.4638  -52.1842 H         1 UNK         0.1150 
    137 H137        1.7988  -19.7230  -51.8658 H         1 UNK         0.1150 
    138 H138       -0.1058  -17.1936  -48.9823 H         1 UNK         0.1150 
    139 H139       -0.7811  -19.6141  -49.2995 H         1 UNK         0.0800 
    140 H140        0.1430  -20.6238  -50.3853 H         1 UNK         0.0800 
    141 H141       -0.1024  -18.9133  -47.0225 H         1 UNK         0.0800 
    142 H142        1.0665  -19.7433  -46.0390 H         1 UNK         0.0800 
    143 H143       -1.5593  -20.8347  -47.1378 H         1 UNK         0.0600 
    144 H144        0.7619  -22.4104  -46.5479 H         1 UNK         0.3000 
    145 H145       -0.9132  -25.5264  -46.1922 H         1 UNK         0.0600 
    146 H146        0.5474  -26.0658  -48.1337 H         1 UNK         0.0600 
    147 H147       -0.8392  -25.1227  -48.6547 H         1 UNK         0.0600 
    148 H148        0.7337  -24.3503  -48.5012 H         1 UNK         0.0600 
    149 H149        1.8482  -24.8083  -46.3151 H         1 UNK         0.3000 
    150 H150        2.3158  -23.9546  -42.9001 H         1 UNK         0.0600 
    151 H151        3.1768  -26.4758  -44.4191 H         1 UNK         0.0600 
    152 H152        2.3285  -26.4559  -42.8776 H         1 UNK         0.0600 
    153 H153        3.9569  -25.8076  -42.9849 H         1 UNK         0.0600 
    154 H154        4.2069  -24.2620  -44.9690 H         1 UNK         0.3000 
    155 H155        5.2829  -22.0367  -45.4781 H         1 UNK         0.0600 
    156 H156        3.3356  -22.4955  -47.8282 H         1 UNK         0.0600 
    157 H157        4.5819  -23.6107  -47.2867 H         1 UNK         0.0600 
    158 H158        5.0366  -22.0817  -48.0157 H         1 UNK         0.0600 
    159 H159        3.1170  -20.2233  -45.7521 H         1 UNK         0.3000 
    160 H160        5.1812  -17.4368  -45.8435 H         1 UNK         0.0600 
    161 H161        3.0418  -18.0273  -47.9622 H         1 UNK         0.0600 
    162 H162        4.6893  -17.5169  -48.3002 H         1 UNK         0.0600 
    163 H163        3.5923  -16.4325  -47.4595 H         1 UNK         0.0600 
    164 H164        2.3410  -17.7110  -45.6107 H         1 UNK         0.3000 
    165 H165        1.3790  -18.9292  -43.5836 H         1 UNK         0.0600 
    166 H166        1.2844  -18.6479  -41.1330 H         1 UNK         0.0600 
    167 H167        2.7266  -19.5514  -41.5703 H         1 UNK         0.0600 
    168 H168        2.8580  -17.8541  -41.1262 H         1 UNK         0.0600 
    169 H169        1.4078  -16.3374  -42.3171 H         1 UNK         0.3000 
    170 H170        0.8781  -14.3047  -43.6356 H         1 UNK         0.0600 
    171 H171        0.1993  -14.3111  -46.0302 H         1 UNK         0.0600 
    172 H172       -1.3675  -14.9821  -45.5896 H         1 UNK         0.0600 
    173 H173       -0.9097  -13.3649  -45.0510 H         1 UNK         0.0600 
    174 H174       -1.9096  -15.0291  -43.2086 H         1 UNK         0.3000 
    175 H175       -2.0523  -16.3447  -40.5583 H         1 UNK         0.0600 
    176 H176       -2.4613  -14.9096  -38.5433 H         1 UNK         0.0600 
    177 H177       -0.7641  -15.3020  -38.7533 H         1 UNK         0.0600 
    178 H178       -1.3478  -13.7020  -39.1845 H         1 UNK         0.0600 
    179 H179       -3.8640  -15.3955  -41.3501 H         1 UNK         0.3000 
    180 H180       -5.3521  -14.0787  -42.1128 H         1 UNK         0.0600 
    181 H181       -5.1749  -11.2628  -40.9124 H         1 UNK         0.0600 
    182 H182       -5.7435  -12.6956  -40.0644 H         1 UNK         0.0600 
    183 H183       -6.6457  -12.0807  -41.4405 H         1 UNK         0.0600 
    184 H184       -5.0433  -11.5500  -43.3615 H         1 UNK         0.3000 
    185 H185       -5.0063  -11.8663  -45.9093 H         1 UNK         0.0600 
    186 H186       -3.5710  -10.2843  -44.5853 H         1 UNK         0.0600 
    187 H187       -2.1287  -11.1883  -45.0277 H         1 UNK         0.0600 
    188 H188       -3.0371  -10.3085  -46.2541 H         1 UNK         0.0600 
    189 H189       -2.9661  -13.8160  -46.3518 H         1 UNK         0.3000 
    190 H190        0.1528  -21.7319  -44.1830 H         1 UNK         0.3000 
    191 H191       -1.3823  -20.0937  -42.3744 H         1 UNK         0.0600 
    192 H192        0.8752  -21.0961  -41.8420 H         1 UNK         0.0600 
    193 H193       -0.3448  -21.4968  -40.6414 H         1 UNK         0.0600 
    194 H194        0.1482  -22.6960  -41.8282 H         1 UNK         0.0600 
    195 H195       -1.7136  -23.4224  -43.6506 H         1 UNK         0.3000 
    196 H196       -3.9106  -24.1894  -42.0139 H         1 UNK         0.0600 
    197 H197       -4.0516  -26.1262  -43.5658 H         1 UNK         0.0600 
    198 H198       -2.3925  -25.8270  -43.0722 H         1 UNK         0.0600 
    199 H199       -2.9376  -25.3423  -44.6765 H         1 UNK         0.0600 
    200 H200       -3.8222  -22.8616  -45.3977 H         1 UNK         0.3000 
    201 H201       -6.6356  -22.0485  -45.1296 H         1 UNK         0.0600 
    202 H202       -7.2524  -23.2221  -47.2665 H         1 UNK         0.0600 
    203 H203       -5.6737  -24.0003  -47.3001 H         1 UNK         0.0600 
    204 H204       -6.8210  -24.3757  -46.0155 H         1 UNK         0.0600 
    205 H205       -7.1760  -20.3353  -46.3955 H         1 UNK         0.3000 
    206 H206       -5.1313  -18.6877  -47.5129 H         1 UNK         0.0600 
    207 H207       -7.1871  -17.7687  -46.4803 H         1 UNK         0.0600 
    208 H208       -7.0604  -17.2349  -48.1473 H         1 UNK         0.0600 
    209 H209       -8.1856  -18.5214  -47.7266 H         1 UNK         0.0600 
    210 H210       -7.1984  -21.1450  -48.9064 H         1 UNK         0.3000 
    211 H211       -7.2217  -20.4465  -51.6193 H         1 UNK         0.0600 
    212 H212       -7.2598  -23.2194  -50.3075 H         1 UNK         0.0600 
    213 H213       -7.7470  -22.8729  -51.9627 H         1 UNK         0.0600 
    214 H214       -8.6650  -22.2010  -50.6253 H         1 UNK         0.0600 
    215 H215       -4.5703  -21.7623  -49.7474 H         1 UNK         0.3000 
    216 H216       -2.9758  -22.8393  -51.8423 H         1 UNK         0.0600 
    217 H217       -1.1469  -22.6495  -50.1566 H         1 UNK         0.0600 
    218 H218       -2.6001  -23.3303  -49.4455 H         1 UNK         0.0600 
    219 H219       -2.1844  -21.6493  -49.1444 H         1 UNK         0.0600 
    220 H220       -3.6370  -19.4858  -50.9356 H         1 UNK         0.3000 
    221 H221       -1.3470  -18.3181  -52.2643 H         1 UNK         0.0600 
    222 H222       -4.0404  -17.1004  -51.4681 H         1 UNK         0.0600 
    223 H223       -2.5737  -17.1221  -50.4845 H         1 UNK         0.0600 
    224 H224       -2.6181  -16.2085  -51.9820 H         1 UNK         0.0600 
    225 H225       -4.2529  -19.7729  -53.4385 H         1 UNK         0.3000 
    226 H226       -3.9179  -18.5490  -56.1478 H         1 UNK         0.0600 
    227 H227       -6.1386  -19.5483  -56.6127 H         1 UNK         0.0600 
    228 H228       -6.2303  -20.1854  -54.9759 H         1 UNK         0.0600 
    229 H229       -6.2272  -18.4451  -55.2483 H         1 UNK         0.0600 
    230 H230       -4.2913  -21.6788  -54.3955 H         1 UNK         0.3000 
    231 H231       -3.7401  -23.2794  -56.6967 H         1 UNK         0.0600 
    232 H232       -3.8996  -23.9886  -53.7226 H         1 UNK         0.0600 
    233 H233       -3.8201  -25.1561  -55.0367 H         1 UNK         0.0600 
    234 H234       -5.1968  -24.0736  -54.9057 H         1 UNK         0.0600 
    235 H235       -1.8091  -23.1188  -53.6508 H         1 UNK         0.3000 
    236 H236        0.3884  -24.5498  -54.7671 H         1 UNK         0.0600 
    237 H237       -0.2340  -24.5851  -52.3353 H         1 UNK         0.0600 
    238 H238        1.4476  -24.1427  -52.5825 H         1 UNK         0.0600 
    239 H239        0.2730  -22.9020  -52.1848 H         1 UNK         0.0600 
    240 H240       -0.2799  -21.1075  -54.3937 H         1 UNK         0.3000 
    241 H241        2.3207  -20.2143  -55.2658 H         1 UNK         0.0600 
    242 H242       -0.1075  -21.7674  -57.1839 H         1 UNK         0.3800 
    243 H243        0.4204  -21.0964  -58.7027 H         1 UNK         0.3800 
    244 H244        0.3696  -18.9238  -53.9293 H         1 UNK         0.0800 
    245 H245       -0.1277  -18.4561  -55.5177 H         1 UNK         0.0800 
    246 H246        3.3429  -18.7912  -53.4561 H         1 UNK         0.0800 
    247 H247        3.7698  -17.1034  -53.3713 H         1 UNK         0.0800 
@<TRIPOS>BOND
     1    1    2 1    
     2    1  127 1    
     3    1  128 1    
     4    1  129 1    
     5    2    3 2    
     6    2    4 am   BACKBONE|DICT|INTERRES
     7    4    5 1    
     8    4  130 1    
     9    5    6 1    
    10    5   65 1    
    11    5  131 1    
    12    6    7 1    
    13    6  132 1    
    14    6  133 1    
    15    7    8 1    
    16    8    9 1    
    17    8  134 1    
    18    8  135 1    
    19    9   10 ar   
    20    9   14 ar   
    21   10   11 ar   
    22   10  136 1    
    23   11   12 ar   
    24   11  126 1    
    25   12   13 ar   
    26   12  137 1    
    27   13   14 ar   
    28   13   15 1    
    29   14  138 1    
    30   15   16 1    
    31   15  139 1    
    32   15  140 1    
    33   16   17 1    
    34   17   18 1    
    35   17  141 1    
    36   17  142 1    
    37   18   19 1    
    38   18   67 1    
    39   18  143 1    
    40   19   20 am   BACKBONE|DICT|INTERRES
    41   19  144 1    
    42   20   21 2    
    43   20   22 1    
    44   22   23 1    
    45   22   24 1    
    46   22  145 1    
    47   23  146 1    
    48   23  147 1    
    49   23  148 1    
    50   24   25 am   BACKBONE|DICT|INTERRES
    51   24  149 1    
    52   25   26 2    
    53   25   27 1    
    54   27   28 1    
    55   27   29 1    
    56   27  150 1    
    57   28  151 1    
    58   28  152 1    
    59   28  153 1    
    60   29   30 am   BACKBONE|DICT|INTERRES
    61   29  154 1    
    62   30   31 2    
    63   30   32 1    
    64   32   33 1    
    65   32   34 1    
    66   32  155 1    
    67   33  156 1    
    68   33  157 1    
    69   33  158 1    
    70   34   35 am   BACKBONE|DICT|INTERRES
    71   34  159 1    
    72   35   36 2    
    73   35   37 1    
    74   37   38 1    
    75   37   39 1    
    76   37  160 1    
    77   38  161 1    
    78   38  162 1    
    79   38  163 1    
    80   39   40 am   BACKBONE|DICT|INTERRES
    81   39  164 1    
    82   40   41 2    
    83   40   42 1    
    84   42   43 1    
    85   42   44 1    
    86   42  165 1    
    87   43  166 1    
    88   43  167 1    
    89   43  168 1    
    90   44   45 am   BACKBONE|DICT|INTERRES
    91   44  169 1    
    92   45   46 2    
    93   45   47 1    
    94   47   48 1    
    95   47   49 1    
    96   47  170 1    
    97   48  171 1    
    98   48  172 1    
    99   48  173 1    
   100   49   50 am   BACKBONE|DICT|INTERRES
   101   49  174 1    
   102   50   51 2    
   103   50   52 1    
   104   52   53 1    
   105   52   54 1    
   106   52  175 1    
   107   53  176 1    
   108   53  177 1    
   109   53  178 1    
   110   54   55 am   BACKBONE|DICT|INTERRES
   111   54  179 1    
   112   55   56 2    
   113   55   57 1    
   114   57   58 1    
   115   57   59 1    
   116   57  180 1    
   117   58  181 1    
   118   58  182 1    
   119   58  183 1    
   120   59   60 am   BACKBONE|DICT|INTERRES
   121   59  184 1    
   122   60   61 2    
   123   60   62 1    
   124   62   63 1    
   125   62   64 1    
   126   62  185 1    
   127   63  186 1    
   128   63  187 1    
   129   63  188 1    
   130   64   65 am   BACKBONE|DICT|INTERRES
   131   64  189 1    
   132   65   66 2    
   133   67   68 2    
   134   67   69 am   BACKBONE|DICT|INTERRES
   135   69   70 1    
   136   69  190 1    
   137   70   71 1    
   138   70   72 1    
   139   70  191 1    
   140   71  192 1    
   141   71  193 1    
   142   71  194 1    
   143   72   73 2    
   144   72   74 am   BACKBONE|DICT|INTERRES
   145   74   75 1    
   146   74  195 1    
   147   75   76 1    
   148   75   77 1    
   149   75  196 1    
   150   76  197 1    
   151   76  198 1    
   152   76  199 1    
   153   77   78 2    
   154   77   79 am   BACKBONE|DICT|INTERRES
   155   79   80 1    
   156   79  200 1    
   157   80   81 1    
   158   80   82 1    
   159   80  201 1    
   160   81  202 1    
   161   81  203 1    
   162   81  204 1    
   163   82   83 2    
   164   82   84 am   BACKBONE|DICT|INTERRES
   165   84   85 1    
   166   84  205 1    
   167   85   86 1    
   168   85   87 1    
   169   85  206 1    
   170   86  207 1    
   171   86  208 1    
   172   86  209 1    
   173   87   88 2    
   174   87   89 am   BACKBONE|DICT|INTERRES
   175   89   90 1    
   176   89  210 1    
   177   90   91 1    
   178   90   92 1    
   179   90  211 1    
   180   91  212 1    
   181   91  213 1    
   182   91  214 1    
   183   92   93 2    
   184   92   94 am   BACKBONE|DICT|INTERRES
   185   94   95 1    
   186   94  215 1    
   187   95   96 1    
   188   95   97 1    
   189   95  216 1    
   190   96  217 1    
   191   96  218 1    
   192   96  219 1    
   193   97   98 2    
   194   97   99 am   BACKBONE|DICT|INTERRES
   195   99  100 1    
   196   99  220 1    
   197  100  101 1    
   198  100  102 1    
   199  100  221 1    
   200  101  222 1    
   201  101  223 1    
   202  101  224 1    
   203  102  103 2    
   204  102  104 am   BACKBONE|DICT|INTERRES
   205  104  105 1    
   206  104  225 1    
   207  105  106 1    
   208  105  107 1    
   209  105  226 1    
   210  106  227 1    
   211  106  228 1    
   212  106  229 1    
   213  107  108 2    
   214  107  109 am   BACKBONE|DICT|INTERRES
   215  109  110 1    
   216  109  230 1    
   217  110  111 1    
   218  110  112 1    
   219  110  231 1    
   220  111  232 1    
   221  111  233 1    
   222  111  234 1    
   223  112  113 2    
   224  112  114 am   BACKBONE|DICT|INTERRES
   225  114  115 1    
   226  114  235 1    
   227  115  116 1    
   228  115  117 1    
   229  115  236 1    
   230  116  237 1    
   231  116  238 1    
   232  116  239 1    
   233  117  118 2    
   234  117  119 am   BACKBONE|DICT|INTERRES
   235  119  120 1    
   236  119  240 1    
   237  120  121 1    
   238  120  124 1    
   239  120  241 1    
   240  121  122 am   BACKBONE|DICT|INTERRES
   241  121  123 2    
   242  122  242 1    
   243  122  243 1    
   244  124  125 1    
   245  124  244 1    
   246  124  245 1    
   247  125  126 1    
   248  126  246 1    
   249  126  247 1    
@<TRIPOS>SUBSTRUCTURE
     1 UNK         1 GROUP             0       ****    0 ROOT    
