@<TRIPOS>MOLECULE
3R540
247   249    1
SMALL
USER_CHARGES


@<TRIPOS>ATOM
      1 CA          1.1790  -13.2600  -39.9551 C.3       0 UNK        -0.1800 
      2 C           0.9150  -13.1415  -41.4495 C.2       0 UNK         0.5000 
      3 O          -0.1820  -12.7502  -41.8470 O.2       0 UNK        -0.5000 
      4 N           1.9161  -13.4775  -42.2744 N.am      1 UNK        -0.5000 
      5 CA          1.8553  -13.4110  -43.7401 C.3       1 UNK         0.1400 
      6 C6          3.0129  -14.2201  -44.3795 C.3       23 UNK        -0.0398 
      7 S7          2.7576  -14.6092  -46.1452 S.3       23 UNK        -0.2404 
      8 C8          1.8533  -16.1816  -46.0178 C.3       23 UNK        -0.0205 
      9 C9          1.5286  -16.7602  -47.3868 C.ar      23 UNK        -0.0193 
     10 C10         0.6296  -16.1034  -48.2317 C.ar      23 UNK        -0.1150 
     11 C11         0.3296  -16.6094  -49.4992 C.ar      23 UNK        -0.0193 
     12 C12         0.9607  -17.7848  -49.9183 C.ar      23 UNK        -0.1150 
     13 C13         1.8333  -18.4780  -49.0734 C.ar      23 UNK        -0.0193 
     14 C14         2.1163  -17.9564  -47.8079 C.ar      23 UNK        -0.1150 
     15 C15         2.4803  -19.7848  -49.5244 C.3       23 UNK        -0.0205 
     16 S16         1.2911  -20.9585  -50.2607 S.3       23 UNK        -0.2404 
     17 C17         0.1219  -21.1957  -48.8821 C.3       23 UNK        -0.0398 
     18 CA         -0.1131  -22.6850  -48.5534 C.3       11 UNK         0.1400 
     19 N           1.1073  -23.3935  -48.1650 N.am      11 UNK        -0.5000 
     20 C           1.2147  -24.7295  -48.1471 C.2       10 UNK         0.5000 
     21 O           0.3061  -25.4878  -48.4819 O.2       10 UNK        -0.5000 
     22 CA          2.5377  -25.3253  -47.6339 C.3       10 UNK         0.1400 
     23 CB          3.5108  -25.5519  -48.8001 C.3       10 UNK        -0.1800 
     24 N           3.1915  -24.5036  -46.6152 N.am      10 UNK        -0.5000 
     25 C           2.6734  -24.1997  -45.4176 C.2       9 UNK         0.5000 
     26 O           1.5700  -24.5971  -45.0359 O.2       9 UNK        -0.5000 
     27 CA          3.5151  -23.2881  -44.4964 C.3       9 UNK         0.1400 
     28 CB          4.8429  -22.8085  -45.1269 C.3       9 UNK        -0.1800 
     29 N           2.7653  -22.1308  -43.9961 N.am      9 UNK        -0.5000 
     30 C           2.1109  -21.2157  -44.7235 C.2       8 UNK         0.5000 
     31 O           1.9669  -21.2710  -45.9489 O.2       8 UNK        -0.5000 
     32 CA          1.5325  -20.0275  -43.9417 C.3       8 UNK         0.1400 
     33 CB          2.6455  -19.0448  -43.5397 C.3       8 UNK        -0.1800 
     34 N           0.5460  -19.3435  -44.7742 N.am      8 UNK        -0.5000 
     35 C          -0.5721  -18.7654  -44.3240 C.2       7 UNK         0.5000 
     36 O          -0.8751  -18.6934  -43.1298 O.2       7 UNK        -0.5000 
     37 CA         -1.5237  -18.1947  -45.3877 C.3       7 UNK         0.1400 
     38 CB         -2.1955  -19.3247  -46.1861 C.3       7 UNK        -0.1800 
     39 N          -2.5450  -17.3932  -44.7181 N.am      7 UNK        -0.5000 
     40 C          -3.3124  -16.4113  -45.2091 C.2       6 UNK         0.5000 
     41 O          -4.1025  -15.8024  -44.4861 O.2       6 UNK        -0.5000 
     42 CA         -3.2355  -16.0199  -46.7062 C.3       6 UNK         0.1400 
     43 CB         -4.5160  -16.4437  -47.4437 C.3       6 UNK        -0.1800 
     44 N          -3.0469  -14.5786  -46.8856 N.am      6 UNK        -0.5000 
     45 C          -1.9959  -13.8842  -46.4324 C.2       5 UNK         0.5000 
     46 O          -1.0629  -14.3860  -45.8040 O.2       5 UNK        -0.5000 
     47 CA         -1.9726  -12.3782  -46.7379 C.3       5 UNK         0.1400 
     48 CB         -2.2249  -11.5582  -45.4626 C.3       5 UNK        -0.1800 
     49 N          -0.6708  -12.0162  -47.2931 N.am      5 UNK        -0.5000 
     50 C          -0.3190  -12.1935  -48.5715 C.2       4 UNK         0.5000 
     51 O          -1.1120  -12.5588  -49.4406 O.2       4 UNK        -0.5000 
     52 CA          1.1442  -11.8799  -48.9382 C.3       4 UNK         0.1400 
     53 CB          1.3795  -11.8906  -50.4663 C.3       4 UNK        -0.1800 
     54 N           1.5351  -10.5970  -48.3505 N.am      4 UNK        -0.5000 
     55 C           2.7779  -10.0997  -48.2938 C.2       3 UNK         0.5000 
     56 O           3.7731  -10.6697  -48.7426 O.2       3 UNK        -0.5000 
     57 CA          2.9357   -8.7350  -47.5961 C.3       3 UNK         0.1400 
     58 CB          2.1421   -7.6318  -48.3168 C.3       3 UNK        -0.1800 
     59 N           2.5170   -8.8087  -46.1976 N.am      3 UNK        -0.5000 
     60 C           3.2268   -9.4033  -45.2292 C.2       2 UNK         0.5000 
     61 O           4.3748   -9.8247  -45.3843 O.2       2 UNK        -0.5000 
     62 CA          2.5460   -9.5928  -43.8554 C.3       2 UNK         0.1400 
     63 CB          1.1752   -8.8904  -43.7183 C.3       2 UNK        -0.1800 
     64 N           2.4254  -11.0169  -43.5230 N.am      2 UNK        -0.5000 
     65 C           1.8120  -11.9567  -44.2616 C.2       1 UNK         0.5000 
     66 O           1.2164  -11.7105  -45.3092 O.2       1 UNK        -0.5000 
     67 C          -1.2071  -22.8413  -47.4817 C.2       11 UNK         0.5000 
     68 O          -2.3693  -23.0249  -47.8368 O.2       11 UNK        -0.5000 
     69 N          -0.8271  -22.8116  -46.1946 N.am      12 UNK        -0.5000 
     70 CA         -1.7423  -23.0632  -45.0775 C.3       12 UNK         0.1400 
     71 CB         -1.0764  -22.7383  -43.7341 C.3       12 UNK        -0.1800 
     72 C          -2.2962  -24.4963  -45.0924 C.2       12 UNK         0.5000 
     73 O          -3.5038  -24.6787  -44.9258 O.2       12 UNK        -0.5000 
     74 N          -1.4105  -25.4679  -45.3594 N.am      13 UNK        -0.5000 
     75 CA         -1.7512  -26.8784  -45.5576 C.3       13 UNK         0.1400 
     76 CB         -0.4622  -27.6998  -45.7057 C.3       13 UNK        -0.1800 
     77 C          -2.6916  -27.1059  -46.7584 C.2       13 UNK         0.5000 
     78 O          -3.5957  -27.9374  -46.6736 O.2       13 UNK        -0.5000 
     79 N          -2.5122  -26.3185  -47.8274 N.am      14 UNK        -0.5000 
     80 CA         -3.3613  -26.2628  -49.0198 C.3       14 UNK         0.1400 
     81 CB         -2.5305  -25.7028  -50.1840 C.3       14 UNK        -0.1800 
     82 C          -4.6685  -25.4679  -48.7907 C.2       14 UNK         0.5000 
     83 O          -5.0332  -24.6182  -49.6097 O.2       14 UNK        -0.5000 
     84 N          -5.3561  -25.7846  -47.6846 N.am      15 UNK        -0.5000 
     85 CA         -6.6638  -25.2843  -47.2578 C.3       15 UNK         0.1400 
     86 CB         -7.7634  -25.8304  -48.1936 C.3       15 UNK        -0.1800 
     87 C          -6.7116  -23.7511  -47.1043 C.2       15 UNK         0.5000 
     88 O          -7.6127  -23.1113  -47.6457 O.2       15 UNK        -0.5000 
     89 N          -5.7300  -23.1818  -46.3869 N.am      16 UNK        -0.5000 
     90 CA         -5.5657  -21.7379  -46.1520 C.3       16 UNK         0.1400 
     91 CB         -6.6723  -21.2033  -45.2196 C.3       16 UNK        -0.1800 
     92 C          -5.4433  -20.9404  -47.4693 C.2       16 UNK         0.5000 
     93 O          -6.1166  -19.9272  -47.6594 O.2       16 UNK        -0.5000 
     94 N          -4.5996  -21.4655  -48.3649 N.am      17 UNK        -0.5000 
     95 CA         -4.3064  -21.0324  -49.7294 C.3       17 UNK         0.1400 
     96 CB         -3.7359  -19.6012  -49.7673 C.3       17 UNK        -0.1800 
     97 C          -5.4529  -21.2216  -50.7396 C.2       17 UNK         0.5000 
     98 O          -5.2731  -20.8408  -51.8955 O.2       17 UNK        -0.5000 
     99 N          -6.5835  -21.8270  -50.3472 N.am      18 UNK        -0.5000 
    100 CA        -7.7273  -22.0475  -51.2369 C.3       18 UNK         0.1400 
    101 CB        -8.9540  -22.4916  -50.4283 C.3       18 UNK        -0.1800 
    102 C         -7.4356  -23.0500  -52.3683 C.2       18 UNK         0.5000 
    103 O         -7.9527  -22.8708  -53.4719 O.2       18 UNK        -0.5000 
    104 N         -6.6102  -24.0695  -52.0896 N.am      19 UNK        -0.5000 
    105 CA        -6.1961  -25.0611  -53.0833 C.3       19 UNK         0.1400 
    106 CB        -6.0025  -26.4238  -52.4004 C.3       19 UNK        -0.1800 
    107 C         -4.9241  -24.6319  -53.8382 C.2       19 UNK         0.5000 
    108 O         -4.7718  -24.9899  -55.0067 O.2       19 UNK        -0.5000 
    109 N         -4.0340  -23.8822  -53.1712 N.am      20 UNK        -0.5000 
    110 CA        -2.7648  -23.4208  -53.7428 C.3       20 UNK         0.1400 
    111 CB        -1.7519  -23.1570  -52.6150 C.3       20 UNK        -0.1800 
    112 C         -2.9011  -22.1633  -54.6175 C.2       20 UNK         0.5000 
    113 O         -2.0745  -21.9637  -55.5086 O.2       20 UNK        -0.5000 
    114 N         -3.8794  -21.2998  -54.3024 N.am      21 UNK        -0.5000 
    115 CA        -4.0860  -19.9533  -54.8575 C.3       21 UNK         0.1400 
    116 CB        -4.5214  -20.0346  -56.3352 C.3       21 UNK        -0.1800 
    117 C         -2.8726  -19.0180  -54.6376 C.2       21 UNK         0.5000 
    118 O         -2.6391  -18.1094  -55.4364 O.2       21 UNK        -0.5000 
    119 N         -2.1038  -19.2941  -53.5737 N.am      22 UNK        -0.5000 
    120 CA        -0.7828  -18.7223  -53.2606 C.3       22 UNK         0.1400 
    121 C          0.3338  -19.0547  -54.3023 C.2       22 UNK         0.5000 
    122 N          0.1646  -20.0383  -55.1795 N.am      22 UNK        -0.7600 
    123 O          1.3939  -18.4352  -54.2991 O.2       22 UNK        -0.5000 
    124 C124       -0.8372  -17.2108  -52.8909 C.3       23 UNK        -0.0398 
    125 S125       -1.7906  -16.8935  -51.3633 S.3       23 UNK        -0.2404 
    126 C126       -0.6459  -15.8459  -50.3958 C.3       23 UNK        -0.0205 
    127 H127        1.0562  -12.2893  -39.4747 H         1 UNK         0.0600 
    128 H128        0.4727  -13.9567  -39.5037 H         1 UNK         0.0600 
    129 H129        2.1880  -13.6169  -39.7476 H         1 UNK         0.0600 
    130 H130        2.7909  -13.7947  -41.8809 H         1 UNK         0.3000 
    131 H131        0.9158  -13.8816  -44.0370 H         1 UNK         0.0600 
    132 H132        3.1493  -15.1619  -43.8460 H         1 UNK         0.0800 
    133 H133        3.9593  -13.6860  -44.2770 H         1 UNK         0.0800 
    134 H134        0.9319  -16.0288  -45.4563 H         1 UNK         0.0800 
    135 H135        2.4540  -16.8833  -45.4422 H         1 UNK         0.0800 
    136 H136        0.1769  -15.1802  -47.9036 H         1 UNK         0.1150 
    137 H137        0.7710  -18.1778  -50.9019 H         1 UNK         0.1150 
    138 H138        2.8020  -18.4781  -47.1546 H         1 UNK         0.1150 
    139 H139        3.2532  -19.5578  -50.2595 H         1 UNK         0.0800 
    140 H140        2.9805  -20.2766  -48.6881 H         1 UNK         0.0800 
    141 H141        0.4783  -20.6630  -48.0008 H         1 UNK         0.0800 
    142 H142       -0.8143  -20.7161  -49.1704 H         1 UNK         0.0800 
    143 H143       -0.4907  -23.1563  -49.4632 H         1 UNK         0.0600 
    144 H144        1.8773  -22.8276  -47.8351 H         1 UNK         0.3000 
    145 H145        2.3098  -26.2938  -47.1842 H         1 UNK         0.0600 
    146 H146        4.4207  -26.0499  -48.4647 H         1 UNK         0.0600 
    147 H147        3.0602  -26.1834  -49.5671 H         1 UNK         0.0600 
    148 H148        3.7961  -24.6121  -49.2748 H         1 UNK         0.0600 
    149 H149        4.0976  -24.1279  -46.8536 H         1 UNK         0.3000 
    150 H150        3.7638  -23.8948  -43.6246 H         1 UNK         0.0600 
    151 H151        5.4805  -23.6489  -45.4043 H         1 UNK         0.0600 
    152 H152        5.4107  -22.2036  -44.4197 H         1 UNK         0.0600 
    153 H153        4.6777  -22.1999  -46.0171 H         1 UNK         0.0600 
    154 H154        2.7885  -22.0124  -42.9931 H         1 UNK         0.3000 
    155 H155        1.0537  -20.4141  -43.0399 H         1 UNK         0.0600 
    156 H156        2.2362  -18.1389  -43.0919 H         1 UNK         0.0600 
    157 H157        3.2550  -18.7555  -44.3961 H         1 UNK         0.0600 
    158 H158        3.3149  -19.4940  -42.8054 H         1 UNK         0.0600 
    159 H159        0.7140  -19.4345  -45.7675 H         1 UNK         0.3000 
    160 H160       -0.9250  -17.5657  -46.0459 H         1 UNK         0.0600 
    161 H161       -2.7401  -20.0027  -45.5294 H         1 UNK         0.0600 
    162 H162       -1.4600  -19.9128  -46.7317 H         1 UNK         0.0600 
    163 H163       -2.9025  -18.9379  -46.9158 H         1 UNK         0.0600 
    164 H164       -2.5848  -17.5861  -43.7249 H         1 UNK         0.3000 
    165 H165       -2.3983  -16.5089  -47.2008 H         1 UNK         0.0600 
    166 H166       -5.3890  -15.9006  -47.0796 H         1 UNK         0.0600 
    167 H167       -4.4311  -16.2657  -48.5160 H         1 UNK         0.0600 
    168 H168       -4.7178  -17.5061  -47.3072 H         1 UNK         0.0600 
    169 H169       -3.7830  -14.0901  -47.3735 H         1 UNK         0.3000 
    170 H170       -2.7551  -12.1377  -47.4608 H         1 UNK         0.0600 
    171 H171       -3.2079  -11.7805  -45.0459 H         1 UNK         0.0600 
    172 H172       -1.4858  -11.7748  -44.6899 H         1 UNK         0.0600 
    173 H173       -2.1903  -10.4882  -45.6676 H         1 UNK         0.0600 
    174 H174        0.0593  -11.8218  -46.6059 H         1 UNK         0.3000 
    175 H175        1.7560  -12.6635  -48.4867 H         1 UNK         0.0600 
    176 H176        0.8159  -11.0993  -50.9617 H         1 UNK         0.0600 
    177 H177        2.4312  -11.7601  -50.7181 H         1 UNK         0.0600 
    178 H178        1.0701  -12.8404  -50.9040 H         1 UNK         0.0600 
    179 H179        0.7823  -10.0744  -47.9254 H         1 UNK         0.3000 
    180 H180        3.9923   -8.4603  -47.6322 H         1 UNK         0.0600 
    181 H181        2.4214   -7.5762  -49.3697 H         1 UNK         0.0600 
    182 H182        1.0660   -7.8018  -48.2707 H         1 UNK         0.0600 
    183 H183        2.3432   -6.6548  -47.8768 H         1 UNK         0.0600 
    184 H184        1.5785   -8.5050  -45.9845 H         1 UNK         0.3000 
    185 H185        3.2181   -9.1536  -43.1168 H         1 UNK         0.0600 
    186 H186        1.2630   -7.8171  -43.8914 H         1 UNK         0.0600 
    187 H187        0.4338   -9.2833  -44.4148 H         1 UNK         0.0600 
    188 H188        0.7754   -9.0186  -42.7123 H         1 UNK         0.0600 
    189 H189        2.8992  -11.3129  -42.6819 H         1 UNK         0.3000 
    190 H190        0.1550  -22.7002  -45.9781 H         1 UNK         0.3000 
    191 H191       -2.5898  -22.3892  -45.1883 H         1 UNK         0.0600 
    192 H192       -1.7363  -22.9873  -42.9021 H         1 UNK         0.0600 
    193 H193       -0.8595  -21.6756  -43.6565 H         1 UNK         0.0600 
    194 H194       -0.1482  -23.2895  -43.5890 H         1 UNK         0.0600 
    195 H195       -0.4328  -25.2146  -45.4517 H         1 UNK         0.3000 
    196 H196       -2.2719  -27.2203  -44.6608 H         1 UNK         0.0600 
    197 H197       -0.6865  -28.7637  -45.7916 H         1 UNK         0.0600 
    198 H198        0.1892  -27.5728  -44.8407 H         1 UNK         0.0600 
    199 H199        0.1005  -27.4118  -46.5934 H         1 UNK         0.0600 
    200 H200       -1.7235  -25.6830  -47.8222 H         1 UNK         0.3000 
    201 H201       -3.6525  -27.2812  -49.2836 H         1 UNK         0.0600 
    202 H202       -1.6161  -26.2775  -50.3314 H         1 UNK         0.0600 
    203 H203       -2.2504  -24.6663  -50.0021 H         1 UNK         0.0600 
    204 H204       -3.0831  -25.7357  -51.1217 H         1 UNK         0.0600 
    205 H205       -4.9454  -26.4957  -47.0889 H         1 UNK         0.3000 
    206 H206       -6.8429  -25.6943  -46.2629 H         1 UNK         0.0600 
    207 H207       -7.7487  -26.9198  -48.2226 H         1 UNK         0.0600 
    208 H208       -8.7551  -25.5297  -47.8538 H         1 UNK         0.0600 
    209 H209       -7.6422  -25.4692  -49.2152 H         1 UNK         0.0600 
    210 H210       -5.0148  -23.7829  -45.9885 H         1 UNK         0.3000 
    211 H211       -4.6200  -21.6103  -45.6297 H         1 UNK         0.0600 
    212 H212       -7.6569  -21.2521  -45.6855 H         1 UNK         0.0600 
    213 H213       -6.4882  -20.1613  -44.9550 H         1 UNK         0.0600 
    214 H214       -6.7124  -21.7714  -44.2903 H         1 UNK         0.0600 
    215 H215       -4.0735  -22.2907  -48.0857 H         1 UNK         0.3000 
    216 H216       -3.5153  -21.7009  -50.0687 H         1 UNK         0.0600 
    217 H217       -4.4682  -18.8603  -49.4480 H         1 UNK         0.0600 
    218 H218       -3.4272  -19.3319  -50.7773 H         1 UNK         0.0600 
    219 H219       -2.8563  -19.5049  -49.1343 H         1 UNK         0.0600 
    220 H220       -6.6750  -22.1481  -49.3905 H         1 UNK         0.3000 
    221 H221       -7.9687  -21.0897  -51.7028 H         1 UNK         0.0600 
    222 H222       -8.8079  -23.4753  -49.9829 H         1 UNK         0.0600 
    223 H223       -9.1768  -21.7873  -49.6266 H         1 UNK         0.0600 
    224 H224       -9.8377  -22.5514  -51.0646 H         1 UNK         0.0600 
    225 H225       -6.2117  -24.1522  -51.1581 H         1 UNK         0.3000 
    226 H226       -6.9876  -25.1856  -53.8255 H         1 UNK         0.0600 
    227 H227       -6.9191  -26.7502  -51.9090 H         1 UNK         0.0600 
    228 H228       -5.7334  -27.1895  -53.1290 H         1 UNK         0.0600 
    229 H229       -5.2153  -26.3971  -51.6501 H         1 UNK         0.0600 
    230 H230       -4.2341  -23.6325  -52.2145 H         1 UNK         0.3000 
    231 H231       -2.3536  -24.2089  -54.3776 H         1 UNK         0.0600 
    232 H232       -2.1567  -22.5009  -51.8452 H         1 UNK         0.0600 
    233 H233       -1.4419  -24.0878  -52.1443 H         1 UNK         0.0600 
    234 H234       -0.8445  -22.6874  -52.9986 H         1 UNK         0.0600 
    235 H235       -4.4780  -21.5128  -53.5096 H         1 UNK         0.3000 
    236 H236       -4.9107  -19.5138  -54.2950 H         1 UNK         0.0600 
    237 H237       -5.3759  -20.7003  -56.4570 H         1 UNK         0.0600 
    238 H238       -4.8190  -19.0547  -56.7100 H         1 UNK         0.0600 
    239 H239       -3.7178  -20.3989  -56.9757 H         1 UNK         0.0600 
    240 H240       -2.4016  -20.0491  -52.9757 H         1 UNK         0.3000 
    241 H241       -0.4642  -19.2636  -52.3707 H         1 UNK         0.0600 
    242 H242       -0.6905  -20.5830  -55.2173 H         1 UNK         0.3800 
    243 H243        0.9044  -20.2401  -55.8328 H         1 UNK         0.3800 
    244 H244       -1.2734  -16.6291  -53.7032 H         1 UNK         0.0800 
    245 H245        0.1683  -16.8115  -52.7532 H         1 UNK         0.0800 
    246 H246       -0.0893  -15.1819  -51.0579 H         1 UNK         0.0800 
    247 H247       -1.2683  -15.1994  -49.7759 H         1 UNK         0.0800 
@<TRIPOS>BOND
     1    1    2 1    
     2    1  127 1    
     3    1  128 1    
     4    1  129 1    
     5    2    3 2    
     6    2    4 am   BACKBONE|DICT|INTERRES
     7    4    5 1    
     8    4  130 1    
     9    5    6 1    
    10    5   65 1    
    11    5  131 1    
    12    6    7 1    
    13    6  132 1    
    14    6  133 1    
    15    7    8 1    
    16    8    9 1    
    17    8  134 1    
    18    8  135 1    
    19    9   10 ar   
    20    9   14 ar   
    21   10   11 ar   
    22   10  136 1    
    23   11   12 ar   
    24   11  126 1    
    25   12   13 ar   
    26   12  137 1    
    27   13   14 ar   
    28   13   15 1    
    29   14  138 1    
    30   15   16 1    
    31   15  139 1    
    32   15  140 1    
    33   16   17 1    
    34   17   18 1    
    35   17  141 1    
    36   17  142 1    
    37   18   19 1    
    38   18   67 1    
    39   18  143 1    
    40   19   20 am   BACKBONE|DICT|INTERRES
    41   19  144 1    
    42   20   21 2    
    43   20   22 1    
    44   22   23 1    
    45   22   24 1    
    46   22  145 1    
    47   23  146 1    
    48   23  147 1    
    49   23  148 1    
    50   24   25 am   BACKBONE|DICT|INTERRES
    51   24  149 1    
    52   25   26 2    
    53   25   27 1    
    54   27   28 1    
    55   27   29 1    
    56   27  150 1    
    57   28  151 1    
    58   28  152 1    
    59   28  153 1    
    60   29   30 am   BACKBONE|DICT|INTERRES
    61   29  154 1    
    62   30   31 2    
    63   30   32 1    
    64   32   33 1    
    65   32   34 1    
    66   32  155 1    
    67   33  156 1    
    68   33  157 1    
    69   33  158 1    
    70   34   35 am   BACKBONE|DICT|INTERRES
    71   34  159 1    
    72   35   36 2    
    73   35   37 1    
    74   37   38 1    
    75   37   39 1    
    76   37  160 1    
    77   38  161 1    
    78   38  162 1    
    79   38  163 1    
    80   39   40 am   BACKBONE|DICT|INTERRES
    81   39  164 1    
    82   40   41 2    
    83   40   42 1    
    84   42   43 1    
    85   42   44 1    
    86   42  165 1    
    87   43  166 1    
    88   43  167 1    
    89   43  168 1    
    90   44   45 am   BACKBONE|DICT|INTERRES
    91   44  169 1    
    92   45   46 2    
    93   45   47 1    
    94   47   48 1    
    95   47   49 1    
    96   47  170 1    
    97   48  171 1    
    98   48  172 1    
    99   48  173 1    
   100   49   50 am   BACKBONE|DICT|INTERRES
   101   49  174 1    
   102   50   51 2    
   103   50   52 1    
   104   52   53 1    
   105   52   54 1    
   106   52  175 1    
   107   53  176 1    
   108   53  177 1    
   109   53  178 1    
   110   54   55 am   BACKBONE|DICT|INTERRES
   111   54  179 1    
   112   55   56 2    
   113   55   57 1    
   114   57   58 1    
   115   57   59 1    
   116   57  180 1    
   117   58  181 1    
   118   58  182 1    
   119   58  183 1    
   120   59   60 am   BACKBONE|DICT|INTERRES
   121   59  184 1    
   122   60   61 2    
   123   60   62 1    
   124   62   63 1    
   125   62   64 1    
   126   62  185 1    
   127   63  186 1    
   128   63  187 1    
   129   63  188 1    
   130   64   65 am   BACKBONE|DICT|INTERRES
   131   64  189 1    
   132   65   66 2    
   133   67   68 2    
   134   67   69 am   BACKBONE|DICT|INTERRES
   135   69   70 1    
   136   69  190 1    
   137   70   71 1    
   138   70   72 1    
   139   70  191 1    
   140   71  192 1    
   141   71  193 1    
   142   71  194 1    
   143   72   73 2    
   144   72   74 am   BACKBONE|DICT|INTERRES
   145   74   75 1    
   146   74  195 1    
   147   75   76 1    
   148   75   77 1    
   149   75  196 1    
   150   76  197 1    
   151   76  198 1    
   152   76  199 1    
   153   77   78 2    
   154   77   79 am   BACKBONE|DICT|INTERRES
   155   79   80 1    
   156   79  200 1    
   157   80   81 1    
   158   80   82 1    
   159   80  201 1    
   160   81  202 1    
   161   81  203 1    
   162   81  204 1    
   163   82   83 2    
   164   82   84 am   BACKBONE|DICT|INTERRES
   165   84   85 1    
   166   84  205 1    
   167   85   86 1    
   168   85   87 1    
   169   85  206 1    
   170   86  207 1    
   171   86  208 1    
   172   86  209 1    
   173   87   88 2    
   174   87   89 am   BACKBONE|DICT|INTERRES
   175   89   90 1    
   176   89  210 1    
   177   90   91 1    
   178   90   92 1    
   179   90  211 1    
   180   91  212 1    
   181   91  213 1    
   182   91  214 1    
   183   92   93 2    
   184   92   94 am   BACKBONE|DICT|INTERRES
   185   94   95 1    
   186   94  215 1    
   187   95   96 1    
   188   95   97 1    
   189   95  216 1    
   190   96  217 1    
   191   96  218 1    
   192   96  219 1    
   193   97   98 2    
   194   97   99 am   BACKBONE|DICT|INTERRES
   195   99  100 1    
   196   99  220 1    
   197  100  101 1    
   198  100  102 1    
   199  100  221 1    
   200  101  222 1    
   201  101  223 1    
   202  101  224 1    
   203  102  103 2    
   204  102  104 am   BACKBONE|DICT|INTERRES
   205  104  105 1    
   206  104  225 1    
   207  105  106 1    
   208  105  107 1    
   209  105  226 1    
   210  106  227 1    
   211  106  228 1    
   212  106  229 1    
   213  107  108 2    
   214  107  109 am   BACKBONE|DICT|INTERRES
   215  109  110 1    
   216  109  230 1    
   217  110  111 1    
   218  110  112 1    
   219  110  231 1    
   220  111  232 1    
   221  111  233 1    
   222  111  234 1    
   223  112  113 2    
   224  112  114 am   BACKBONE|DICT|INTERRES
   225  114  115 1    
   226  114  235 1    
   227  115  116 1    
   228  115  117 1    
   229  115  236 1    
   230  116  237 1    
   231  116  238 1    
   232  116  239 1    
   233  117  118 2    
   234  117  119 am   BACKBONE|DICT|INTERRES
   235  119  120 1    
   236  119  240 1    
   237  120  121 1    
   238  120  124 1    
   239  120  241 1    
   240  121  122 am   BACKBONE|DICT|INTERRES
   241  121  123 2    
   242  122  242 1    
   243  122  243 1    
   244  124  125 1    
   245  124  244 1    
   246  124  245 1    
   247  125  126 1    
   248  126  246 1    
   249  126  247 1    
@<TRIPOS>SUBSTRUCTURE
     1 UNK         1 GROUP             0       ****    0 ROOT    
