@<TRIPOS>MOLECULE
3R540
247   249    1
SMALL
USER_CHARGES


@<TRIPOS>ATOM
      1 CA         -3.0301  -18.3700  -40.3575 C.3       0 UNK        -0.1800 
      2 C          -2.6754  -17.2390  -41.3122 C.2       0 UNK         0.5000 
      3 O          -2.7686  -16.0684  -40.9440 O.2       0 UNK        -0.5000 
      4 N          -2.2499  -17.5833  -42.5342 N.am      1 UNK        -0.5000 
      5 CA         -1.9222  -16.6467  -43.6195 C.3       1 UNK         0.1400 
      6 C6         -1.9372  -17.3387  -45.0029 C.3       23 UNK        -0.0398 
      7 S7         -3.5314  -18.1391  -45.3853 S.3       23 UNK        -0.2404 
      8 C8         -3.8448  -17.5460  -47.0822 C.3       23 UNK        -0.0205 
      9 C9         -2.8337  -17.9847  -48.1440 C.ar      23 UNK        -0.0193 
     10 C10        -2.8281  -17.3052  -49.3656 C.ar      23 UNK        -0.1150 
     11 C11        -1.9629  -17.6854  -50.3942 C.ar      23 UNK        -0.0193 
     12 C12        -1.0656  -18.7341  -50.1862 C.ar      23 UNK        -0.1150 
     13 C13        -1.0636  -19.4347  -48.9784 C.ar      23 UNK        -0.0193 
     14 C14        -1.9537  -19.0623  -47.9654 C.ar      23 UNK        -0.1150 
     15 C15        -0.1779  -20.6588  -48.8155 C.3       23 UNK        -0.0205 
     16 S16         0.9346  -20.5549  -47.3770 S.3       23 UNK        -0.2404 
     17 C17         1.4262  -22.3122  -47.2464 C.3       23 UNK        -0.0398 
     18 CA          0.6708  -23.1757  -46.1964 C.3       11 UNK         0.1400 
     19 N           1.2390  -23.0680  -44.8474 N.am      11 UNK        -0.5000 
     20 C           1.1461  -24.0382  -43.9227 C.2       10 UNK         0.5000 
     21 O           0.5618  -25.1055  -44.1115 O.2       10 UNK        -0.5000 
     22 CA          1.7959  -23.7674  -42.5533 C.3       10 UNK         0.1400 
     23 CB          3.3109  -24.0157  -42.6139 C.3       10 UNK        -0.1800 
     24 N           1.5483  -22.4071  -42.0812 N.am      10 UNK        -0.5000 
     25 C           0.3576  -21.9495  -41.6687 C.2       9 UNK         0.5000 
     26 O          -0.6415  -22.6578  -41.5533 O.2       9 UNK        -0.5000 
     27 CA          0.2577  -20.4395  -41.3680 C.3       9 UNK         0.1400 
     28 CB          0.3745  -20.1691  -39.8612 C.3       9 UNK        -0.1800 
     29 N           1.2623  -19.6427  -42.0792 N.am      9 UNK        -0.5000 
     30 C           1.2949  -19.4876  -43.4083 C.2       8 UNK         0.5000 
     31 O           0.4514  -19.9672  -44.1675 O.2       8 UNK        -0.5000 
     32 CA          2.5069  -18.7380  -43.9723 C.3       8 UNK         0.1400 
     33 CB          3.7135  -19.6845  -44.0839 C.3       8 UNK        -0.1800 
     34 N           2.2011  -18.2110  -45.2983 N.am      8 UNK        -0.5000 
     35 C           2.5284  -16.9893  -45.7306 C.2       7 UNK         0.5000 
     36 O           3.0918  -16.1463  -45.0278 O.2       7 UNK        -0.5000 
     37 CA          2.1783  -16.6624  -47.1939 C.3       7 UNK         0.1400 
     38 CB          0.6604  -16.5856  -47.4012 C.3       7 UNK        -0.1800 
     39 N           2.7529  -15.3709  -47.5566 N.am      7 UNK        -0.5000 
     40 C           3.8022  -15.1731  -48.3612 C.2       6 UNK         0.5000 
     41 O           4.3568  -16.0649  -49.0047 O.2       6 UNK        -0.5000 
     42 CA          4.3262  -13.7262  -48.4565 C.3       6 UNK         0.1400 
     43 CB          3.7352  -13.0205  -49.6864 C.3       6 UNK        -0.1800 
     44 N           4.0161  -12.9346  -47.2637 N.am      6 UNK        -0.5000 
     45 C           4.6246  -13.0508  -46.0774 C.2       5 UNK         0.5000 
     46 O           5.5887  -13.7917  -45.8823 O.2       5 UNK        -0.5000 
     47 CA          4.0675  -12.2152  -44.9056 C.3       5 UNK         0.1400 
     48 CB          4.7188  -10.8203  -44.8599 C.3       5 UNK        -0.1800 
     49 N           2.6006  -12.1220  -44.8411 N.am      5 UNK        -0.5000 
     50 C           1.7448  -11.5168  -45.6806 C.2       4 UNK         0.5000 
     51 O           2.0947  -10.9425  -46.7121 O.2       4 UNK        -0.5000 
     52 CA          0.2415  -11.5877  -45.3437 C.3       4 UNK         0.1400 
     53 CB         -0.4891  -12.4872  -46.3534 C.3       4 UNK        -0.1800 
     54 N          -0.0201  -12.0787  -43.9888 N.am      4 UNK        -0.5000 
     55 C           0.0416  -11.3192  -42.8840 C.2       3 UNK         0.5000 
     56 O           0.2699  -10.1093  -42.9059 O.2       3 UNK        -0.5000 
     57 CA         -0.1679  -12.0167  -41.5220 C.3       3 UNK         0.1400 
     58 CB         -1.6102  -11.8152  -41.0332 C.3       3 UNK        -0.1800 
     59 N           0.1286  -13.4505  -41.5314 N.am      3 UNK        -0.5000 
     60 C           1.3247  -13.9951  -41.7951 C.2       2 UNK         0.5000 
     61 O           2.3425  -13.3351  -42.0051 O.2       2 UNK        -0.5000 
     62 CA          1.3841  -15.5321  -41.8988 C.3       2 UNK         0.1400 
     63 CB          1.8423  -16.1412  -40.5653 C.3       2 UNK        -0.1800 
     64 N           0.1250  -16.1686  -42.3047 N.am      2 UNK        -0.5000 
     65 C          -0.5908  -15.8883  -43.4055 C.2       1 UNK         0.5000 
     66 O          -0.2477  -15.0412  -44.2294 O.2       1 UNK        -0.5000 
     67 C          -0.8604  -22.9745  -46.1949 C.2       11 UNK         0.5000 
     68 O          -1.5348  -23.5095  -47.0728 O.2       11 UNK        -0.5000 
     69 N          -1.3828  -22.2484  -45.1938 N.am      12 UNK        -0.5000 
     70 CA         -2.8071  -21.9787  -44.9711 C.3       12 UNK         0.1400 
     71 CB         -2.9540  -21.1298  -43.6998 C.3       12 UNK        -0.1800 
     72 C          -3.6820  -23.2436  -44.8549 C.2       12 UNK         0.5000 
     73 O          -4.8605  -23.2043  -45.2077 O.2       12 UNK        -0.5000 
     74 N          -3.0874  -24.3371  -44.3611 N.am      13 UNK        -0.5000 
     75 CA         -3.7228  -25.6450  -44.2142 C.3       13 UNK         0.1400 
     76 CB         -3.0226  -26.3895  -43.0658 C.3       13 UNK        -0.1800 
     77 C          -3.6887  -26.4929  -45.5032 C.2       13 UNK         0.5000 
     78 O          -4.3552  -27.5283  -45.5495 O.2       13 UNK        -0.5000 
     79 N          -2.9060  -26.0767  -46.5068 N.am      14 UNK        -0.5000 
     80 CA         -2.6983  -26.7936  -47.7623 C.3       14 UNK         0.1400 
     81 CB         -1.1949  -26.7608  -48.0928 C.3       14 UNK        -0.1800 
     82 C          -3.5131  -26.1642  -48.9048 C.2       14 UNK         0.5000 
     83 O          -4.0425  -25.0580  -48.7719 O.2       14 UNK        -0.5000 
     84 N          -3.5480  -26.8679  -50.0454 N.am      15 UNK        -0.5000 
     85 CA         -4.1798  -26.4294  -51.2963 C.3       15 UNK         0.1400 
     86 CB         -4.1789  -27.5992  -52.2919 C.3       15 UNK        -0.1800 
     87 C          -3.5237  -25.1832  -51.9280 C.2       15 UNK         0.5000 
     88 O          -4.1475  -24.5269  -52.7607 O.2       15 UNK        -0.5000 
     89 N          -2.2990  -24.8523  -51.4937 N.am      16 UNK        -0.5000 
     90 CA         -1.5500  -23.6467  -51.8544 C.3       16 UNK         0.1400 
     91 CB         -0.1753  -23.7035  -51.1693 C.3       16 UNK        -0.1800 
     92 C          -2.2651  -22.3256  -51.5005 C.2       16 UNK         0.5000 
     93 O          -1.9492  -21.3002  -52.0995 O.2       16 UNK        -0.5000 
     94 N          -3.2050  -22.3750  -50.5463 N.am      17 UNK        -0.5000 
     95 CA         -4.0251  -21.2443  -50.1164 C.3       17 UNK         0.1400 
     96 CB         -4.4879  -21.5086  -48.6759 C.3       17 UNK        -0.1800 
     97 C          -5.2250  -20.9491  -51.0393 C.2       17 UNK         0.5000 
     98 O          -5.9106  -19.9492  -50.8182 O.2       17 UNK        -0.5000 
     99 N          -5.4906  -21.8091  -52.0346 N.am      18 UNK        -0.5000 
    100 CA        -6.5312  -21.5948  -53.0412 C.3       18 UNK         0.1400 
    101 CB        -6.7630  -22.8994  -53.8181 C.3       18 UNK        -0.1800 
    102 C         -6.1433  -20.4656  -54.0113 C.2       18 UNK         0.5000 
    103 O         -4.9720  -20.3497  -54.3749 O.2       18 UNK        -0.5000 
    104 N         -7.1360  -19.6903  -54.4685 N.am      19 UNK        -0.5000 
    105 CA        -6.9569  -18.5489  -55.3755 C.3       19 UNK         0.1400 
    106 CB        -8.3171  -17.8807  -55.6239 C.3       19 UNK        -0.1800 
    107 C         -6.2789  -18.9066  -56.7137 C.2       19 UNK         0.5000 
    108 O         -5.5188  -18.0980  -57.2473 O.2       19 UNK        -0.5000 
    109 N         -6.5258  -20.1306  -57.2001 N.am      20 UNK        -0.5000 
    110 CA        -5.8934  -20.7044  -58.3884 C.3       20 UNK         0.1400 
    111 CB        -6.6280  -22.0002  -58.7650 C.3       20 UNK        -0.1800 
    112 C         -4.3839  -20.9720  -58.2160 C.2       20 UNK         0.5000 
    113 O         -3.6575  -20.9594  -59.2106 O.2       20 UNK        -0.5000 
    114 N         -3.9381  -21.2044  -56.9734 N.am      21 UNK        -0.5000 
    115 CA        -2.5294  -21.3667  -56.6204 C.3       21 UNK         0.1400 
    116 CB        -2.4028  -22.3258  -55.4269 C.3       21 UNK        -0.1800 
    117 C         -1.8713  -20.0083  -56.3200 C.2       21 UNK         0.5000 
    118 O         -0.7197  -19.8038  -56.7072 O.2       21 UNK        -0.5000 
    119 N         -2.6086  -19.1014  -55.6621 N.am      22 UNK        -0.5000 
    120 CA        -2.1740  -17.7207  -55.3853 C.3       22 UNK         0.1400 
    121 C         -2.0071  -16.8533  -56.6648 C.2       22 UNK         0.5000 
    122 N         -2.8962  -16.9605  -57.6447 N.am      22 UNK        -0.7600 
    123 O         -1.0624  -16.0758  -56.7679 O.2       22 UNK        -0.5000 
    124 C124       -3.0946  -16.9888  -54.3761 C.3       23 UNK        -0.0398 
    125 S125       -3.2714  -17.8676  -52.7908 S.3       23 UNK        -0.2404 
    126 C126       -2.0462  -17.0128  -51.7533 C.3       23 UNK        -0.0205 
    127 H127       -2.9815  -19.3441  -40.8447 H         1 UNK         0.0600 
    128 H128       -4.0420  -18.2340  -39.9761 H         1 UNK         0.0600 
    129 H129       -2.3439  -18.3761  -39.5108 H         1 UNK         0.0600 
    130 H130       -2.2141  -18.5586  -42.7896 H         1 UNK         0.3000 
    131 H131       -2.7002  -15.8804  -43.6338 H         1 UNK         0.0600 
    132 H132       -1.7329  -16.6068  -45.7847 H         1 UNK         0.0800 
    133 H133       -1.1505  -18.0906  -45.0718 H         1 UNK         0.0800 
    134 H134       -4.8305  -17.8990  -47.3876 H         1 UNK         0.0800 
    135 H135       -3.9013  -16.4565  -47.0593 H         1 UNK         0.0800 
    136 H136       -3.5276  -16.4980  -49.5324 H         1 UNK         0.1150 
    137 H137       -0.4148  -19.0454  -50.9912 H         1 UNK         0.1150 
    138 H138       -1.9606  -19.6326  -47.0485 H         1 UNK         0.1150 
    139 H139       -0.8303  -21.5267  -48.7229 H         1 UNK         0.0800 
    140 H140        0.4238  -20.8234  -49.7105 H         1 UNK         0.0800 
    141 H141        2.4983  -22.3469  -47.0488 H         1 UNK         0.0800 
    142 H142        1.3118  -22.7712  -48.2296 H         1 UNK         0.0800 
    143 H143        0.8233  -24.2106  -46.5125 H         1 UNK         0.0600 
    144 H144        1.6824  -22.1931  -44.6111 H         1 UNK         0.3000 
    145 H145        1.3647  -24.4663  -41.8331 H         1 UNK         0.0600 
    146 H146        3.7688  -23.8976  -41.6316 H         1 UNK         0.0600 
    147 H147        3.5263  -25.0304  -42.9514 H         1 UNK         0.0600 
    148 H148        3.8075  -23.3289  -43.3005 H         1 UNK         0.0600 
    149 H149        2.3236  -21.7636  -42.1177 H         1 UNK         0.3000 
    150 H150       -0.7292  -20.1099  -41.6960 H         1 UNK         0.0600 
    151 H151        1.3478  -20.4703  -39.4721 H         1 UNK         0.0600 
    152 H152       -0.3862  -20.7196  -39.3061 H         1 UNK         0.0600 
    153 H153        0.2355  -19.1112  -39.6377 H         1 UNK         0.0600 
    154 H154        2.0047  -19.2528  -41.5169 H         1 UNK         0.3000 
    155 H155        2.7517  -17.9297  -43.2821 H         1 UNK         0.0600 
    156 H156        3.5109  -20.5183  -44.7576 H         1 UNK         0.0600 
    157 H157        3.9849  -20.1007  -43.1131 H         1 UNK         0.0600 
    158 H158        4.5891  -19.1574  -44.4634 H         1 UNK         0.0600 
    159 H159        1.6761  -18.8392  -45.8963 H         1 UNK         0.3000 
    160 H160        2.5801  -17.4587  -47.8239 H         1 UNK         0.0600 
    161 H161        0.4130  -16.4063  -48.4476 H         1 UNK         0.0600 
    162 H162        0.2146  -15.7870  -46.8106 H         1 UNK         0.0600 
    163 H163        0.1805  -17.5190  -47.1134 H         1 UNK         0.0600 
    164 H164        2.4355  -14.5870  -47.0064 H         1 UNK         0.3000 
    165 H165        5.4110  -13.7708  -48.5734 H         1 UNK         0.0600 
    166 H166        3.9633  -13.5707  -50.6002 H         1 UNK         0.0600 
    167 H167        2.6501  -12.9329  -49.6167 H         1 UNK         0.0600 
    168 H168        4.1460  -12.0171  -49.8003 H         1 UNK         0.0600 
    169 H169        3.2626  -12.2557  -47.3353 H         1 UNK         0.3000 
    170 H170        4.3591  -12.7382  -43.9933 H         1 UNK         0.0600 
    171 H171        4.3799  -10.2561  -43.9909 H         1 UNK         0.0600 
    172 H172        4.4929  -10.2337  -45.7507 H         1 UNK         0.0600 
    173 H173        5.8043  -10.9012  -44.7919 H         1 UNK         0.0600 
    174 H174        2.2006  -12.5737  -44.0271 H         1 UNK         0.3000 
    175 H175       -0.1639  -10.5783  -45.4395 H         1 UNK         0.0600 
    176 H176       -1.5511  -12.5652  -46.1205 H         1 UNK         0.0600 
    177 H177       -0.4066  -12.0867  -47.3645 H         1 UNK         0.0600 
    178 H178       -0.0734  -13.4939  -46.3685 H         1 UNK         0.0600 
    179 H179       -0.1917  -13.0760  -43.9010 H         1 UNK         0.3000 
    180 H180        0.5070  -11.5428  -40.8064 H         1 UNK         0.0600 
    181 H181       -2.3299  -12.2952  -41.6978 H         1 UNK         0.0600 
    182 H182       -1.8632  -10.7552  -40.9849 H         1 UNK         0.0600 
    183 H183       -1.7497  -12.2269  -40.0334 H         1 UNK         0.0600 
    184 H184       -0.6519  -14.0728  -41.3762 H         1 UNK         0.3000 
    185 H185        2.1312  -15.7646  -42.6564 H         1 UNK         0.0600 
    186 H186        2.7849  -15.7006  -40.2375 H         1 UNK         0.0600 
    187 H187        1.1095  -15.9736  -39.7750 H         1 UNK         0.0600 
    188 H188        2.0027  -17.2148  -40.6517 H         1 UNK         0.0600 
    189 H189       -0.2569  -16.8521  -41.6686 H         1 UNK         0.3000 
    190 H190       -0.7372  -21.7836  -44.5678 H         1 UNK         0.3000 
    191 H191       -3.1665  -21.3925  -45.8170 H         1 UNK         0.0600 
    192 H192       -2.2865  -20.2702  -43.7210 H         1 UNK         0.0600 
    193 H193       -3.9729  -20.7536  -43.6006 H         1 UNK         0.0600 
    194 H194       -2.7318  -21.7050  -42.8015 H         1 UNK         0.0600 
    195 H195       -2.1131  -24.2763  -44.0996 H         1 UNK         0.3000 
    196 H196       -4.7707  -25.5059  -43.9407 H         1 UNK         0.0600 
    197 H197       -3.4842  -27.3616  -42.8878 H         1 UNK         0.0600 
    198 H198       -3.0852  -25.8263  -42.1344 H         1 UNK         0.0600 
    199 H199       -1.9674  -26.5611  -43.2834 H         1 UNK         0.0600 
    200 H200       -2.4791  -25.1574  -46.4564 H         1 UNK         0.3000 
    201 H201       -3.0049  -27.8365  -47.6587 H         1 UNK         0.0600 
    202 H202       -0.9668  -27.3751  -48.9644 H         1 UNK         0.0600 
    203 H203       -0.8470  -25.7498  -48.3062 H         1 UNK         0.0600 
    204 H204       -0.6017  -27.1480  -47.2641 H         1 UNK         0.0600 
    205 H205       -3.0869  -27.7662  -50.0754 H         1 UNK         0.3000 
    206 H206       -5.2166  -26.1687  -51.0742 H         1 UNK         0.0600 
    207 H207       -4.7143  -28.4600  -51.8909 H         1 UNK         0.0600 
    208 H208       -4.6706  -27.3193  -53.2247 H         1 UNK         0.0600 
    209 H209       -3.1650  -27.9172  -52.5381 H         1 UNK         0.0600 
    210 H210       -1.8694  -25.4557  -50.8095 H         1 UNK         0.3000 
    211 H211       -1.4007  -23.6608  -52.9352 H         1 UNK         0.0600 
    212 H212       -0.2704  -23.7242  -50.0827 H         1 UNK         0.0600 
    213 H213        0.4286  -22.8334  -51.4303 H         1 UNK         0.0600 
    214 H214        0.3835  -24.5881  -51.4753 H         1 UNK         0.0600 
    215 H215       -3.3912  -23.2599  -50.0904 H         1 UNK         0.3000 
    216 H216       -3.4099  -20.3455  -50.1177 H         1 UNK         0.0600 
    217 H217       -5.0080  -20.6432  -48.2634 H         1 UNK         0.0600 
    218 H218       -3.6358  -21.7155  -48.0300 H         1 UNK         0.0600 
    219 H219       -5.1632  -22.3632  -48.6190 H         1 UNK         0.0600 
    220 H220       -4.8724  -22.5976  -52.1847 H         1 UNK         0.3000 
    221 H221       -7.4572  -21.3249  -52.5292 H         1 UNK         0.0600 
    222 H222       -5.8778  -23.1920  -54.3848 H         1 UNK         0.0600 
    223 H223       -7.0169  -23.7202  -53.1471 H         1 UNK         0.0600 
    224 H224       -7.5846  -22.7924  -54.5273 H         1 UNK         0.0600 
    225 H225       -8.0767  -19.8576  -54.1415 H         1 UNK         0.3000 
    226 H226       -6.3130  -17.8292  -54.8671 H         1 UNK         0.0600 
    227 H227       -8.2128  -17.0135  -56.2776 H         1 UNK         0.0600 
    228 H228       -9.0220  -18.5656  -56.0969 H         1 UNK         0.0600 
    229 H229       -8.7614  -17.5306  -54.6919 H         1 UNK         0.0600 
    230 H230       -7.1608  -20.7271  -56.6908 H         1 UNK         0.3000 
    231 H231       -6.0095  -19.9935  -59.2091 H         1 UNK         0.0600 
    232 H232       -6.5643  -22.7442  -57.9699 H         1 UNK         0.0600 
    233 H233       -6.2005  -22.4442  -59.6651 H         1 UNK         0.0600 
    234 H234       -7.6826  -21.8121  -58.9668 H         1 UNK         0.0600 
    235 H235       -4.5817  -21.1261  -56.1944 H         1 UNK         0.3000 
    236 H236       -1.9943  -21.8168  -57.4593 H         1 UNK         0.0600 
    237 H237       -1.3573  -22.4636  -55.1493 H         1 UNK         0.0600 
    238 H238       -2.9275  -21.9520  -54.5485 H         1 UNK         0.0600 
    239 H239       -2.8111  -23.3084  -55.6635 H         1 UNK         0.0600 
    240 H240       -3.5147  -19.3771  -55.2974 H         1 UNK         0.3000 
    241 H241       -1.1862  -17.7901  -54.9252 H         1 UNK         0.0600 
    242 H242       -3.7300  -17.5318  -57.5339 H         1 UNK         0.3800 
    243 H243       -2.7860  -16.4017  -58.4756 H         1 UNK         0.3800 
    244 H244       -4.0915  -16.8641  -54.8008 H         1 UNK         0.0800 
    245 H245       -2.7247  -15.9810  -54.1785 H         1 UNK         0.0800 
    246 H246       -1.0720  -17.0314  -52.2441 H         1 UNK         0.0800 
    247 H247       -2.3241  -15.9638  -51.6406 H         1 UNK         0.0800 
@<TRIPOS>BOND
     1    1    2 1    
     2    1  127 1    
     3    1  128 1    
     4    1  129 1    
     5    2    3 2    
     6    2    4 am   BACKBONE|DICT|INTERRES
     7    4    5 1    
     8    4  130 1    
     9    5    6 1    
    10    5   65 1    
    11    5  131 1    
    12    6    7 1    
    13    6  132 1    
    14    6  133 1    
    15    7    8 1    
    16    8    9 1    
    17    8  134 1    
    18    8  135 1    
    19    9   10 ar   
    20    9   14 ar   
    21   10   11 ar   
    22   10  136 1    
    23   11   12 ar   
    24   11  126 1    
    25   12   13 ar   
    26   12  137 1    
    27   13   14 ar   
    28   13   15 1    
    29   14  138 1    
    30   15   16 1    
    31   15  139 1    
    32   15  140 1    
    33   16   17 1    
    34   17   18 1    
    35   17  141 1    
    36   17  142 1    
    37   18   19 1    
    38   18   67 1    
    39   18  143 1    
    40   19   20 am   BACKBONE|DICT|INTERRES
    41   19  144 1    
    42   20   21 2    
    43   20   22 1    
    44   22   23 1    
    45   22   24 1    
    46   22  145 1    
    47   23  146 1    
    48   23  147 1    
    49   23  148 1    
    50   24   25 am   BACKBONE|DICT|INTERRES
    51   24  149 1    
    52   25   26 2    
    53   25   27 1    
    54   27   28 1    
    55   27   29 1    
    56   27  150 1    
    57   28  151 1    
    58   28  152 1    
    59   28  153 1    
    60   29   30 am   BACKBONE|DICT|INTERRES
    61   29  154 1    
    62   30   31 2    
    63   30   32 1    
    64   32   33 1    
    65   32   34 1    
    66   32  155 1    
    67   33  156 1    
    68   33  157 1    
    69   33  158 1    
    70   34   35 am   BACKBONE|DICT|INTERRES
    71   34  159 1    
    72   35   36 2    
    73   35   37 1    
    74   37   38 1    
    75   37   39 1    
    76   37  160 1    
    77   38  161 1    
    78   38  162 1    
    79   38  163 1    
    80   39   40 am   BACKBONE|DICT|INTERRES
    81   39  164 1    
    82   40   41 2    
    83   40   42 1    
    84   42   43 1    
    85   42   44 1    
    86   42  165 1    
    87   43  166 1    
    88   43  167 1    
    89   43  168 1    
    90   44   45 am   BACKBONE|DICT|INTERRES
    91   44  169 1    
    92   45   46 2    
    93   45   47 1    
    94   47   48 1    
    95   47   49 1    
    96   47  170 1    
    97   48  171 1    
    98   48  172 1    
    99   48  173 1    
   100   49   50 am   BACKBONE|DICT|INTERRES
   101   49  174 1    
   102   50   51 2    
   103   50   52 1    
   104   52   53 1    
   105   52   54 1    
   106   52  175 1    
   107   53  176 1    
   108   53  177 1    
   109   53  178 1    
   110   54   55 am   BACKBONE|DICT|INTERRES
   111   54  179 1    
   112   55   56 2    
   113   55   57 1    
   114   57   58 1    
   115   57   59 1    
   116   57  180 1    
   117   58  181 1    
   118   58  182 1    
   119   58  183 1    
   120   59   60 am   BACKBONE|DICT|INTERRES
   121   59  184 1    
   122   60   61 2    
   123   60   62 1    
   124   62   63 1    
   125   62   64 1    
   126   62  185 1    
   127   63  186 1    
   128   63  187 1    
   129   63  188 1    
   130   64   65 am   BACKBONE|DICT|INTERRES
   131   64  189 1    
   132   65   66 2    
   133   67   68 2    
   134   67   69 am   BACKBONE|DICT|INTERRES
   135   69   70 1    
   136   69  190 1    
   137   70   71 1    
   138   70   72 1    
   139   70  191 1    
   140   71  192 1    
   141   71  193 1    
   142   71  194 1    
   143   72   73 2    
   144   72   74 am   BACKBONE|DICT|INTERRES
   145   74   75 1    
   146   74  195 1    
   147   75   76 1    
   148   75   77 1    
   149   75  196 1    
   150   76  197 1    
   151   76  198 1    
   152   76  199 1    
   153   77   78 2    
   154   77   79 am   BACKBONE|DICT|INTERRES
   155   79   80 1    
   156   79  200 1    
   157   80   81 1    
   158   80   82 1    
   159   80  201 1    
   160   81  202 1    
   161   81  203 1    
   162   81  204 1    
   163   82   83 2    
   164   82   84 am   BACKBONE|DICT|INTERRES
   165   84   85 1    
   166   84  205 1    
   167   85   86 1    
   168   85   87 1    
   169   85  206 1    
   170   86  207 1    
   171   86  208 1    
   172   86  209 1    
   173   87   88 2    
   174   87   89 am   BACKBONE|DICT|INTERRES
   175   89   90 1    
   176   89  210 1    
   177   90   91 1    
   178   90   92 1    
   179   90  211 1    
   180   91  212 1    
   181   91  213 1    
   182   91  214 1    
   183   92   93 2    
   184   92   94 am   BACKBONE|DICT|INTERRES
   185   94   95 1    
   186   94  215 1    
   187   95   96 1    
   188   95   97 1    
   189   95  216 1    
   190   96  217 1    
   191   96  218 1    
   192   96  219 1    
   193   97   98 2    
   194   97   99 am   BACKBONE|DICT|INTERRES
   195   99  100 1    
   196   99  220 1    
   197  100  101 1    
   198  100  102 1    
   199  100  221 1    
   200  101  222 1    
   201  101  223 1    
   202  101  224 1    
   203  102  103 2    
   204  102  104 am   BACKBONE|DICT|INTERRES
   205  104  105 1    
   206  104  225 1    
   207  105  106 1    
   208  105  107 1    
   209  105  226 1    
   210  106  227 1    
   211  106  228 1    
   212  106  229 1    
   213  107  108 2    
   214  107  109 am   BACKBONE|DICT|INTERRES
   215  109  110 1    
   216  109  230 1    
   217  110  111 1    
   218  110  112 1    
   219  110  231 1    
   220  111  232 1    
   221  111  233 1    
   222  111  234 1    
   223  112  113 2    
   224  112  114 am   BACKBONE|DICT|INTERRES
   225  114  115 1    
   226  114  235 1    
   227  115  116 1    
   228  115  117 1    
   229  115  236 1    
   230  116  237 1    
   231  116  238 1    
   232  116  239 1    
   233  117  118 2    
   234  117  119 am   BACKBONE|DICT|INTERRES
   235  119  120 1    
   236  119  240 1    
   237  120  121 1    
   238  120  124 1    
   239  120  241 1    
   240  121  122 am   BACKBONE|DICT|INTERRES
   241  121  123 2    
   242  122  242 1    
   243  122  243 1    
   244  124  125 1    
   245  124  244 1    
   246  124  245 1    
   247  125  126 1    
   248  126  246 1    
   249  126  247 1    
@<TRIPOS>SUBSTRUCTURE
     1 UNK         1 GROUP             0       ****    0 ROOT    
