@<TRIPOS>MOLECULE
3R540
247   249    1
SMALL
USER_CHARGES


@<TRIPOS>ATOM
      1 CA          5.9049  -14.4688  -48.1216 C.3       0 UNK        -0.1800 
      2 C           4.6100  -14.3607  -47.3309 C.2       0 UNK         0.5000 
      3 O           4.6065  -14.5774  -46.1205 O.2       0 UNK        -0.5000 
      4 N           3.5099  -14.0038  -48.0017 N.am      1 UNK        -0.5000 
      5 CA          2.1580  -13.8697  -47.4464 C.3       1 UNK         0.1400 
      6 C6          1.0713  -14.1749  -48.5130 C.3       23 UNK        -0.0398 
      7 S7          1.2057  -13.2111  -50.0669 S.3       23 UNK        -0.2404 
      8 C8          2.0995  -14.3306  -51.2011 C.3       23 UNK        -0.0205 
      9 C9          1.3791  -15.6534  -51.4157 C.ar      23 UNK        -0.0193 
     10 C10         0.2505  -15.7240  -52.2385 C.ar      23 UNK        -0.1150 
     11 C11        -0.4283  -16.9354  -52.4061 C.ar      23 UNK        -0.0193 
     12 C12         0.0259  -18.0771  -51.7405 C.ar      23 UNK        -0.1150 
     13 C13         1.1531  -18.0174  -50.9165 C.ar      23 UNK        -0.0193 
     14 C14         1.8382  -16.8083  -50.7765 C.ar      23 UNK        -0.1150 
     15 C15         1.5997  -19.2487  -50.1415 C.3       23 UNK        -0.0205 
     16 S16         1.5655  -18.9967  -48.3346 S.3       23 UNK        -0.2404 
     17 C17        -0.1466  -18.4343  -48.0448 C.3       23 UNK        -0.0398 
     18 CA         -1.1187  -19.5847  -47.7028 C.3       11 UNK         0.1400 
     19 N          -0.7272  -20.3008  -46.4886 N.am      11 UNK        -0.5000 
     20 C          -1.2550  -21.4469  -46.0435 C.2       10 UNK         0.5000 
     21 O          -2.0911  -22.0955  -46.6762 O.2       10 UNK        -0.5000 
     22 CA         -0.8313  -21.8894  -44.6250 C.3       10 UNK         0.1400 
     23 CB         -0.8255  -23.4198  -44.4439 C.3       10 UNK        -0.1800 
     24 N           0.4289  -21.2856  -44.1713 N.am      10 UNK        -0.5000 
     25 C           1.6608  -21.4875  -44.6648 C.2       9 UNK         0.5000 
     26 O           1.9157  -22.2892  -45.5636 O.2       9 UNK        -0.5000 
     27 CA          2.8045  -20.6304  -44.0831 C.3       9 UNK         0.1400 
     28 CB          3.3111  -19.6335  -45.1370 C.3       9 UNK        -0.1800 
     29 N           2.4301  -19.8849  -42.8784 N.am      9 UNK        -0.5000 
     30 C           2.3447  -20.4118  -41.6493 C.2       8 UNK         0.5000 
     31 O           2.5953  -21.5895  -41.3918 O.2       8 UNK        -0.5000 
     32 CA          1.8721  -19.4709  -40.5235 C.3       8 UNK         0.1400 
     33 CB          3.0353  -18.6080  -40.0125 C.3       8 UNK        -0.1800 
     34 N           0.7624  -18.6033  -40.9257 N.am      8 UNK        -0.5000 
     35 C          -0.4577  -19.0363  -41.2761 C.2       7 UNK         0.5000 
     36 O          -0.7868  -20.2220  -41.2972 O.2       7 UNK        -0.5000 
     37 CA         -1.4638  -17.9676  -41.7328 C.3       7 UNK         0.1400 
     38 CB         -2.1127  -17.2563  -40.5362 C.3       7 UNK        -0.1800 
     39 N          -0.8351  -16.9869  -42.6150 N.am      7 UNK        -0.5000 
     40 C          -0.4709  -17.2450  -43.8779 C.2       6 UNK         0.5000 
     41 O          -0.7113  -18.3049  -44.4542 O.2       6 UNK        -0.5000 
     42 CA          0.2970  -16.1424  -44.6227 C.3       6 UNK         0.1400 
     43 CB         -0.6968  -15.2036  -45.3245 C.3       6 UNK        -0.1800 
     44 N           1.1734  -15.3818  -43.7296 N.am      6 UNK        -0.5000 
     45 C           2.2825  -15.8902  -43.1658 C.2       5 UNK         0.5000 
     46 O           2.6859  -17.0317  -43.3809 O.2       5 UNK        -0.5000 
     47 CA          3.0352  -15.0167  -42.1430 C.3       5 UNK         0.1400 
     48 CB          4.1770  -14.2479  -42.8176 C.3       5 UNK        -0.1800 
     49 N           2.1579  -14.0835  -41.4371 N.am      5 UNK        -0.5000 
     50 C           1.1878  -14.4669  -40.5935 C.2       4 UNK         0.5000 
     51 O           0.9872  -15.6431  -40.2861 O.2       4 UNK        -0.5000 
     52 CA          0.2465  -13.3726  -40.0509 C.3       4 UNK         0.1400 
     53 CB          0.7121  -12.9038  -38.6650 C.3       4 UNK        -0.1800 
     54 N           0.1156  -12.2084  -40.9326 N.am      4 UNK        -0.5000 
     55 C          -0.3299  -12.2383  -42.1966 C.2       3 UNK         0.5000 
     56 O          -0.7014  -13.2683  -42.7581 O.2       3 UNK        -0.5000 
     57 CA         -0.3121  -10.9181  -42.9923 C.3       3 UNK         0.1400 
     58 CB         -0.2230   -9.6548  -42.1070 C.3       3 UNK        -0.1800 
     59 N           0.7504  -10.9079  -44.0046 N.am      3 UNK        -0.5000 
     60 C           2.0655  -11.0721  -43.8039 C.2       2 UNK         0.5000 
     61 O           2.5659  -11.3312  -42.7070 O.2       2 UNK        -0.5000 
     62 CA          2.9630  -10.9445  -45.0506 C.3       2 UNK         0.1400 
     63 CB          4.4268  -10.6339  -44.6900 C.3       2 UNK        -0.1800 
     64 N           2.9320  -12.1611  -45.8583 N.am      2 UNK        -0.5000 
     65 C           1.9528  -12.5312  -46.6917 C.2       1 UNK         0.5000 
     66 O           0.9338  -11.8605  -46.8652 O.2       1 UNK        -0.5000 
     67 C          -2.5493  -19.0283  -47.5739 C.2       11 UNK         0.5000 
     68 O          -3.2978  -19.0527  -48.5488 O.2       11 UNK        -0.5000 
     69 N          -2.9216  -18.5879  -46.3617 N.am      12 UNK        -0.5000 
     70 CA         -4.2664  -18.1130  -46.0198 C.3       12 UNK         0.1400 
     71 CB         -4.2363  -17.4862  -44.6180 C.3       12 UNK        -0.1800 
     72 C          -5.3364  -19.2222  -46.0940 C.2       12 UNK         0.5000 
     73 O          -6.5007  -18.9284  -46.3643 O.2       12 UNK        -0.5000 
     74 N          -4.9122  -20.4758  -45.8827 N.am      13 UNK        -0.5000 
     75 CA         -5.7224  -21.6830  -46.0522 C.3       13 UNK         0.1400 
     76 CB         -5.2305  -22.7417  -45.0508 C.3       13 UNK        -0.1800 
     77 C          -5.6672  -22.2342  -47.4933 C.2       13 UNK         0.5000 
     78 O          -6.3595  -23.2098  -47.7857 O.2       13 UNK        -0.5000 
     79 N          -4.8343  -21.6252  -48.3542 N.am      14 UNK        -0.5000 
     80 CA         -4.5291  -22.0065  -49.7367 C.3       14 UNK         0.1400 
     81 CB         -5.7660  -21.8251  -50.6406 C.3       14 UNK        -0.1800 
     82 C          -3.8833  -23.4027  -49.8625 C.2       14 UNK         0.5000 
     83 O          -4.0084  -24.0429  -50.9077 O.2       14 UNK        -0.5000 
     84 N          -3.1854  -23.8578  -48.8106 N.am      15 UNK        -0.5000 
     85 CA         -2.6012  -25.1992  -48.7195 C.3       15 UNK         0.1400 
     86 CB         -2.0577  -25.4247  -47.3027 C.3       15 UNK        -0.1800 
     87 C          -1.5037  -25.4512  -49.7676 C.2       15 UNK         0.5000 
     88 O          -1.4361  -26.5433  -50.3318 O.2       15 UNK        -0.5000 
     89 N          -0.7101  -24.4107  -50.0565 N.am      16 UNK        -0.5000 
     90 CA          0.3338  -24.4046  -51.0850 C.3       16 UNK         0.1400 
     91 CB          1.1468  -23.1089  -50.9502 C.3       16 UNK        -0.1800 
     92 C          -0.2152  -24.5383  -52.5208 C.2       16 UNK         0.5000 
     93 O           0.5097  -24.9919  -53.4065 O.2       16 UNK        -0.5000 
     94 N          -1.4819  -24.1515  -52.7185 N.am      17 UNK        -0.5000 
     95 CA         -2.2107  -24.2422  -53.9820 C.3       17 UNK         0.1400 
     96 CB         -3.0264  -22.9513  -54.1595 C.3       17 UNK        -0.1800 
     97 C          -3.1321  -25.4762  -54.0324 C.2       17 UNK         0.5000 
     98 O          -3.9072  -25.5991  -54.9796 O.2       17 UNK        -0.5000 
     99 N          -3.0771  -26.3456  -53.0097 N.am      18 UNK        -0.5000 
    100 CA        -3.9460  -27.5109  -52.8021 C.3       18 UNK         0.1400 
    101 CB        -3.6558  -28.6047  -53.8509 C.3       18 UNK        -0.1800 
    102 C         -5.4395  -27.1220  -52.7235 C.2       18 UNK         0.5000 
    103 O         -6.2909  -27.7915  -53.3098 O.2       18 UNK        -0.5000 
    104 N         -5.7058  -26.0146  -52.0164 N.am      19 UNK        -0.5000 
    105 CA        -6.9878  -25.3397  -51.7938 C.3       19 UNK         0.1400 
    106 CB        -8.0738  -26.3030  -51.2728 C.3       19 UNK        -0.1800 
    107 C         -7.4833  -24.4947  -52.9853 C.2       19 UNK         0.5000 
    108 O         -8.4722  -23.7772  -52.8288 O.2       19 UNK        -0.5000 
    109 N         -6.7974  -24.5334  -54.1370 N.am      20 UNK        -0.5000 
    110 CA        -7.1696  -23.8119  -55.3584 C.3       20 UNK         0.1400 
    111 CB        -6.6958  -24.6136  -56.5840 C.3       20 UNK        -0.1800 
    112 C         -6.6561  -22.3554  -55.3653 C.2       20 UNK         0.5000 
    113 O         -6.0362  -21.9271  -56.3414 O.2       20 UNK        -0.5000 
    114 N         -6.9335  -21.6215  -54.2773 N.am      21 UNK        -0.5000 
    115 CA        -6.6137  -20.2116  -54.0219 C.3       21 UNK         0.1400 
    116 CB        -7.4592  -19.2908  -54.9279 C.3       21 UNK        -0.1800 
    117 C         -5.1032  -19.9065  -54.0981 C.2       21 UNK         0.5000 
    118 O         -4.4220  -19.9584  -53.0743 O.2       21 UNK        -0.5000 
    119 N         -4.6154  -19.6008  -55.3037 N.am      22 UNK        -0.5000 
    120 CA        -3.2032  -19.3636  -55.6280 C.3       22 UNK         0.1400 
    121 C         -2.7436  -20.1320  -56.9041 C.2       22 UNK         0.5000 
    122 N         -3.5212  -21.0699  -57.4353 N.am      22 UNK        -0.7600 
    123 O         -1.6582  -19.8881  -57.4232 O.2       22 UNK        -0.5000 
    124 C124       -2.8809  -17.8426  -55.6682 C.3       23 UNK        -0.0398 
    125 S125       -1.2291  -17.4626  -54.9926 S.3       23 UNK        -0.2404 
    126 C126       -1.6652  -17.0150  -53.2853 C.3       23 UNK        -0.0205 
    127 H127        6.3226  -15.4704  -48.0206 H         1 UNK         0.0600 
    128 H128        5.7502  -14.2708  -49.1830 H         1 UNK         0.0600 
    129 H129        6.6347  -13.7530  -47.7434 H         1 UNK         0.0600 
    130 H130        3.5858  -13.7740  -48.9814 H         1 UNK         0.3000 
    131 H131        2.0490  -14.6392  -46.6799 H         1 UNK         0.0600 
    132 H132        0.0741  -14.0061  -48.1045 H         1 UNK         0.0800 
    133 H133        1.0921  -15.2388  -48.7401 H         1 UNK         0.0800 
    134 H134        3.1091  -14.5021  -50.8268 H         1 UNK         0.0800 
    135 H135        2.2187  -13.8296  -52.1629 H         1 UNK         0.0800 
    136 H136       -0.1050  -14.8338  -52.7384 H         1 UNK         0.1150 
    137 H137       -0.5099  -19.0091  -51.8558 H         1 UNK         0.1150 
    138 H138        2.7056  -16.7603  -50.1327 H         1 UNK         0.1150 
    139 H139        0.9674  -20.1027  -50.3811 H         1 UNK         0.0800 
    140 H140        2.6122  -19.5170  -50.4456 H         1 UNK         0.0800 
    141 H141       -0.5054  -17.8734  -48.9079 H         1 UNK         0.0800 
    142 H142       -0.1150  -17.7141  -47.2278 H         1 UNK         0.0800 
    143 H143       -1.1153  -20.2977  -48.5302 H         1 UNK         0.0600 
    144 H144       -0.1109  -19.8012  -45.8608 H         1 UNK         0.3000 
    145 H145       -1.5981  -21.4916  -43.9590 H         1 UNK         0.0600 
    146 H146       -0.5576  -23.6925  -43.4232 H         1 UNK         0.0600 
    147 H147       -1.8115  -23.8412  -44.6411 H         1 UNK         0.0600 
    148 H148       -0.1205  -23.9077  -45.1164 H         1 UNK         0.0600 
    149 H149        0.3344  -20.6040  -43.4302 H         1 UNK         0.3000 
    150 H150        3.6247  -21.3074  -43.8358 H         1 UNK         0.0600 
    151 H151        3.6269  -20.1453  -46.0469 H         1 UNK         0.0600 
    152 H152        4.1682  -19.0700  -44.7680 H         1 UNK         0.0600 
    153 H153        2.5363  -18.9179  -45.4145 H         1 UNK         0.0600 
    154 H154        2.2808  -18.8864  -42.9975 H         1 UNK         0.3000 
    155 H155        1.5220  -20.0918  -39.6962 H         1 UNK         0.0600 
    156 H156        3.4508  -17.9848  -40.8040 H         1 UNK         0.0600 
    157 H157        3.8438  -19.2322  -39.6300 H         1 UNK         0.0600 
    158 H158        2.7167  -17.9530  -39.2012 H         1 UNK         0.0600 
    159 H159        0.9311  -17.6033  -40.8978 H         1 UNK         0.3000 
    160 H160       -2.2543  -18.4757  -42.2876 H         1 UNK         0.0600 
    161 H161       -2.8493  -16.5239  -40.8667 H         1 UNK         0.0600 
    162 H162       -1.3782  -16.7384  -39.9199 H         1 UNK         0.0600 
    163 H163       -2.6300  -17.9710  -39.8951 H         1 UNK         0.0600 
    164 H164       -0.5930  -16.0933  -42.2113 H         1 UNK         0.3000 
    165 H165        0.9243  -16.6143  -45.3815 H         1 UNK         0.0600 
    166 H166       -1.1769  -15.7039  -46.1661 H         1 UNK         0.0600 
    167 H167       -1.4911  -14.8775  -44.6523 H         1 UNK         0.0600 
    168 H168       -0.2098  -14.3087  -45.7055 H         1 UNK         0.0600 
    169 H169        0.8409  -14.4687  -43.4407 H         1 UNK         0.3000 
    170 H170        3.4769  -15.6821  -41.3995 H         1 UNK         0.0600 
    171 H171        4.8955  -14.9346  -43.2671 H         1 UNK         0.0600 
    172 H172        3.8063  -13.6026  -43.6114 H         1 UNK         0.0600 
    173 H173        4.7185  -13.6278  -42.1032 H         1 UNK         0.0600 
    174 H174        2.2553  -13.0993  -41.6667 H         1 UNK         0.3000 
    175 H175       -0.7437  -13.8206  -39.9468 H         1 UNK         0.0600 
    176 H176        0.0055  -12.1975  -38.2286 H         1 UNK         0.0600 
    177 H177        0.7960  -13.7453  -37.9759 H         1 UNK         0.0600 
    178 H178        1.6879  -12.4187  -38.7119 H         1 UNK         0.0600 
    179 H179        0.4418  -11.3265  -40.5650 H         1 UNK         0.3000 
    180 H180       -1.2588  -10.8761  -43.5327 H         1 UNK         0.0600 
    181 H181        0.7261   -9.5846  -41.5748 H         1 UNK         0.0600 
    182 H182       -1.0235   -9.6361  -41.3663 H         1 UNK         0.0600 
    183 H183       -0.3257   -8.7528  -42.7102 H         1 UNK         0.0600 
    184 H184        0.4395  -10.8098  -44.9640 H         1 UNK         0.3000 
    185 H185        2.5874  -10.1119  -45.6493 H         1 UNK         0.0600 
    186 H186        4.8897  -11.4453  -44.1274 H         1 UNK         0.0600 
    187 H187        5.0248  -10.4668  -45.5859 H         1 UNK         0.0600 
    188 H188        4.4954   -9.7315  -44.0812 H         1 UNK         0.0600 
    189 H189        3.7116  -12.8007  -45.7487 H         1 UNK         0.3000 
    190 H190       -2.2324  -18.5925  -45.6150 H         1 UNK         0.3000 
    191 H191       -4.5424  -17.3375  -46.7375 H         1 UNK         0.0600 
    192 H192       -3.5129  -16.6728  -44.5614 H         1 UNK         0.0600 
    193 H193       -3.9781  -18.2224  -43.8570 H         1 UNK         0.0600 
    194 H194       -5.2105  -17.0719  -44.3550 H         1 UNK         0.0600 
    195 H195       -3.9340  -20.6228  -45.6837 H         1 UNK         0.3000 
    196 H196       -6.7666  -21.4583  -45.8256 H         1 UNK         0.0600 
    197 H197       -5.8477  -23.6399  -45.0959 H         1 UNK         0.0600 
    198 H198       -5.2769  -22.3692  -44.0274 H         1 UNK         0.0600 
    199 H199       -4.2023  -23.0426  -45.2526 H         1 UNK         0.0600 
    200 H200       -4.3309  -20.8107  -48.0262 H         1 UNK         0.3000 
    201 H201       -3.7699  -21.3064  -50.0875 H         1 UNK         0.0600 
    202 H202       -6.0950  -20.7862  -50.6394 H         1 UNK         0.0600 
    203 H203       -6.6066  -22.4376  -50.3181 H         1 UNK         0.0600 
    204 H204       -5.5441  -22.0893  -51.6747 H         1 UNK         0.0600 
    205 H205       -3.0607  -23.2524  -48.0046 H         1 UNK         0.3000 
    206 H206       -3.4013  -25.9209  -48.8969 H         1 UNK         0.0600 
    207 H207       -2.8341  -25.2737  -46.5524 H         1 UNK         0.0600 
    208 H208       -1.6822  -26.4419  -47.1848 H         1 UNK         0.0600 
    209 H209       -1.2363  -24.7438  -47.0799 H         1 UNK         0.0600 
    210 H210       -0.8474  -23.5531  -49.5421 H         1 UNK         0.3000 
    211 H211        0.9965  -25.2526  -50.9006 H         1 UNK         0.0600 
    212 H212        0.5293  -22.2345  -51.1552 H         1 UNK         0.0600 
    213 H213        1.9795  -23.0945  -51.6545 H         1 UNK         0.0600 
    214 H214        1.5657  -23.0019  -49.9492 H         1 UNK         0.0600 
    215 H215       -2.0238  -23.8379  -51.9240 H         1 UNK         0.3000 
    216 H216       -1.5122  -24.3211  -54.8173 H         1 UNK         0.0600 
    217 H217       -3.5188  -22.9274  -55.1320 H         1 UNK         0.0600 
    218 H218       -2.3862  -22.0719  -54.0992 H         1 UNK         0.0600 
    219 H219       -3.8011  -22.8535  -53.3982 H         1 UNK         0.0600 
    220 H220       -2.4132  -26.1651  -52.2667 H         1 UNK         0.3000 
    221 H221       -3.6853  -27.9159  -51.8232 H         1 UNK         0.0600 
    222 H222       -3.9408  -28.2915  -54.8557 H         1 UNK         0.0600 
    223 H223       -2.5968  -28.8623  -53.8677 H         1 UNK         0.0600 
    224 H224       -4.2076  -29.5179  -53.6249 H         1 UNK         0.0600 
    225 H225       -4.9140  -25.5038  -51.6305 H         1 UNK         0.3000 
    226 H226       -6.7914  -24.6312  -50.9900 H         1 UNK         0.0600 
    227 H227       -7.7098  -26.8923  -50.4312 H         1 UNK         0.0600 
    228 H228       -8.4167  -26.9908  -52.0458 H         1 UNK         0.0600 
    229 H229       -8.9472  -25.7495  -50.9262 H         1 UNK         0.0600 
    230 H230       -5.9641  -25.1059  -54.1945 H         1 UNK         0.3000 
    231 H231       -8.2587  -23.7596  -55.4165 H         1 UNK         0.0600 
    232 H232       -7.0440  -25.6458  -56.5423 H         1 UNK         0.0600 
    233 H233       -5.6092  -24.6279  -56.6641 H         1 UNK         0.0600 
    234 H234       -7.0823  -24.1778  -57.5060 H         1 UNK         0.0600 
    235 H235       -7.4499  -22.0904  -53.5416 H         1 UNK         0.3000 
    236 H236       -6.9139  -20.0127  -52.9921 H         1 UNK         0.0600 
    237 H237       -7.2204  -18.2413  -54.7509 H         1 UNK         0.0600 
    238 H238       -7.3035  -19.4903  -55.9883 H         1 UNK         0.0600 
    239 H239       -8.5225  -19.4176  -54.7241 H         1 UNK         0.0600 
    240 H240       -5.2439  -19.6355  -56.0942 H         1 UNK         0.3000 
    241 H241       -2.6093  -19.8127  -54.8306 H         1 UNK         0.0600 
    242 H242       -3.2060  -21.5552  -58.2598 H         1 UNK         0.3800 
    243 H243       -4.4075  -21.3368  -57.0116 H         1 UNK         0.3800 
    244 H244       -2.9496  -17.4497  -56.6839 H         1 UNK         0.0800 
    245 H245       -3.6166  -17.2776  -55.0937 H         1 UNK         0.0800 
    246 H246       -2.3583  -17.7549  -52.8800 H         1 UNK         0.0800 
    247 H247       -2.1945  -16.0609  -53.2823 H         1 UNK         0.0800 
@<TRIPOS>BOND
     1    1    2 1    
     2    1  127 1    
     3    1  128 1    
     4    1  129 1    
     5    2    3 2    
     6    2    4 am   BACKBONE|DICT|INTERRES
     7    4    5 1    
     8    4  130 1    
     9    5    6 1    
    10    5   65 1    
    11    5  131 1    
    12    6    7 1    
    13    6  132 1    
    14    6  133 1    
    15    7    8 1    
    16    8    9 1    
    17    8  134 1    
    18    8  135 1    
    19    9   10 ar   
    20    9   14 ar   
    21   10   11 ar   
    22   10  136 1    
    23   11   12 ar   
    24   11  126 1    
    25   12   13 ar   
    26   12  137 1    
    27   13   14 ar   
    28   13   15 1    
    29   14  138 1    
    30   15   16 1    
    31   15  139 1    
    32   15  140 1    
    33   16   17 1    
    34   17   18 1    
    35   17  141 1    
    36   17  142 1    
    37   18   19 1    
    38   18   67 1    
    39   18  143 1    
    40   19   20 am   BACKBONE|DICT|INTERRES
    41   19  144 1    
    42   20   21 2    
    43   20   22 1    
    44   22   23 1    
    45   22   24 1    
    46   22  145 1    
    47   23  146 1    
    48   23  147 1    
    49   23  148 1    
    50   24   25 am   BACKBONE|DICT|INTERRES
    51   24  149 1    
    52   25   26 2    
    53   25   27 1    
    54   27   28 1    
    55   27   29 1    
    56   27  150 1    
    57   28  151 1    
    58   28  152 1    
    59   28  153 1    
    60   29   30 am   BACKBONE|DICT|INTERRES
    61   29  154 1    
    62   30   31 2    
    63   30   32 1    
    64   32   33 1    
    65   32   34 1    
    66   32  155 1    
    67   33  156 1    
    68   33  157 1    
    69   33  158 1    
    70   34   35 am   BACKBONE|DICT|INTERRES
    71   34  159 1    
    72   35   36 2    
    73   35   37 1    
    74   37   38 1    
    75   37   39 1    
    76   37  160 1    
    77   38  161 1    
    78   38  162 1    
    79   38  163 1    
    80   39   40 am   BACKBONE|DICT|INTERRES
    81   39  164 1    
    82   40   41 2    
    83   40   42 1    
    84   42   43 1    
    85   42   44 1    
    86   42  165 1    
    87   43  166 1    
    88   43  167 1    
    89   43  168 1    
    90   44   45 am   BACKBONE|DICT|INTERRES
    91   44  169 1    
    92   45   46 2    
    93   45   47 1    
    94   47   48 1    
    95   47   49 1    
    96   47  170 1    
    97   48  171 1    
    98   48  172 1    
    99   48  173 1    
   100   49   50 am   BACKBONE|DICT|INTERRES
   101   49  174 1    
   102   50   51 2    
   103   50   52 1    
   104   52   53 1    
   105   52   54 1    
   106   52  175 1    
   107   53  176 1    
   108   53  177 1    
   109   53  178 1    
   110   54   55 am   BACKBONE|DICT|INTERRES
   111   54  179 1    
   112   55   56 2    
   113   55   57 1    
   114   57   58 1    
   115   57   59 1    
   116   57  180 1    
   117   58  181 1    
   118   58  182 1    
   119   58  183 1    
   120   59   60 am   BACKBONE|DICT|INTERRES
   121   59  184 1    
   122   60   61 2    
   123   60   62 1    
   124   62   63 1    
   125   62   64 1    
   126   62  185 1    
   127   63  186 1    
   128   63  187 1    
   129   63  188 1    
   130   64   65 am   BACKBONE|DICT|INTERRES
   131   64  189 1    
   132   65   66 2    
   133   67   68 2    
   134   67   69 am   BACKBONE|DICT|INTERRES
   135   69   70 1    
   136   69  190 1    
   137   70   71 1    
   138   70   72 1    
   139   70  191 1    
   140   71  192 1    
   141   71  193 1    
   142   71  194 1    
   143   72   73 2    
   144   72   74 am   BACKBONE|DICT|INTERRES
   145   74   75 1    
   146   74  195 1    
   147   75   76 1    
   148   75   77 1    
   149   75  196 1    
   150   76  197 1    
   151   76  198 1    
   152   76  199 1    
   153   77   78 2    
   154   77   79 am   BACKBONE|DICT|INTERRES
   155   79   80 1    
   156   79  200 1    
   157   80   81 1    
   158   80   82 1    
   159   80  201 1    
   160   81  202 1    
   161   81  203 1    
   162   81  204 1    
   163   82   83 2    
   164   82   84 am   BACKBONE|DICT|INTERRES
   165   84   85 1    
   166   84  205 1    
   167   85   86 1    
   168   85   87 1    
   169   85  206 1    
   170   86  207 1    
   171   86  208 1    
   172   86  209 1    
   173   87   88 2    
   174   87   89 am   BACKBONE|DICT|INTERRES
   175   89   90 1    
   176   89  210 1    
   177   90   91 1    
   178   90   92 1    
   179   90  211 1    
   180   91  212 1    
   181   91  213 1    
   182   91  214 1    
   183   92   93 2    
   184   92   94 am   BACKBONE|DICT|INTERRES
   185   94   95 1    
   186   94  215 1    
   187   95   96 1    
   188   95   97 1    
   189   95  216 1    
   190   96  217 1    
   191   96  218 1    
   192   96  219 1    
   193   97   98 2    
   194   97   99 am   BACKBONE|DICT|INTERRES
   195   99  100 1    
   196   99  220 1    
   197  100  101 1    
   198  100  102 1    
   199  100  221 1    
   200  101  222 1    
   201  101  223 1    
   202  101  224 1    
   203  102  103 2    
   204  102  104 am   BACKBONE|DICT|INTERRES
   205  104  105 1    
   206  104  225 1    
   207  105  106 1    
   208  105  107 1    
   209  105  226 1    
   210  106  227 1    
   211  106  228 1    
   212  106  229 1    
   213  107  108 2    
   214  107  109 am   BACKBONE|DICT|INTERRES
   215  109  110 1    
   216  109  230 1    
   217  110  111 1    
   218  110  112 1    
   219  110  231 1    
   220  111  232 1    
   221  111  233 1    
   222  111  234 1    
   223  112  113 2    
   224  112  114 am   BACKBONE|DICT|INTERRES
   225  114  115 1    
   226  114  235 1    
   227  115  116 1    
   228  115  117 1    
   229  115  236 1    
   230  116  237 1    
   231  116  238 1    
   232  116  239 1    
   233  117  118 2    
   234  117  119 am   BACKBONE|DICT|INTERRES
   235  119  120 1    
   236  119  240 1    
   237  120  121 1    
   238  120  124 1    
   239  120  241 1    
   240  121  122 am   BACKBONE|DICT|INTERRES
   241  121  123 2    
   242  122  242 1    
   243  122  243 1    
   244  124  125 1    
   245  124  244 1    
   246  124  245 1    
   247  125  126 1    
   248  126  246 1    
   249  126  247 1    
@<TRIPOS>SUBSTRUCTURE
     1 UNK         1 GROUP             0       ****    0 ROOT    
