@<TRIPOS>MOLECULE
3R540
247   249    1
SMALL
USER_CHARGES


@<TRIPOS>ATOM
      1 CA          3.2868  -15.0638  -49.5280 C.3       0 UNK        -0.1800 
      2 C           2.2938  -14.2886  -48.6756 C.2       0 UNK         0.5000 
      3 O           2.6990  -13.4571  -47.8611 O.2       0 UNK        -0.5000 
      4 N           0.9945  -14.5584  -48.8495 N.am      1 UNK        -0.5000 
      5 CA         -0.0848  -13.8706  -48.1394 C.3       1 UNK         0.1400 
      6 C6         -1.4178  -14.6616  -48.2104 C.3       23 UNK        -0.0398 
      7 S7         -2.1900  -14.7673  -49.8637 S.3       23 UNK        -0.2404 
      8 C8         -2.1460  -16.5550  -50.2003 C.3       23 UNK        -0.0205 
      9 C9         -0.7553  -17.0434  -50.5764 C.ar      23 UNK        -0.0193 
     10 C10        -0.1638  -16.6093  -51.7653 C.ar      23 UNK        -0.1150 
     11 C11         1.0728  -17.1159  -52.1723 C.ar      23 UNK        -0.0193 
     12 C12         1.7241  -18.0574  -51.3704 C.ar      23 UNK        -0.1150 
     13 C13         1.1559  -18.4844  -50.1661 C.ar      23 UNK        -0.0193 
     14 C14        -0.0814  -17.9654  -49.7700 C.ar      23 UNK        -0.1150 
     15 C15         1.8917  -19.4962  -49.2976 C.3       23 UNK        -0.0205 
     16 S16         1.0158  -21.0942  -49.1952 S.3       23 UNK        -0.2404 
     17 C17         0.2919  -20.9656  -47.5315 C.3       23 UNK        -0.0398 
     18 CA         -0.2953  -22.2888  -46.9790 C.3       11 UNK         0.1400 
     19 N          -0.1403  -22.3601  -45.5170 N.am      11 UNK        -0.5000 
     20 C          -0.6153  -23.2970  -44.6810 C.2       10 UNK         0.5000 
     21 O          -1.3087  -24.2510  -45.0329 O.2       10 UNK        -0.5000 
     22 CA         -0.2973  -23.1074  -43.1896 C.3       10 UNK         0.1400 
     23 CB          1.1594  -23.4876  -42.8830 C.3       10 UNK        -0.1800 
     24 N          -0.5486  -21.7272  -42.7786 N.am      10 UNK        -0.5000 
     25 C          -1.7533  -21.2577  -42.4241 C.2       9 UNK         0.5000 
     26 O          -2.7537  -21.9654  -42.3037 O.2       9 UNK        -0.5000 
     27 CA         -1.8735  -19.7388  -42.1841 C.3       9 UNK         0.1400 
     28 CB         -1.5620  -19.3999  -40.7186 C.3       9 UNK        -0.1800 
     29 N          -1.0136  -18.9322  -43.0511 N.am      9 UNK        -0.5000 
     30 C          -1.0584  -18.9197  -44.3907 C.2       8 UNK         0.5000 
     31 O          -1.8589  -19.5701  -45.0629 O.2       8 UNK        -0.5000 
     32 CA          0.0181  -18.0826  -45.1022 C.3       8 UNK         0.1400 
     33 CB         -0.4223  -16.6163  -45.1968 C.3       8 UNK        -0.1800 
     34 N           1.3377  -18.1598  -44.4716 N.am      8 UNK        -0.5000 
     35 C           2.0279  -19.2793  -44.2069 C.2       7 UNK         0.5000 
     36 O           1.6122  -20.4140  -44.4360 O.2       7 UNK        -0.5000 
     37 CA          3.3941  -19.1016  -43.5307 C.3       7 UNK         0.1400 
     38 CB          4.4544  -18.6505  -44.5469 C.3       7 UNK        -0.1800 
     39 N           3.3059  -18.1379  -42.4362 N.am      7 UNK        -0.5000 
     40 C           2.8197  -18.4266  -41.2209 C.2       6 UNK         0.5000 
     41 O           2.4758  -19.5563  -40.8720 O.2       6 UNK        -0.5000 
     42 CA          2.6741  -17.2538  -40.2328 C.3       6 UNK         0.1400 
     43 CB          3.9609  -17.0766  -39.4130 C.3       6 UNK        -0.1800 
     44 N           2.3430  -15.9866  -40.8871 N.am      6 UNK        -0.5000 
     45 C           1.1808  -15.7309  -41.5034 C.2       5 UNK         0.5000 
     46 O           0.2546  -16.5391  -41.5838 O.2       5 UNK        -0.5000 
     47 CA          1.0527  -14.3514  -42.1789 C.3       5 UNK         0.1400 
     48 CB          0.6254  -13.2914  -41.1530 C.3       5 UNK        -0.1800 
     49 N           2.2652  -13.8943  -42.8676 N.am      5 UNK        -0.5000 
     50 C           2.9321  -14.5667  -43.8160 C.2       4 UNK         0.5000 
     51 O           2.6505  -15.7140  -44.1599 O.2       4 UNK        -0.5000 
     52 CA          4.0788  -13.8138  -44.5121 C.3       4 UNK         0.1400 
     53 CB          4.8542  -14.6963  -45.5071 C.3       4 UNK        -0.1800 
     54 N           3.5400  -12.6551  -45.2202 N.am      4 UNK        -0.5000 
     55 C           3.3956  -11.4379  -44.6832 C.2       3 UNK         0.5000 
     56 O           3.7465  -11.1526  -43.5371 O.2       3 UNK        -0.5000 
     57 CA          2.7060  -10.3738  -45.5540 C.3       3 UNK         0.1400 
     58 CB          3.6533   -9.8718  -46.6548 C.3       3 UNK        -0.1800 
     59 N           1.4554  -10.8310  -46.1639 N.am      3 UNK        -0.5000 
     60 C           0.3638  -11.2460  -45.5026 C.2       2 UNK         0.5000 
     61 O           0.3091  -11.3599  -44.2787 O.2       2 UNK        -0.5000 
     62 CA         -0.8965  -11.5574  -46.3383 C.3       2 UNK         0.1400 
     63 CB         -2.0309  -10.5866  -45.9727 C.3       2 UNK        -0.1800 
     64 N          -0.6550  -11.4512  -47.7816 N.am      2 UNK        -0.5000 
     65 C          -0.2337  -12.4037  -48.6257 C.2       1 UNK         0.5000 
     66 O           0.0224  -12.1286  -49.7991 O.2       1 UNK        -0.5000 
     67 C          -1.7544  -22.4639  -47.4455 C.2       11 UNK         0.5000 
     68 O          -2.0060  -23.1605  -48.4311 O.2       11 UNK        -0.5000 
     69 N          -2.6867  -21.8684  -46.6872 N.am      12 UNK        -0.5000 
     70 CA         -4.1366  -21.9542  -46.8559 C.3       12 UNK         0.1400 
     71 CB         -4.8144  -21.1998  -45.7031 C.3       12 UNK        -0.1800 
     72 C          -4.6879  -23.3890  -46.9557 C.2       12 UNK         0.5000 
     73 O          -5.6539  -23.6034  -47.6882 O.2       12 UNK        -0.5000 
     74 N          -4.0506  -24.3332  -46.2514 N.am      13 UNK        -0.5000 
     75 CA         -4.3754  -25.7563  -46.2764 C.3       13 UNK         0.1400 
     76 CB         -4.4902  -26.2683  -44.8321 C.3       13 UNK        -0.1800 
     77 C          -3.3149  -26.5596  -47.0475 C.2       13 UNK         0.5000 
     78 O          -3.6784  -27.4163  -47.8524 O.2       13 UNK        -0.5000 
     79 N          -2.0287  -26.2772  -46.7937 N.am      14 UNK        -0.5000 
     80 CA         -0.8832  -27.0368  -47.3016 C.3       14 UNK         0.1400 
     81 CB          0.3893  -26.5933  -46.5629 C.3       14 UNK        -0.1800 
     82 C          -0.6869  -26.9266  -48.8227 C.2       14 UNK         0.5000 
     83 O          -0.3660  -27.9276  -49.4643 O.2       14 UNK        -0.5000 
     84 N          -0.8967  -25.7229  -49.3681 N.am      15 UNK        -0.5000 
     85 CA         -0.8530  -25.4377  -50.8043 C.3       15 UNK         0.1400 
     86 CB          0.0483  -24.2146  -51.0328 C.3       15 UNK        -0.1800 
     87 C          -2.2634  -25.1834  -51.3691 C.2       15 UNK         0.5000 
     88 O          -2.3939  -24.9119  -52.5623 O.2       15 UNK        -0.5000 
     89 N          -3.2835  -25.2560  -50.5000 N.am      16 UNK        -0.5000 
     90 CA         -4.6909  -24.9347  -50.7405 C.3       16 UNK         0.1400 
     91 CB         -5.3179  -25.9045  -51.7638 C.3       16 UNK        -0.1800 
     92 C          -4.9098  -23.4527  -51.1091 C.2       16 UNK         0.5000 
     93 O          -5.8417  -23.1433  -51.8526 O.2       16 UNK        -0.5000 
     94 N          -4.0741  -22.5491  -50.5700 N.am      17 UNK        -0.5000 
     95 CA         -4.0609  -21.1108  -50.8783 C.3       17 UNK         0.1400 
     96 CB         -2.7877  -20.4751  -50.2966 C.3       17 UNK        -0.1800 
     97 C          -5.3204  -20.3311  -50.4342 C.2       17 UNK         0.5000 
     98 O          -5.4227  -19.1373  -50.7145 O.2       17 UNK        -0.5000 
     99 N          -6.2590  -21.0028  -49.7531 N.am      18 UNK        -0.5000 
    100 CA        -7.6083  -20.5050  -49.4933 C.3       18 UNK         0.1400 
    101 CB        -8.2259  -21.3233  -48.3495 C.3       18 UNK        -0.1800 
    102 C         -8.5096  -20.5666  -50.7454 C.2       18 UNK         0.5000 
    103 O         -9.4665  -19.7957  -50.8307 O.2       18 UNK        -0.5000 
    104 N         -8.2010  -21.4779  -51.6794 N.am      19 UNK        -0.5000 
    105 CA        -8.9269  -21.6875  -52.9322 C.3       19 UNK         0.1400 
    106 CB        -9.4054  -23.1471  -52.9964 C.3       19 UNK        -0.1800 
    107 C         -8.0448  -21.3538  -54.1465 C.2       19 UNK         0.5000 
    108 O         -8.5147  -20.6925  -55.0738 O.2       19 UNK        -0.5000 
    109 N         -6.7843  -21.8061  -54.1216 N.am      20 UNK        -0.5000 
    110 CA        -5.7598  -21.4950  -55.1170 C.3       20 UNK         0.1400 
    111 CB        -4.6191  -22.5169  -54.9814 C.3       20 UNK        -0.1800 
    112 C         -5.2248  -20.0620  -54.9405 C.2       20 UNK         0.5000 
    113 O         -5.3638  -19.4807  -53.8633 O.2       20 UNK        -0.5000 
    114 N         -4.5998  -19.5216  -55.9950 N.am      21 UNK        -0.5000 
    115 CA        -3.9908  -18.1872  -55.9894 C.3       21 UNK         0.1400 
    116 CB        -3.5932  -17.8014  -57.4229 C.3       21 UNK        -0.1800 
    117 C         -2.7801  -18.0831  -55.0413 C.2       21 UNK         0.5000 
    118 O         -2.6343  -17.0724  -54.3539 O.2       21 UNK        -0.5000 
    119 N         -1.9644  -19.1426  -55.0142 N.am      22 UNK        -0.5000 
    120 CA        -0.8153  -19.3377  -54.1238 C.3       22 UNK         0.1400 
    121 C         -0.7353  -20.8207  -53.6844 C.2       22 UNK         0.5000 
    122 N         -0.0791  -21.1015  -52.5683 N.am      22 UNK        -0.7600 
    123 O         -1.2270  -21.7213  -54.3607 O.2       22 UNK        -0.5000 
    124 C124        0.5278  -18.8914  -54.7680 C.3       23 UNK        -0.0398 
    125 S125        0.6867  -17.0817  -54.9386 S.3       23 UNK        -0.2404 
    126 C126        1.6997  -16.6551  -53.4822 C.3       23 UNK        -0.0205 
    127 H127        2.7962  -15.5552  -50.3674 H         1 UNK         0.0600 
    128 H128        3.7840  -15.8243  -48.9260 H         1 UNK         0.0600 
    129 H129        4.0456  -14.3913  -49.9278 H         1 UNK         0.0600 
    130 H130        0.7040  -15.2147  -49.5612 H         1 UNK         0.3000 
    131 H131        0.2249  -13.8593  -47.0938 H         1 UNK         0.0600 
    132 H132       -1.2544  -15.6716  -47.8368 H         1 UNK         0.0800 
    133 H133       -2.1513  -14.2192  -47.5352 H         1 UNK         0.0800 
    134 H134       -2.8220  -16.7687  -51.0300 H         1 UNK         0.0800 
    135 H135       -2.5409  -17.1021  -49.3427 H         1 UNK         0.0800 
    136 H136       -0.6848  -15.9008  -52.3947 H         1 UNK         0.1150 
    137 H137        2.6802  -18.4542  -51.6822 H         1 UNK         0.1150 
    138 H138       -0.5325  -18.2980  -48.8472 H         1 UNK         0.1150 
    139 H139        2.8889  -19.6845  -49.6980 H         1 UNK         0.0800 
    140 H140        2.0475  -19.0699  -48.3058 H         1 UNK         0.0800 
    141 H141       -0.4486  -20.1657  -47.5212 H         1 UNK         0.0800 
    142 H142        1.1039  -20.6322  -46.8884 H         1 UNK         0.0800 
    143 H143        0.2786  -23.1251  -47.3822 H         1 UNK         0.0600 
    144 H144        0.4347  -21.6274  -45.1066 H         1 UNK         0.3000 
    145 H145       -0.9427  -23.7794  -42.6196 H         1 UNK         0.0600 
    146 H146        1.3742  -23.3903  -41.8187 H         1 UNK         0.0600 
    147 H147        1.3566  -24.5237  -43.1614 H         1 UNK         0.0600 
    148 H148        1.8700  -22.8630  -43.4244 H         1 UNK         0.0600 
    149 H149        0.2125  -21.0719  -42.9045 H         1 UNK         0.3000 
    150 H150       -2.9074  -19.4551  -42.3906 H         1 UNK         0.0600 
    151 H151       -2.1931  -19.9749  -40.0398 H         1 UNK         0.0600 
    152 H152       -1.7400  -18.3443  -40.5120 H         1 UNK         0.0600 
    153 H153       -0.5228  -19.6184  -40.4688 H         1 UNK         0.0600 
    154 H154       -0.3483  -18.3225  -42.5881 H         1 UNK         0.3000 
    155 H155        0.1242  -18.4610  -46.1178 H         1 UNK         0.0600 
    156 H156       -1.3957  -16.5335  -45.6805 H         1 UNK         0.0600 
    157 H157        0.2897  -16.0257  -45.7735 H         1 UNK         0.0600 
    158 H158       -0.5152  -16.1648  -44.2107 H         1 UNK         0.0600 
    159 H159        1.7843  -17.2671  -44.2674 H         1 UNK         0.3000 
    160 H160        3.7036  -20.0694  -43.1298 H         1 UNK         0.0600 
    161 H161        4.1848  -17.7115  -45.0299 H         1 UNK         0.0600 
    162 H162        4.5774  -19.3959  -45.3335 H         1 UNK         0.0600 
    163 H163        5.4258  -18.5165  -44.0709 H         1 UNK         0.0600 
    164 H164        3.4939  -17.1723  -42.6684 H         1 UNK         0.3000 
    165 H165        1.8623  -17.5011  -39.5454 H         1 UNK         0.0600 
    166 H166        3.8428  -16.3013  -38.6557 H         1 UNK         0.0600 
    167 H167        4.2227  -17.9993  -38.8934 H         1 UNK         0.0600 
    168 H168        4.8073  -16.8041  -40.0448 H         1 UNK         0.0600 
    169 H169        3.0506  -15.2668  -40.8771 H         1 UNK         0.3000 
    170 H170        0.2659  -14.4223  -42.9307 H         1 UNK         0.0600 
    171 H171       -0.2886  -13.5908  -40.6383 H         1 UNK         0.0600 
    172 H172        1.3931  -13.1310  -40.3950 H         1 UNK         0.0600 
    173 H173        0.4256  -12.3343  -41.6353 H         1 UNK         0.0600 
    174 H174        2.5541  -12.9427  -42.6801 H         1 UNK         0.3000 
    175 H175        4.7817  -13.4908  -43.7415 H         1 UNK         0.0600 
    176 H176        4.2019  -15.1168  -46.2729 H         1 UNK         0.0600 
    177 H177        5.6367  -14.1287  -46.0106 H         1 UNK         0.0600 
    178 H178        5.3366  -15.5282  -44.9932 H         1 UNK         0.0600 
    179 H179        3.1941  -12.8275  -46.1624 H         1 UNK         0.3000 
    180 H180        2.4632   -9.5287  -44.9065 H         1 UNK         0.0600 
    181 H181        3.8909  -10.6592  -47.3717 H         1 UNK         0.0600 
    182 H182        4.5941   -9.5186  -46.2304 H         1 UNK         0.0600 
    183 H183        3.2135   -9.0395  -47.2045 H         1 UNK         0.0600 
    184 H184        1.4120  -10.7935  -47.1717 H         1 UNK         0.3000 
    185 H185       -1.2347  -12.5584  -46.0710 H         1 UNK         0.0600 
    186 H186       -2.2800  -10.6535  -44.9128 H         1 UNK         0.0600 
    187 H187       -1.7590   -9.5509  -46.1807 H         1 UNK         0.0600 
    188 H188       -2.9393  -10.8136  -46.5313 H         1 UNK         0.0600 
    189 H189       -0.7698  -10.5210  -48.1572 H         1 UNK         0.3000 
    190 H190       -2.3678  -21.2714  -45.9292 H         1 UNK         0.3000 
    191 H191       -4.3849  -21.4445  -47.7848 H         1 UNK         0.0600 
    192 H192       -4.5276  -21.6096  -44.7335 H         1 UNK         0.0600 
    193 H193       -5.9007  -21.2571  -45.7756 H         1 UNK         0.0600 
    194 H194       -4.5446  -20.1436  -45.7120 H         1 UNK         0.0600 
    195 H195       -3.2319  -24.0677  -45.7152 H         1 UNK         0.3000 
    196 H196       -5.3372  -25.9207  -46.7670 H         1 UNK         0.0600 
    197 H197       -4.7229  -27.3338  -44.8116 H         1 UNK         0.0600 
    198 H198       -5.2859  -25.7513  -44.2956 H         1 UNK         0.0600 
    199 H199       -3.5634  -26.1221  -44.2755 H         1 UNK         0.0600 
    200 H200       -1.8093  -25.5469  -46.1183 H         1 UNK         0.3000 
    201 H201       -1.0571  -28.0895  -47.0687 H         1 UNK         0.0600 
    202 H202        0.2898  -26.7334  -45.4863 H         1 UNK         0.0600 
    203 H203        0.6146  -25.5418  -46.7435 H         1 UNK         0.0600 
    204 H204        1.2531  -27.1746  -46.8879 H         1 UNK         0.0600 
    205 H205       -1.1760  -24.9472  -48.7763 H         1 UNK         0.3000 
    206 H206       -0.4297  -26.2800  -51.3547 H         1 UNK         0.0600 
    207 H207        1.0339  -24.3584  -50.5898 H         1 UNK         0.0600 
    208 H208        0.1937  -24.0344  -52.0984 H         1 UNK         0.0600 
    209 H209       -0.3875  -23.3151  -50.5986 H         1 UNK         0.0600 
    210 H210       -3.0529  -25.5096  -49.5505 H         1 UNK         0.3000 
    211 H211       -5.2029  -25.0944  -49.7920 H         1 UNK         0.0600 
    212 H212       -4.9215  -25.7491  -52.7676 H         1 UNK         0.0600 
    213 H213       -6.3987  -25.7689  -51.8177 H         1 UNK         0.0600 
    214 H214       -5.1357  -26.9426  -51.4863 H         1 UNK         0.0600 
    215 H215       -3.3439  -22.8792  -49.9470 H         1 UNK         0.3000 
    216 H216       -4.0036  -21.0225  -51.9647 H         1 UNK         0.0600 
    217 H217       -2.6124  -19.4951  -50.7408 H         1 UNK         0.0600 
    218 H218       -1.9071  -21.0830  -50.5000 H         1 UNK         0.0600 
    219 H219       -2.8552  -20.3341  -49.2188 H         1 UNK         0.0600 
    220 H220       -6.0871  -21.9735  -49.5305 H         1 UNK         0.3000 
    221 H221       -7.5466  -19.4624  -49.1746 H         1 UNK         0.0600 
    222 H222       -8.2924  -22.3824  -48.6022 H         1 UNK         0.0600 
    223 H223       -7.6361  -21.2341  -47.4380 H         1 UNK         0.0600 
    224 H224       -9.2337  -20.9756  -48.1188 H         1 UNK         0.0600 
    225 H225       -7.3701  -22.0467  -51.5495 H         1 UNK         0.3000 
    226 H226       -9.8066  -21.0424  -52.9795 H         1 UNK         0.0600 
    227 H227      -10.0862  -23.3726  -52.1755 H         1 UNK         0.0600 
    228 H228       -9.9405  -23.3428  -53.9265 H         1 UNK         0.0600 
    229 H229       -8.5719  -23.8488  -52.9411 H         1 UNK         0.0600 
    230 H230       -6.4645  -22.3276  -53.3087 H         1 UNK         0.3000 
    231 H231       -6.1985  -21.5863  -56.1128 H         1 UNK         0.0600 
    232 H232       -4.9878  -23.5380  -55.0809 H         1 UNK         0.0600 
    233 H233       -4.1171  -22.4381  -54.0162 H         1 UNK         0.0600 
    234 H234       -3.8625  -22.3685  -55.7525 H         1 UNK         0.0600 
    235 H235       -4.5215  -20.0529  -56.8503 H         1 UNK         0.3000 
    236 H236       -4.7434  -17.4750  -55.6441 H         1 UNK         0.0600 
    237 H237       -3.1509  -16.8045  -57.4489 H         1 UNK         0.0600 
    238 H238       -2.8621  -18.4950  -57.8399 H         1 UNK         0.0600 
    239 H239       -4.4604  -17.7884  -58.0834 H         1 UNK         0.0600 
    240 H240       -2.2019  -19.9552  -55.5662 H         1 UNK         0.3000 
    241 H241       -0.9923  -18.7659  -53.2129 H         1 UNK         0.0600 
    242 H242       -0.0045  -22.0640  -52.2854 H         1 UNK         0.3800 
    243 H243        0.3299  -20.3820  -51.9923 H         1 UNK         0.3800 
    244 H244        1.3800  -19.2513  -54.1887 H         1 UNK         0.0800 
    245 H245        0.6354  -19.3388  -55.7572 H         1 UNK         0.0800 
    246 H246        1.8314  -15.5729  -53.4493 H         1 UNK         0.0800 
    247 H247        2.6965  -17.0808  -53.6073 H         1 UNK         0.0800 
@<TRIPOS>BOND
     1    1    2 1    
     2    1  127 1    
     3    1  128 1    
     4    1  129 1    
     5    2    3 2    
     6    2    4 am   BACKBONE|DICT|INTERRES
     7    4    5 1    
     8    4  130 1    
     9    5    6 1    
    10    5   65 1    
    11    5  131 1    
    12    6    7 1    
    13    6  132 1    
    14    6  133 1    
    15    7    8 1    
    16    8    9 1    
    17    8  134 1    
    18    8  135 1    
    19    9   10 ar   
    20    9   14 ar   
    21   10   11 ar   
    22   10  136 1    
    23   11   12 ar   
    24   11  126 1    
    25   12   13 ar   
    26   12  137 1    
    27   13   14 ar   
    28   13   15 1    
    29   14  138 1    
    30   15   16 1    
    31   15  139 1    
    32   15  140 1    
    33   16   17 1    
    34   17   18 1    
    35   17  141 1    
    36   17  142 1    
    37   18   19 1    
    38   18   67 1    
    39   18  143 1    
    40   19   20 am   BACKBONE|DICT|INTERRES
    41   19  144 1    
    42   20   21 2    
    43   20   22 1    
    44   22   23 1    
    45   22   24 1    
    46   22  145 1    
    47   23  146 1    
    48   23  147 1    
    49   23  148 1    
    50   24   25 am   BACKBONE|DICT|INTERRES
    51   24  149 1    
    52   25   26 2    
    53   25   27 1    
    54   27   28 1    
    55   27   29 1    
    56   27  150 1    
    57   28  151 1    
    58   28  152 1    
    59   28  153 1    
    60   29   30 am   BACKBONE|DICT|INTERRES
    61   29  154 1    
    62   30   31 2    
    63   30   32 1    
    64   32   33 1    
    65   32   34 1    
    66   32  155 1    
    67   33  156 1    
    68   33  157 1    
    69   33  158 1    
    70   34   35 am   BACKBONE|DICT|INTERRES
    71   34  159 1    
    72   35   36 2    
    73   35   37 1    
    74   37   38 1    
    75   37   39 1    
    76   37  160 1    
    77   38  161 1    
    78   38  162 1    
    79   38  163 1    
    80   39   40 am   BACKBONE|DICT|INTERRES
    81   39  164 1    
    82   40   41 2    
    83   40   42 1    
    84   42   43 1    
    85   42   44 1    
    86   42  165 1    
    87   43  166 1    
    88   43  167 1    
    89   43  168 1    
    90   44   45 am   BACKBONE|DICT|INTERRES
    91   44  169 1    
    92   45   46 2    
    93   45   47 1    
    94   47   48 1    
    95   47   49 1    
    96   47  170 1    
    97   48  171 1    
    98   48  172 1    
    99   48  173 1    
   100   49   50 am   BACKBONE|DICT|INTERRES
   101   49  174 1    
   102   50   51 2    
   103   50   52 1    
   104   52   53 1    
   105   52   54 1    
   106   52  175 1    
   107   53  176 1    
   108   53  177 1    
   109   53  178 1    
   110   54   55 am   BACKBONE|DICT|INTERRES
   111   54  179 1    
   112   55   56 2    
   113   55   57 1    
   114   57   58 1    
   115   57   59 1    
   116   57  180 1    
   117   58  181 1    
   118   58  182 1    
   119   58  183 1    
   120   59   60 am   BACKBONE|DICT|INTERRES
   121   59  184 1    
   122   60   61 2    
   123   60   62 1    
   124   62   63 1    
   125   62   64 1    
   126   62  185 1    
   127   63  186 1    
   128   63  187 1    
   129   63  188 1    
   130   64   65 am   BACKBONE|DICT|INTERRES
   131   64  189 1    
   132   65   66 2    
   133   67   68 2    
   134   67   69 am   BACKBONE|DICT|INTERRES
   135   69   70 1    
   136   69  190 1    
   137   70   71 1    
   138   70   72 1    
   139   70  191 1    
   140   71  192 1    
   141   71  193 1    
   142   71  194 1    
   143   72   73 2    
   144   72   74 am   BACKBONE|DICT|INTERRES
   145   74   75 1    
   146   74  195 1    
   147   75   76 1    
   148   75   77 1    
   149   75  196 1    
   150   76  197 1    
   151   76  198 1    
   152   76  199 1    
   153   77   78 2    
   154   77   79 am   BACKBONE|DICT|INTERRES
   155   79   80 1    
   156   79  200 1    
   157   80   81 1    
   158   80   82 1    
   159   80  201 1    
   160   81  202 1    
   161   81  203 1    
   162   81  204 1    
   163   82   83 2    
   164   82   84 am   BACKBONE|DICT|INTERRES
   165   84   85 1    
   166   84  205 1    
   167   85   86 1    
   168   85   87 1    
   169   85  206 1    
   170   86  207 1    
   171   86  208 1    
   172   86  209 1    
   173   87   88 2    
   174   87   89 am   BACKBONE|DICT|INTERRES
   175   89   90 1    
   176   89  210 1    
   177   90   91 1    
   178   90   92 1    
   179   90  211 1    
   180   91  212 1    
   181   91  213 1    
   182   91  214 1    
   183   92   93 2    
   184   92   94 am   BACKBONE|DICT|INTERRES
   185   94   95 1    
   186   94  215 1    
   187   95   96 1    
   188   95   97 1    
   189   95  216 1    
   190   96  217 1    
   191   96  218 1    
   192   96  219 1    
   193   97   98 2    
   194   97   99 am   BACKBONE|DICT|INTERRES
   195   99  100 1    
   196   99  220 1    
   197  100  101 1    
   198  100  102 1    
   199  100  221 1    
   200  101  222 1    
   201  101  223 1    
   202  101  224 1    
   203  102  103 2    
   204  102  104 am   BACKBONE|DICT|INTERRES
   205  104  105 1    
   206  104  225 1    
   207  105  106 1    
   208  105  107 1    
   209  105  226 1    
   210  106  227 1    
   211  106  228 1    
   212  106  229 1    
   213  107  108 2    
   214  107  109 am   BACKBONE|DICT|INTERRES
   215  109  110 1    
   216  109  230 1    
   217  110  111 1    
   218  110  112 1    
   219  110  231 1    
   220  111  232 1    
   221  111  233 1    
   222  111  234 1    
   223  112  113 2    
   224  112  114 am   BACKBONE|DICT|INTERRES
   225  114  115 1    
   226  114  235 1    
   227  115  116 1    
   228  115  117 1    
   229  115  236 1    
   230  116  237 1    
   231  116  238 1    
   232  116  239 1    
   233  117  118 2    
   234  117  119 am   BACKBONE|DICT|INTERRES
   235  119  120 1    
   236  119  240 1    
   237  120  121 1    
   238  120  124 1    
   239  120  241 1    
   240  121  122 am   BACKBONE|DICT|INTERRES
   241  121  123 2    
   242  122  242 1    
   243  122  243 1    
   244  124  125 1    
   245  124  244 1    
   246  124  245 1    
   247  125  126 1    
   248  126  246 1    
   249  126  247 1    
@<TRIPOS>SUBSTRUCTURE
     1 UNK         1 GROUP             0       ****    0 ROOT    
