@<TRIPOS>MOLECULE
3R540
247   249    1
SMALL
USER_CHARGES


@<TRIPOS>ATOM
      1 CA         -3.0844  -15.7883  -42.8530 C.3       0 UNK        -0.1800 
      2 C          -3.3156  -15.2924  -44.2723 C.2       0 UNK         0.5000 
      3 O          -4.1442  -14.4060  -44.4834 O.2       0 UNK        -0.5000 
      4 N          -2.5809  -15.8536  -45.2407 N.am      1 UNK        -0.5000 
      5 CA         -2.5659  -15.4775  -46.6597 C.3       1 UNK         0.1400 
      6 C6         -1.6591  -16.4207  -47.4965 C.3       23 UNK        -0.0398 
      7 S7         -0.0124  -16.7227  -46.7566 S.3       23 UNK        -0.2404 
      8 C8          1.1024  -15.8749  -47.9121 C.3       23 UNK        -0.0205 
      9 C9          1.3802  -16.7397  -49.1283 C.ar      23 UNK        -0.0193 
     10 C10         0.7609  -16.4709  -50.3518 C.ar      23 UNK        -0.1150 
     11 C11         1.0190  -17.2764  -51.4643 C.ar      23 UNK        -0.0193 
     12 C12         1.8957  -18.3597  -51.3442 C.ar      23 UNK        -0.1150 
     13 C13         2.5208  -18.6357  -50.1245 C.ar      23 UNK        -0.0193 
     14 C14         2.2640  -17.8165  -49.0235 C.ar      23 UNK        -0.1150 
     15 C15         3.4897  -19.8022  -50.0047 C.3       23 UNK        -0.0205 
     16 S16         2.6278  -21.3866  -49.7652 S.3       23 UNK        -0.2404 
     17 C17         2.2764  -21.3592  -47.9735 C.3       23 UNK        -0.0398 
     18 CA          1.1661  -22.3715  -47.5877 C.3       11 UNK         0.1400 
     19 N           1.4369  -23.0221  -46.3021 N.am      11 UNK        -0.5000 
     20 C           0.8095  -24.1110  -45.8408 C.2       10 UNK         0.5000 
     21 O          -0.1411  -24.6326  -46.4213 O.2       10 UNK        -0.5000 
     22 CA          1.2995  -24.7251  -44.5119 C.3       10 UNK         0.1400 
     23 CB          2.3944  -25.7802  -44.7590 C.3       10 UNK        -0.1800 
     24 N           1.7097  -23.7464  -43.4964 N.am      10 UNK        -0.5000 
     25 C           2.7484  -22.9006  -43.5098 C.2       9 UNK         0.5000 
     26 O           3.5938  -22.8504  -44.4054 O.2       9 UNK        -0.5000 
     27 CA          2.7874  -21.8712  -42.3658 C.3       9 UNK         0.1400 
     28 CB          4.1478  -21.8826  -41.6519 C.3       9 UNK        -0.1800 
     29 N           2.5069  -20.5195  -42.8528 N.am      9 UNK        -0.5000 
     30 C           1.4098  -20.1414  -43.5284 C.2       8 UNK         0.5000 
     31 O           0.4784  -20.8991  -43.8057 O.2       8 UNK        -0.5000 
     32 CA          1.3231  -18.6753  -43.9839 C.3       8 UNK         0.1400 
     33 CB          0.3182  -17.8965  -43.1211 C.3       8 UNK        -0.1800 
     34 N           2.6064  -17.9742  -43.9803 N.am      8 UNK        -0.5000 
     35 C           3.5743  -18.1711  -44.8879 C.2       7 UNK         0.5000 
     36 O           3.4847  -18.9786  -45.8119 O.2       7 UNK        -0.5000 
     37 CA          4.8644  -17.3387  -44.7448 C.3       7 UNK         0.1400 
     38 CB          4.8322  -16.1427  -45.7085 C.3       7 UNK        -0.1800 
     39 N           5.1085  -16.8530  -43.3842 N.am      7 UNK        -0.5000 
     40 C           5.3634  -17.6376  -42.3279 C.2       6 UNK         0.5000 
     41 O           5.4586  -18.8627  -42.3988 O.2       6 UNK        -0.5000 
     42 CA          5.5011  -16.9502  -40.9550 C.3       6 UNK         0.1400 
     43 CB          6.9822  -16.7126  -40.6234 C.3       6 UNK        -0.1800 
     44 N           4.7725  -15.6834  -40.8114 N.am      6 UNK        -0.5000 
     45 C           3.4508  -15.5130  -40.9633 C.2       5 UNK         0.5000 
     46 O           2.7007  -16.3992  -41.3714 O.2       5 UNK        -0.5000 
     47 CA          2.8673  -14.1316  -40.6013 C.3       5 UNK         0.1400 
     48 CB          3.8397  -13.2282  -39.8154 C.3       5 UNK        -0.1800 
     49 N           2.4435  -13.4241  -41.8070 N.am      5 UNK        -0.5000 
     50 C           1.2371  -13.5236  -42.3781 C.2       4 UNK         0.5000 
     51 O           0.3217  -14.2305  -41.9485 O.2       4 UNK        -0.5000 
     52 CA          1.0391  -12.6925  -43.6613 C.3       4 UNK         0.1400 
     53 CB          1.5954  -13.4559  -44.8725 C.3       4 UNK        -0.1800 
     54 N          -0.3668  -12.3523  -43.8978 N.am      4 UNK        -0.5000 
     55 C          -1.0827  -11.5189  -43.1256 C.2       3 UNK         0.5000 
     56 O          -0.5896  -10.8803  -42.1932 O.2       3 UNK        -0.5000 
     57 CA         -2.5959  -11.3857  -43.4167 C.3       3 UNK         0.1400 
     58 CB         -3.1797  -10.0271  -42.9738 C.3       3 UNK        -0.1800 
     59 N          -2.9708  -11.6963  -44.7989 N.am      3 UNK        -0.5000 
     60 C          -2.6236  -11.0361  -45.9153 C.2       2 UNK         0.5000 
     61 O          -1.9788   -9.9862  -45.9185 O.2       2 UNK        -0.5000 
     62 CA         -3.0599  -11.6822  -47.2543 C.3       2 UNK         0.1400 
     63 CB         -2.1676  -11.2560  -48.4393 C.3       2 UNK        -0.1800 
     64 N          -3.1605  -13.1489  -47.1898 N.am      2 UNK        -0.5000 
     65 C          -2.1816  -13.9922  -46.8285 C.2       1 UNK         0.5000 
     66 O          -1.0421  -13.6239  -46.5491 O.2       1 UNK        -0.5000 
     67 C          -0.2396  -21.7380  -47.6808 C.2       11 UNK         0.5000 
     68 O          -0.7922  -21.6792  -48.7777 O.2       11 UNK        -0.5000 
     69 N          -0.8053  -21.2962  -46.5467 N.am      12 UNK        -0.5000 
     70 CA         -2.1380  -20.6890  -46.4866 C.3       12 UNK         0.1400 
     71 CB         -2.1821  -19.6792  -45.3304 C.3       12 UNK        -0.1800 
     72 C          -3.2797  -21.7119  -46.3314 C.2       12 UNK         0.5000 
     73 O          -4.4419  -21.3095  -46.4155 O.2       12 UNK        -0.5000 
     74 N          -2.9594  -22.9933  -46.0914 N.am      13 UNK        -0.5000 
     75 CA         -3.9231  -24.0614  -45.8041 C.3       13 UNK         0.1400 
     76 CB         -3.1730  -25.3773  -45.5541 C.3       13 UNK        -0.1800 
     77 C          -4.9731  -24.2459  -46.9155 C.2       13 UNK         0.5000 
     78 O          -4.6190  -24.2381  -48.0962 O.2       13 UNK        -0.5000 
     79 N          -6.2431  -24.3907  -46.5092 N.am      14 UNK        -0.5000 
     80 CA         -7.4304  -24.5202  -47.3648 C.3       14 UNK         0.1400 
     81 CB         -7.4296  -25.8848  -48.0857 C.3       14 UNK        -0.1800 
     82 C          -7.6043  -23.3274  -48.3308 C.2       14 UNK         0.5000 
     83 O          -7.9113  -23.5257  -49.5070 O.2       14 UNK        -0.5000 
     84 N          -7.3595  -22.1106  -47.8182 N.am      15 UNK        -0.5000 
     85 CA         -7.3314  -20.8367  -48.5492 C.3       15 UNK         0.1400 
     86 CB         -8.7406  -20.4572  -49.0516 C.3       15 UNK        -0.1800 
     87 C          -6.2719  -20.8490  -49.6699 C.2       15 UNK         0.5000 
     88 O          -6.5728  -20.5257  -50.8195 O.2       15 UNK        -0.5000 
     89 N          -5.0582  -21.2836  -49.3056 N.am      16 UNK        -0.5000 
     90 CA         -3.9052  -21.5356  -50.1755 C.3       16 UNK         0.1400 
     91 CB         -3.3269  -20.2070  -50.7061 C.3       16 UNK        -0.1800 
     92 C          -4.2222  -22.5587  -51.2854 C.2       16 UNK         0.5000 
     93 O          -3.9322  -22.3163  -52.4580 O.2       16 UNK        -0.5000 
     94 N          -4.8531  -23.6719  -50.8830 N.am      17 UNK        -0.5000 
     95 CA         -5.3927  -24.7453  -51.7235 C.3       17 UNK         0.1400 
     96 CB         -4.2434  -25.5549  -52.3598 C.3       17 UNK        -0.1800 
     97 C          -6.4065  -24.2176  -52.7608 C.2       17 UNK         0.5000 
     98 O          -6.2807  -24.5076  -53.9497 O.2       17 UNK        -0.5000 
     99 N          -7.3637  -23.4007  -52.2968 N.am      18 UNK        -0.5000 
    100 CA        -8.3245  -22.6276  -53.0952 C.3       18 UNK         0.1400 
    101 CB        -9.3744  -23.5594  -53.7344 C.3       18 UNK        -0.1800 
    102 C         -7.6200  -21.7085  -54.1196 C.2       18 UNK         0.5000 
    103 O         -7.9856  -21.6802  -55.2959 O.2       18 UNK        -0.5000 
    104 N         -6.5824  -21.0127  -53.6368 N.am      19 UNK        -0.5000 
    105 CA        -5.6384  -20.1433  -54.3441 C.3       19 UNK         0.1400 
    106 CB        -6.3657  -18.9459  -54.9881 C.3       19 UNK        -0.1800 
    107 C         -4.6993  -20.8542  -55.3444 C.2       19 UNK         0.5000 
    108 O         -3.8969  -20.1707  -55.9822 O.2       19 UNK        -0.5000 
    109 N         -4.7636  -22.1899  -55.4647 N.am      20 UNK        -0.5000 
    110 CA        -3.9345  -22.9692  -56.3885 C.3       20 UNK         0.1400 
    111 CB        -4.4775  -24.3991  -56.5153 C.3       20 UNK        -0.1800 
    112 C         -2.4450  -22.9957  -56.0030 C.2       20 UNK         0.5000 
    113 O         -1.5998  -23.0673  -56.8966 O.2       20 UNK        -0.5000 
    114 N         -2.1330  -22.8896  -54.7012 N.am      21 UNK        -0.5000 
    115 CA        -0.7568  -22.8106  -54.1954 C.3       21 UNK         0.1400 
    116 CB        -0.7492  -23.0071  -52.6715 C.3       21 UNK        -0.1800 
    117 C         -0.0508  -21.4939  -54.5794 C.2       21 UNK         0.5000 
    118 O          1.1798  -21.4473  -54.5919 O.2       21 UNK        -0.5000 
    119 N         -0.8412  -20.4667  -54.9124 N.am      22 UNK        -0.5000 
    120 CA        -0.3872  -19.1725  -55.4366 C.3       22 UNK         0.1400 
    121 C         -0.3243  -19.1232  -56.9924 C.2       22 UNK         0.5000 
    122 N         -0.6083  -20.2013  -57.7159 N.am      22 UNK        -0.7600 
    123 O          0.0117  -18.0876  -57.5606 O.2       22 UNK        -0.5000 
    124 C124       -1.2232  -18.0010  -54.8566 C.3       23 UNK        -0.0398 
    125 S125       -1.1515  -17.9428  -53.0335 S.3       23 UNK        -0.2404 
    126 C126        0.3678  -16.9712  -52.8022 C.3       23 UNK        -0.0205 
    127 H127       -2.4755  -16.6918  -42.8345 H         1 UNK         0.0600 
    128 H128       -4.0363  -16.0122  -42.3718 H         1 UNK         0.0600 
    129 H129       -2.5752  -15.0219  -42.2683 H         1 UNK         0.0600 
    130 H130       -1.8819  -16.5369  -44.9891 H         1 UNK         0.3000 
    131 H131       -3.5855  -15.6010  -47.0304 H         1 UNK         0.0600 
    132 H132       -2.1472  -17.3915  -47.5897 H         1 UNK         0.0800 
    133 H133       -1.5536  -16.0546  -48.5188 H         1 UNK         0.0800 
    134 H134        0.6848  -14.9090  -48.1992 H         1 UNK         0.0800 
    135 H135        2.0407  -15.6608  -47.3986 H         1 UNK         0.0800 
    136 H136        0.0801  -15.6361  -50.4398 H         1 UNK         0.1150 
    137 H137        2.0913  -18.9895  -52.2012 H         1 UNK         0.1150 
    138 H138        2.7446  -18.0199  -48.0779 H         1 UNK         0.1150 
    139 H139        4.0901  -19.8651  -50.9133 H         1 UNK         0.0800 
    140 H140        4.1936  -19.6388  -49.1867 H         1 UNK         0.0800 
    141 H141        2.0239  -20.3474  -47.6523 H         1 UNK         0.0800 
    142 H142        3.2118  -21.6025  -47.4669 H         1 UNK         0.0800 
    143 H143        1.1791  -23.1821  -48.3201 H         1 UNK         0.0600 
    144 H144        2.2258  -22.6777  -45.7637 H         1 UNK         0.3000 
    145 H145        0.4417  -25.2449  -44.0820 H         1 UNK         0.0600 
    146 H146        2.0304  -26.5677  -45.4200 H         1 UNK         0.0600 
    147 H147        3.2804  -25.3503  -45.2265 H         1 UNK         0.0600 
    148 H148        2.7024  -26.2548  -43.8274 H         1 UNK         0.0600 
    149 H149        1.0486  -23.6401  -42.7394 H         1 UNK         0.3000 
    150 H150        2.0193  -22.1234  -41.6321 H         1 UNK         0.0600 
    151 H151        4.3700  -22.8724  -41.2515 H         1 UNK         0.0600 
    152 H152        4.1624  -21.1818  -40.8169 H         1 UNK         0.0600 
    153 H153        4.9598  -21.6123  -42.3284 H         1 UNK         0.0600 
    154 H154        3.2395  -19.8360  -42.7174 H         1 UNK         0.3000 
    155 H155        0.9536  -18.6983  -45.0086 H         1 UNK         0.0600 
    156 H156       -0.6673  -18.3605  -43.1502 H         1 UNK         0.0600 
    157 H157        0.2082  -16.8691  -43.4699 H         1 UNK         0.0600 
    158 H158        0.6263  -17.8644  -42.0761 H         1 UNK         0.0600 
    159 H159        2.7586  -17.3192  -43.2201 H         1 UNK         0.3000 
    160 H160        5.7005  -17.9822  -45.0262 H         1 UNK         0.0600 
    161 H161        4.0133  -15.4626  -45.4752 H         1 UNK         0.0600 
    162 H162        4.6965  -16.4751  -46.7387 H         1 UNK         0.0600 
    163 H163        5.7633  -15.5771  -45.6704 H         1 UNK         0.0600 
    164 H164        5.0401  -15.8575  -43.2341 H         1 UNK         0.3000 
    165 H165        5.0945  -17.6407  -40.2133 H         1 UNK         0.0600 
    166 H166        7.1046  -16.3335  -39.6086 H         1 UNK         0.0600 
    167 H167        7.5528  -17.6399  -40.6921 H         1 UNK         0.0600 
    168 H168        7.4370  -15.9958  -41.3082 H         1 UNK         0.0600 
    169 H169        5.3151  -14.8969  -40.4853 H         1 UNK         0.3000 
    170 H170        2.0008  -14.3134  -39.9620 H         1 UNK         0.0600 
    171 H171        4.1861  -13.7180  -38.9041 H         1 UNK         0.0600 
    172 H172        4.7150  -12.9513  -40.4042 H         1 UNK         0.0600 
    173 H173        3.3465  -12.3050  -39.5100 H         1 UNK         0.0600 
    174 H174        3.1403  -12.8393  -42.2451 H         1 UNK         0.3000 
    175 H175        1.5947  -11.7580  -43.5592 H         1 UNK         0.0600 
    176 H176        1.4722  -12.8850  -45.7929 H         1 UNK         0.0600 
    177 H177        2.6611  -13.6506  -44.7545 H         1 UNK         0.0600 
    178 H178        1.0976  -14.4177  -45.0027 H         1 UNK         0.0600 
    179 H179       -0.8146  -12.8248  -44.6754 H         1 UNK         0.3000 
    180 H180       -3.0749  -12.1537  -42.8078 H         1 UNK         0.0600 
    181 H181       -2.6905   -9.1915  -43.4747 H         1 UNK         0.0600 
    182 H182       -3.0562   -9.8795  -41.9003 H         1 UNK         0.0600 
    183 H183       -4.2473   -9.9683  -43.1856 H         1 UNK         0.0600 
    184 H184       -3.4873  -12.5646  -44.9081 H         1 UNK         0.3000 
    185 H185       -4.0676  -11.3139  -47.4508 H         1 UNK         0.0600 
    186 H186       -2.1993  -10.1758  -48.5856 H         1 UNK         0.0600 
    187 H187       -1.1250  -11.5338  -48.2812 H         1 UNK         0.0600 
    188 H188       -2.5001  -11.7172  -49.3691 H         1 UNK         0.0600 
    189 H189       -4.0852  -13.5257  -47.3470 H         1 UNK         0.3000 
    190 H190       -0.3001  -21.3744  -45.6697 H         1 UNK         0.3000 
    191 H191       -2.3227  -20.1374  -47.4110 H         1 UNK         0.0600 
    192 H192       -1.3961  -18.9348  -45.4320 H         1 UNK         0.0600 
    193 H193       -3.1319  -19.1430  -45.3114 H         1 UNK         0.0600 
    194 H194       -2.0627  -20.1683  -44.3632 H         1 UNK         0.0600 
    195 H195       -1.9844  -23.2612  -46.1109 H         1 UNK         0.3000 
    196 H196       -4.4375  -23.7841  -44.8819 H         1 UNK         0.0600 
    197 H197       -3.8634  -26.1739  -45.2738 H         1 UNK         0.0600 
    198 H198       -2.4492  -25.2748  -44.7455 H         1 UNK         0.0600 
    199 H199       -2.6380  -25.7075  -46.4455 H         1 UNK         0.0600 
    200 H200       -6.4299  -24.3779  -45.5160 H         1 UNK         0.3000 
    201 H201       -8.2964  -24.4995  -46.7018 H         1 UNK         0.0600 
    202 H202       -7.3556  -26.7054  -47.3723 H         1 UNK         0.0600 
    203 H203       -6.5983  -25.9752  -48.7846 H         1 UNK         0.0600 
    204 H204       -8.3506  -26.0308  -48.6513 H         1 UNK         0.0600 
    205 H205       -7.0671  -22.0597  -46.8519 H         1 UNK         0.3000 
    206 H206       -7.0168  -20.0738  -47.8356 H         1 UNK         0.0600 
    207 H207       -9.4596  -20.4423  -48.2327 H         1 UNK         0.0600 
    208 H208       -8.7383  -19.4631  -49.4999 H         1 UNK         0.0600 
    209 H209       -9.1072  -21.1530  -49.8068 H         1 UNK         0.0600 
    210 H210       -4.9299  -21.5292  -48.3292 H         1 UNK         0.3000 
    211 H211       -3.1528  -22.0085  -49.5475 H         1 UNK         0.0600 
    212 H212       -4.0314  -19.6841  -51.3521 H         1 UNK         0.0600 
    213 H213       -2.4178  -20.3749  -51.2831 H         1 UNK         0.0600 
    214 H214       -3.0645  -19.5385  -49.8865 H         1 UNK         0.0600 
    215 H215       -4.9881  -23.7943  -49.8817 H         1 UNK         0.3000 
    216 H216       -5.9458  -25.4125  -51.0620 H         1 UNK         0.0600 
    217 H217       -4.6289  -26.4159  -52.9069 H         1 UNK         0.0600 
    218 H218       -3.5605  -25.9324  -51.5989 H         1 UNK         0.0600 
    219 H219       -3.6632  -24.9555  -53.0617 H         1 UNK         0.0600 
    220 H220       -7.4193  -23.2597  -51.2900 H         1 UNK         0.3000 
    221 H221       -8.8443  -21.9699  -52.3972 H         1 UNK         0.0600 
    222 H222       -8.9299  -24.2250  -54.4749 H         1 UNK         0.0600 
    223 H223       -9.8636  -24.1757  -52.9802 H         1 UNK         0.0600 
    224 H224      -10.1519  -22.9834  -54.2373 H         1 UNK         0.0600 
    225 H225       -6.4068  -21.0884  -52.6375 H         1 UNK         0.3000 
    226 H226       -4.9836  -19.7439  -53.5692 H         1 UNK         0.0600 
    227 H227       -6.9961  -18.4312  -54.2630 H         1 UNK         0.0600 
    228 H228       -5.6526  -18.2152  -55.3714 H         1 UNK         0.0600 
    229 H229       -6.9947  -19.2541  -55.8235 H         1 UNK         0.0600 
    230 H230       -5.4095  -22.7092  -54.8819 H         1 UNK         0.3000 
    231 H231       -4.0102  -22.4986  -57.3710 H         1 UNK         0.0600 
    232 H232       -4.3291  -24.9686  -55.5976 H         1 UNK         0.0600 
    233 H233       -3.9670  -24.9372  -57.3148 H         1 UNK         0.0600 
    234 H234       -5.5425  -24.4022  -56.7483 H         1 UNK         0.0600 
    235 H235       -2.8781  -22.7811  -54.0164 H         1 UNK         0.3000 
    236 H236       -0.1889  -23.6293  -54.6420 H         1 UNK         0.0600 
    237 H237       -1.2610  -23.9259  -52.3848 H         1 UNK         0.0600 
    238 H238        0.2716  -23.0694  -52.2924 H         1 UNK         0.0600 
    239 H239       -1.2321  -22.1774  -52.1573 H         1 UNK         0.0600 
    240 H240       -1.8424  -20.6052  -54.9034 H         1 UNK         0.3000 
    241 H241        0.6437  -19.0170  -55.1150 H         1 UNK         0.0600 
    242 H242       -0.5538  -20.1470  -58.7207 H         1 UNK         0.3800 
    243 H243       -0.8762  -21.0731  -57.2778 H         1 UNK         0.3800 
    244 H244       -0.8824  -17.0416  -55.2498 H         1 UNK         0.0800 
    245 H245       -2.2680  -18.0967  -55.1557 H         1 UNK         0.0800 
    246 H246        0.1319  -15.9090  -52.8820 H         1 UNK         0.0800 
    247 H247        1.0784  -17.1870  -53.6011 H         1 UNK         0.0800 
@<TRIPOS>BOND
     1    1    2 1    
     2    1  127 1    
     3    1  128 1    
     4    1  129 1    
     5    2    3 2    
     6    2    4 am   BACKBONE|DICT|INTERRES
     7    4    5 1    
     8    4  130 1    
     9    5    6 1    
    10    5   65 1    
    11    5  131 1    
    12    6    7 1    
    13    6  132 1    
    14    6  133 1    
    15    7    8 1    
    16    8    9 1    
    17    8  134 1    
    18    8  135 1    
    19    9   10 ar   
    20    9   14 ar   
    21   10   11 ar   
    22   10  136 1    
    23   11   12 ar   
    24   11  126 1    
    25   12   13 ar   
    26   12  137 1    
    27   13   14 ar   
    28   13   15 1    
    29   14  138 1    
    30   15   16 1    
    31   15  139 1    
    32   15  140 1    
    33   16   17 1    
    34   17   18 1    
    35   17  141 1    
    36   17  142 1    
    37   18   19 1    
    38   18   67 1    
    39   18  143 1    
    40   19   20 am   BACKBONE|DICT|INTERRES
    41   19  144 1    
    42   20   21 2    
    43   20   22 1    
    44   22   23 1    
    45   22   24 1    
    46   22  145 1    
    47   23  146 1    
    48   23  147 1    
    49   23  148 1    
    50   24   25 am   BACKBONE|DICT|INTERRES
    51   24  149 1    
    52   25   26 2    
    53   25   27 1    
    54   27   28 1    
    55   27   29 1    
    56   27  150 1    
    57   28  151 1    
    58   28  152 1    
    59   28  153 1    
    60   29   30 am   BACKBONE|DICT|INTERRES
    61   29  154 1    
    62   30   31 2    
    63   30   32 1    
    64   32   33 1    
    65   32   34 1    
    66   32  155 1    
    67   33  156 1    
    68   33  157 1    
    69   33  158 1    
    70   34   35 am   BACKBONE|DICT|INTERRES
    71   34  159 1    
    72   35   36 2    
    73   35   37 1    
    74   37   38 1    
    75   37   39 1    
    76   37  160 1    
    77   38  161 1    
    78   38  162 1    
    79   38  163 1    
    80   39   40 am   BACKBONE|DICT|INTERRES
    81   39  164 1    
    82   40   41 2    
    83   40   42 1    
    84   42   43 1    
    85   42   44 1    
    86   42  165 1    
    87   43  166 1    
    88   43  167 1    
    89   43  168 1    
    90   44   45 am   BACKBONE|DICT|INTERRES
    91   44  169 1    
    92   45   46 2    
    93   45   47 1    
    94   47   48 1    
    95   47   49 1    
    96   47  170 1    
    97   48  171 1    
    98   48  172 1    
    99   48  173 1    
   100   49   50 am   BACKBONE|DICT|INTERRES
   101   49  174 1    
   102   50   51 2    
   103   50   52 1    
   104   52   53 1    
   105   52   54 1    
   106   52  175 1    
   107   53  176 1    
   108   53  177 1    
   109   53  178 1    
   110   54   55 am   BACKBONE|DICT|INTERRES
   111   54  179 1    
   112   55   56 2    
   113   55   57 1    
   114   57   58 1    
   115   57   59 1    
   116   57  180 1    
   117   58  181 1    
   118   58  182 1    
   119   58  183 1    
   120   59   60 am   BACKBONE|DICT|INTERRES
   121   59  184 1    
   122   60   61 2    
   123   60   62 1    
   124   62   63 1    
   125   62   64 1    
   126   62  185 1    
   127   63  186 1    
   128   63  187 1    
   129   63  188 1    
   130   64   65 am   BACKBONE|DICT|INTERRES
   131   64  189 1    
   132   65   66 2    
   133   67   68 2    
   134   67   69 am   BACKBONE|DICT|INTERRES
   135   69   70 1    
   136   69  190 1    
   137   70   71 1    
   138   70   72 1    
   139   70  191 1    
   140   71  192 1    
   141   71  193 1    
   142   71  194 1    
   143   72   73 2    
   144   72   74 am   BACKBONE|DICT|INTERRES
   145   74   75 1    
   146   74  195 1    
   147   75   76 1    
   148   75   77 1    
   149   75  196 1    
   150   76  197 1    
   151   76  198 1    
   152   76  199 1    
   153   77   78 2    
   154   77   79 am   BACKBONE|DICT|INTERRES
   155   79   80 1    
   156   79  200 1    
   157   80   81 1    
   158   80   82 1    
   159   80  201 1    
   160   81  202 1    
   161   81  203 1    
   162   81  204 1    
   163   82   83 2    
   164   82   84 am   BACKBONE|DICT|INTERRES
   165   84   85 1    
   166   84  205 1    
   167   85   86 1    
   168   85   87 1    
   169   85  206 1    
   170   86  207 1    
   171   86  208 1    
   172   86  209 1    
   173   87   88 2    
   174   87   89 am   BACKBONE|DICT|INTERRES
   175   89   90 1    
   176   89  210 1    
   177   90   91 1    
   178   90   92 1    
   179   90  211 1    
   180   91  212 1    
   181   91  213 1    
   182   91  214 1    
   183   92   93 2    
   184   92   94 am   BACKBONE|DICT|INTERRES
   185   94   95 1    
   186   94  215 1    
   187   95   96 1    
   188   95   97 1    
   189   95  216 1    
   190   96  217 1    
   191   96  218 1    
   192   96  219 1    
   193   97   98 2    
   194   97   99 am   BACKBONE|DICT|INTERRES
   195   99  100 1    
   196   99  220 1    
   197  100  101 1    
   198  100  102 1    
   199  100  221 1    
   200  101  222 1    
   201  101  223 1    
   202  101  224 1    
   203  102  103 2    
   204  102  104 am   BACKBONE|DICT|INTERRES
   205  104  105 1    
   206  104  225 1    
   207  105  106 1    
   208  105  107 1    
   209  105  226 1    
   210  106  227 1    
   211  106  228 1    
   212  106  229 1    
   213  107  108 2    
   214  107  109 am   BACKBONE|DICT|INTERRES
   215  109  110 1    
   216  109  230 1    
   217  110  111 1    
   218  110  112 1    
   219  110  231 1    
   220  111  232 1    
   221  111  233 1    
   222  111  234 1    
   223  112  113 2    
   224  112  114 am   BACKBONE|DICT|INTERRES
   225  114  115 1    
   226  114  235 1    
   227  115  116 1    
   228  115  117 1    
   229  115  236 1    
   230  116  237 1    
   231  116  238 1    
   232  116  239 1    
   233  117  118 2    
   234  117  119 am   BACKBONE|DICT|INTERRES
   235  119  120 1    
   236  119  240 1    
   237  120  121 1    
   238  120  124 1    
   239  120  241 1    
   240  121  122 am   BACKBONE|DICT|INTERRES
   241  121  123 2    
   242  122  242 1    
   243  122  243 1    
   244  124  125 1    
   245  124  244 1    
   246  124  245 1    
   247  125  126 1    
   248  126  246 1    
   249  126  247 1    
@<TRIPOS>SUBSTRUCTURE
     1 UNK         1 GROUP             0       ****    0 ROOT    
