@<TRIPOS>MOLECULE
3R540
247   249    1
SMALL
USER_CHARGES


@<TRIPOS>ATOM
      1 CA          3.4199  -10.8862  -50.4644 C.3       0 UNK        -0.1800 
      2 C           3.3568  -11.6607  -49.1561 C.2       0 UNK         0.5000 
      3 O           3.8471  -11.1802  -48.1338 O.2       0 UNK        -0.5000 
      4 N           2.7426  -12.8518  -49.1785 N.am      1 UNK        -0.5000 
      5 CA          2.5835  -13.7447  -48.0216 C.3       1 UNK         0.1400 
      6 C6          2.0924  -15.1574  -48.4295 C.3       23 UNK        -0.0398 
      7 S7          0.4892  -15.1537  -49.3129 S.3       23 UNK        -0.2404 
      8 C8          0.8888  -16.0565  -50.8396 C.3       23 UNK        -0.0205 
      9 C9          0.7147  -17.5595  -50.6743 C.ar      23 UNK        -0.0193 
     10 C10        -0.4898  -18.1622  -51.0438 C.ar      23 UNK        -0.1150 
     11 C11        -0.6466  -19.5531  -50.9820 C.ar      23 UNK        -0.0193 
     12 C12         0.4145  -20.3291  -50.5072 C.ar      23 UNK        -0.1150 
     13 C13         1.6147  -19.7397  -50.0904 C.ar      23 UNK        -0.0193 
     14 C14         1.7589  -18.3524  -50.1914 C.ar      23 UNK        -0.1150 
     15 C15         2.7878  -20.5702  -49.5679 C.3       23 UNK        -0.0205 
     16 S16         2.3319  -22.1318  -48.7361 S.3       23 UNK        -0.2404 
     17 C17         1.4133  -21.5173  -47.2845 C.3       23 UNK        -0.0398 
     18 CA          0.5247  -22.6059  -46.6362 C.3       11 UNK         0.1400 
     19 N           0.1488  -22.2493  -45.2642 N.am      11 UNK        -0.5000 
     20 C          -0.4811  -23.0597  -44.4026 C.2       10 UNK         0.5000 
     21 O          -0.8030  -24.2153  -44.6699 O.2       10 UNK        -0.5000 
     22 CA         -0.8725  -22.4698  -43.0370 C.3       10 UNK         0.1400 
     23 CB          0.3409  -22.3943  -42.0991 C.3       10 UNK        -0.1800 
     24 N          -1.4964  -21.1531  -43.1639 N.am      10 UNK        -0.5000 
     25 C          -2.6724  -20.9345  -43.7713 C.2       9 UNK         0.5000 
     26 O          -3.3868  -21.8303  -44.2210 O.2       9 UNK        -0.5000 
     27 CA         -3.1071  -19.4681  -43.9428 C.3       9 UNK         0.1400 
     28 CB         -3.7829  -18.9480  -42.6655 C.3       9 UNK        -0.1800 
     29 N          -1.9994  -18.5840  -44.3066 N.am      9 UNK        -0.5000 
     30 C          -1.2773  -18.6828  -45.4327 C.2       8 UNK         0.5000 
     31 O          -1.4841  -19.5199  -46.3101 O.2       8 UNK        -0.5000 
     32 CA         -0.0833  -17.7217  -45.5685 C.3       8 UNK         0.1400 
     33 CB         -0.5665  -16.3069  -45.9168 C.3       8 UNK        -0.1800 
     34 N           0.7324  -17.6881  -44.3521 N.am      8 UNK        -0.5000 
     35 C           1.3753  -18.7493  -43.8421 C.2       7 UNK         0.5000 
     36 O           1.4157  -19.8503  -44.3889 O.2       7 UNK        -0.5000 
     37 CA          2.0346  -18.5726  -42.4649 C.3       7 UNK         0.1400 
     38 CB          3.4592  -18.0139  -42.6012 C.3       7 UNK        -0.1800 
     39 N           1.2360  -17.7093  -41.5958 N.am      7 UNK        -0.5000 
     40 C           0.0917  -18.0848  -41.0070 C.2       6 UNK         0.5000 
     41 O          -0.3821  -19.2170  -41.1012 O.2       6 UNK        -0.5000 
     42 CA         -0.6703  -17.0057  -40.2127 C.3       6 UNK         0.1400 
     43 CB         -0.1194  -16.8966  -38.7833 C.3       6 UNK        -0.1800 
     44 N          -0.6225  -15.6894  -40.8525 N.am      6 UNK        -0.5000 
     45 C          -1.2047  -15.4006  -42.0244 C.2       5 UNK         0.5000 
     46 O          -1.8958  -16.2015  -42.6527 O.2       5 UNK        -0.5000 
     47 CA         -0.9347  -14.0050  -42.6232 C.3       5 UNK         0.1400 
     48 CB         -2.0205  -13.0128  -42.1831 C.3       5 UNK        -0.1800 
     49 N           0.3858  -13.4395  -42.3223 N.am      5 UNK        -0.5000 
     50 C           1.5630  -14.0354  -42.5593 C.2       4 UNK         0.5000 
     51 O           1.6691  -15.1897  -42.9742 O.2       4 UNK        -0.5000 
     52 CA          2.8126  -13.1706  -42.3396 C.3       4 UNK         0.1400 
     53 CB          4.1250  -13.9627  -42.4814 C.3       4 UNK        -0.1800 
     54 N           2.7801  -12.1107  -43.3380 N.am      4 UNK        -0.5000 
     55 C           2.9517  -10.8030  -43.1104 C.2       3 UNK         0.5000 
     56 O           3.2554  -10.3355  -42.0122 O.2       3 UNK        -0.5000 
     57 CA          2.7278   -9.8473  -44.3037 C.3       3 UNK         0.1400 
     58 CB          4.0719   -9.4462  -44.9297 C.3       3 UNK        -0.1800 
     59 N           1.8709  -10.4123  -45.3492 N.am      3 UNK        -0.5000 
     60 C           0.5738  -10.7197  -45.1986 C.2       2 UNK         0.5000 
     61 O          -0.0782  -10.4362  -44.1934 O.2       2 UNK        -0.5000 
     62 CA         -0.1052  -11.5109  -46.3370 C.3       2 UNK         0.1400 
     63 CB         -1.0108  -10.5888  -47.1668 C.3       2 UNK        -0.1800 
     64 N           0.8169  -12.2050  -47.2426 N.am      2 UNK        -0.5000 
     65 C           1.7107  -13.1445  -46.8970 C.2       1 UNK         0.5000 
     66 O           1.8895  -13.5146  -45.7386 O.2       1 UNK        -0.5000 
     67 C          -0.7064  -22.9490  -47.5044 C.2       11 UNK         0.5000 
     68 O          -0.6888  -23.9518  -48.2201 O.2       11 UNK        -0.5000 
     69 N          -1.7807  -22.1593  -47.3746 N.am      12 UNK        -0.5000 
     70 CA         -3.0660  -22.3818  -48.0387 C.3       12 UNK         0.1400 
     71 CB         -3.9530  -21.1413  -47.8577 C.3       12 UNK        -0.1800 
     72 C          -3.8043  -23.6596  -47.5895 C.2       12 UNK         0.5000 
     73 O          -4.6716  -24.1299  -48.3248 O.2       12 UNK        -0.5000 
     74 N          -3.4508  -24.2063  -46.4200 N.am      13 UNK        -0.5000 
     75 CA         -3.9560  -25.4822  -45.9218 C.3       13 UNK         0.1400 
     76 CB         -4.1422  -25.3950  -44.3982 C.3       13 UNK        -0.1800 
     77 C          -3.0137  -26.6400  -46.2955 C.2       13 UNK         0.5000 
     78 O          -3.4803  -27.6617  -46.8000 O.2       13 UNK        -0.5000 
     79 N          -1.7136  -26.4737  -46.0163 N.am      14 UNK        -0.5000 
     80 CA         -0.6932  -27.5131  -46.1417 C.3       14 UNK         0.1400 
     81 CB          0.5407  -27.1183  -45.3140 C.3       14 UNK        -0.1800 
     82 C          -0.2974  -27.8088  -47.5966 C.2       14 UNK         0.5000 
     83 O          -0.2805  -28.9755  -47.9919 O.2       14 UNK        -0.5000 
     84 N           0.0281  -26.7575  -48.3589 N.am      15 UNK        -0.5000 
     85 CA          0.4109  -26.8569  -49.7669 C.3       15 UNK         0.1400 
     86 CB          1.4874  -25.8074  -50.0907 C.3       15 UNK        -0.1800 
     87 C          -0.8178  -26.6764  -50.6673 C.2       15 UNK         0.5000 
     88 O          -1.0034  -27.4530  -51.6044 O.2       15 UNK        -0.5000 
     89 N          -1.6332  -25.6582  -50.3502 N.am      16 UNK        -0.5000 
     90 CA         -2.8941  -25.2932  -51.0065 C.3       16 UNK         0.1400 
     91 CB         -3.9647  -26.3745  -50.7543 C.3       16 UNK        -0.1800 
     92 C          -2.7489  -24.9335  -52.5013 C.2       16 UNK         0.5000 
     93 O          -3.7041  -25.0927  -53.2634 O.2       16 UNK        -0.5000 
     94 N          -1.5590  -24.4514  -52.8885 N.am      17 UNK        -0.5000 
     95 CA         -1.1492  -24.1140  -54.2523 C.3       17 UNK         0.1400 
     96 CB          0.3479  -23.7591  -54.2347 C.3       17 UNK        -0.1800 
     97 C          -2.0001  -22.9814  -54.8589 C.2       17 UNK         0.5000 
     98 O          -1.6790  -21.8084  -54.6710 O.2       17 UNK        -0.5000 
     99 N          -3.0866  -23.3673  -55.5421 N.am      18 UNK        -0.5000 
    100 CA        -4.1434  -22.5109  -56.0914 C.3       18 UNK         0.1400 
    101 CB        -3.5937  -21.5708  -57.1858 C.3       18 UNK        -0.1800 
    102 C         -4.9411  -21.7620  -55.0019 C.2       18 UNK         0.5000 
    103 O         -5.4236  -20.6562  -55.2457 O.2       18 UNK        -0.5000 
    104 N         -5.0760  -22.3666  -53.8137 N.am      19 UNK        -0.5000 
    105 CA        -5.8572  -21.8131  -52.7078 C.3       19 UNK         0.1400 
    106 CB        -5.4828  -22.5425  -51.4096 C.3       19 UNK        -0.1800 
    107 C         -7.3751  -21.9022  -52.9805 C.2       19 UNK         0.5000 
    108 O         -7.8110  -22.8638  -53.6146 O.2       19 UNK        -0.5000 
    109 N         -8.2001  -20.9538  -52.5114 N.am      20 UNK        -0.5000 
    110 CA        -7.8602  -19.7417  -51.7533 C.3       20 UNK         0.1400 
    111 CB        -9.0564  -19.3890  -50.8550 C.3       20 UNK        -0.1800 
    112 C         -7.4922  -18.5379  -52.6492 C.2       20 UNK         0.5000 
    113 O         -7.1125  -17.4907  -52.1223 O.2       20 UNK        -0.5000 
    114 N         -7.6024  -18.6964  -53.9774 N.am      21 UNK        -0.5000 
    115 CA        -7.3478  -17.6664  -54.9944 C.3       21 UNK         0.1400 
    116 CB        -7.7214  -18.2241  -56.3769 C.3       21 UNK        -0.1800 
    117 C         -5.9105  -17.1021  -55.0025 C.2       21 UNK         0.5000 
    118 O         -5.6988  -15.9967  -55.5032 O.2       21 UNK        -0.5000 
    119 N         -4.9646  -17.8525  -54.4266 N.am      22 UNK        -0.5000 
    120 CA        -3.5811  -17.4499  -54.1379 C.3       22 UNK         0.1400 
    121 C         -3.4224  -16.1955  -53.2229 C.2       22 UNK         0.5000 
    122 N         -4.4243  -15.8149  -52.4366 N.am      22 UNK        -0.7600 
    123 O         -2.3732  -15.5579  -53.2346 O.2       22 UNK        -0.5000 
    124 C124       -2.7620  -18.6525  -53.5995 C.3       23 UNK        -0.0398 
    125 S125       -3.3210  -19.2413  -51.9564 S.3       23 UNK        -0.2404 
    126 C126       -1.9196  -20.2799  -51.4217 C.3       23 UNK        -0.0205 
    127 H127        2.9193   -9.9241  -50.3548 H         1 UNK         0.0600 
    128 H128        2.9412  -11.4283  -51.2803 H         1 UNK         0.0600 
    129 H129        4.4580  -10.7021  -50.7410 H         1 UNK         0.0600 
    130 H130        2.3412  -13.1870  -50.0429 H         1 UNK         0.3000 
    131 H131        3.5783  -13.8695  -47.5882 H         1 UNK         0.0600 
    132 H132        2.8528  -15.6246  -49.0552 H         1 UNK         0.0800 
    133 H133        2.0080  -15.8047  -47.5552 H         1 UNK         0.0800 
    134 H134        0.2283  -15.6976  -51.6310 H         1 UNK         0.0800 
    135 H135        1.9011  -15.8228  -51.1719 H         1 UNK         0.0800 
    136 H136       -1.2906  -17.5316  -51.3987 H         1 UNK         0.1150 
    137 H137        0.2981  -21.4026  -50.4648 H         1 UNK         0.1150 
    138 H138        2.6918  -17.8890  -49.9040 H         1 UNK         0.1150 
    139 H139        3.4395  -20.8066  -50.4097 H         1 UNK         0.0800 
    140 H140        3.3843  -19.9770  -48.8728 H         1 UNK         0.0800 
    141 H141        0.8213  -20.6395  -47.5492 H         1 UNK         0.0800 
    142 H142        2.1592  -21.1716  -46.5681 H         1 UNK         0.0800 
    143 H143        1.1206  -23.5179  -46.5573 H         1 UNK         0.0600 
    144 H144        0.4117  -21.3165  -44.9540 H         1 UNK         0.3000 
    145 H145       -1.6044  -23.1417  -42.5837 H         1 UNK         0.0600 
    146 H146        0.0555  -22.0244  -41.1141 H         1 UNK         0.0600 
    147 H147        0.7859  -23.3802  -41.9599 H         1 UNK         0.0600 
    148 H148        1.1171  -21.7382  -42.4911 H         1 UNK         0.0600 
    149 H149       -0.9944  -20.3673  -42.7668 H         1 UNK         0.3000 
    150 H150       -3.8380  -19.4321  -44.7530 H         1 UNK         0.0600 
    151 H151       -4.6224  -19.5833  -42.3805 H         1 UNK         0.0600 
    152 H152       -4.1717  -17.9397  -42.8087 H         1 UNK         0.0600 
    153 H153       -3.0889  -18.9218  -41.8248 H         1 UNK         0.0600 
    154 H154       -1.7903  -17.8316  -43.6558 H         1 UNK         0.3000 
    155 H155        0.5506  -18.0772  -46.3838 H         1 UNK         0.0600 
    156 H156       -1.0275  -16.2906  -46.9048 H         1 UNK         0.0600 
    157 H157        0.2582  -15.5976  -45.9261 H         1 UNK         0.0600 
    158 H158       -1.3094  -15.9414  -45.2098 H         1 UNK         0.0600 
    159 H159        0.7997  -16.8043  -43.8582 H         1 UNK         0.3000 
    160 H160        2.1068  -19.5565  -41.9973 H         1 UNK         0.0600 
    161 H161        3.4754  -17.0537  -43.1164 H         1 UNK         0.0600 
    162 H162        4.0883  -18.6978  -43.1722 H         1 UNK         0.0600 
    163 H163        3.9265  -17.8799  -41.6257 H         1 UNK         0.0600 
    164 H164        1.5037  -16.7334  -41.5705 H         1 UNK         0.3000 
    165 H165       -1.7158  -17.3156  -40.1520 H         1 UNK         0.0600 
    166 H166       -0.7019  -16.1925  -38.1889 H         1 UNK         0.0600 
    167 H167       -0.1603  -17.8611  -38.2752 H         1 UNK         0.0600 
    168 H168        0.9197  -16.5649  -38.7751 H         1 UNK         0.0600 
    169 H169       -0.0690  -14.9768  -40.4004 H         1 UNK         0.3000 
    170 H170       -0.9920  -14.1047  -43.7084 H         1 UNK         0.0600 
    171 H171       -3.0161  -13.3927  -42.4168 H         1 UNK         0.0600 
    172 H172       -1.9830  -12.8264  -41.1092 H         1 UNK         0.0600 
    173 H173       -1.9120  -12.0562  -42.6948 H         1 UNK         0.0600 
    174 H174        0.3944  -12.4781  -42.0129 H         1 UNK         0.3000 
    175 H175        2.7567  -12.7602  -41.3294 H         1 UNK         0.0600 
    176 H176        4.2286  -14.3939  -43.4782 H         1 UNK         0.0600 
    177 H177        4.9899  -13.3240  -42.3024 H         1 UNK         0.0600 
    178 H178        4.1678  -14.7805  -41.7612 H         1 UNK         0.0600 
    179 H179        2.4941  -12.4172  -44.2650 H         1 UNK         0.3000 
    180 H180        2.2440   -8.9473  -43.9189 H         1 UNK         0.0600 
    181 H181        4.5918  -10.3085  -45.3495 H         1 UNK         0.0600 
    182 H182        4.7306   -8.9935  -44.1874 H         1 UNK         0.0600 
    183 H183        3.9336   -8.7176  -45.7288 H         1 UNK         0.0600 
    184 H184        2.3300  -10.6827  -46.2090 H         1 UNK         0.3000 
    185 H185       -0.7303  -12.2720  -45.8655 H         1 UNK         0.0600 
    186 H186       -1.7361  -10.0770  -46.5326 H         1 UNK         0.0600 
    187 H187       -0.4340   -9.8245  -47.6892 H         1 UNK         0.0600 
    188 H188       -1.5741  -11.1530  -47.9104 H         1 UNK         0.0600 
    189 H189        0.7524  -11.9610  -48.2200 H         1 UNK         0.3000 
    190 H190       -1.7074  -21.3209  -46.8021 H         1 UNK         0.3000 
    191 H191       -2.8650  -22.4990  -49.1033 H         1 UNK         0.0600 
    192 H192       -3.4735  -20.2510  -48.2657 H         1 UNK         0.0600 
    193 H193       -4.9066  -21.2608  -48.3732 H         1 UNK         0.0600 
    194 H194       -4.1679  -20.9544  -46.8054 H         1 UNK         0.0600 
    195 H195       -2.7416  -23.7478  -45.8633 H         1 UNK         0.3000 
    196 H196       -4.9343  -25.6928  -46.3594 H         1 UNK         0.0600 
    197 H197       -4.5305  -26.3325  -43.9983 H         1 UNK         0.0600 
    198 H198       -4.8512  -24.6097  -44.1353 H         1 UNK         0.0600 
    199 H199       -3.2058  -25.1806  -43.8826 H         1 UNK         0.0600 
    200 H200       -1.4123  -25.6045  -45.5783 H         1 UNK         0.3000 
    201 H201       -1.0966  -28.4341  -45.7152 H         1 UNK         0.0600 
    202 H202        0.2839  -26.9901  -44.2623 H         1 UNK         0.0600 
    203 H203        0.9811  -26.1841  -45.6648 H         1 UNK         0.0600 
    204 H204        1.3121  -27.8873  -45.3695 H         1 UNK         0.0600 
    205 H205       -0.0816  -25.8204  -47.9863 H         1 UNK         0.3000 
    206 H206        0.8387  -27.8412  -49.9695 H         1 UNK         0.0600 
    207 H207        2.3661  -25.9379  -49.4590 H         1 UNK         0.0600 
    208 H208        1.8159  -25.8954  -51.1270 H         1 UNK         0.0600 
    209 H209        1.1259  -24.7888  -49.9499 H         1 UNK         0.0600 
    210 H210       -1.3582  -25.0683  -49.5679 H         1 UNK         0.3000 
    211 H211       -3.2287  -24.3793  -50.5210 H         1 UNK         0.0600 
    212 H212       -3.7327  -27.3038  -51.2751 H         1 UNK         0.0600 
    213 H213       -4.9460  -26.0432  -51.0952 H         1 UNK         0.0600 
    214 H214       -4.0534  -26.5985  -49.6909 H         1 UNK         0.0600 
    215 H215       -0.8507  -24.3438  -52.1785 H         1 UNK         0.3000 
    216 H216       -1.2731  -25.0049  -54.8714 H         1 UNK         0.0600 
    217 H217        0.6973  -23.4926  -55.2330 H         1 UNK         0.0600 
    218 H218        0.9493  -24.6026  -53.8949 H         1 UNK         0.0600 
    219 H219        0.5559  -22.9135  -53.5774 H         1 UNK         0.0600 
    220 H220       -3.2827  -24.3591  -55.5740 H         1 UNK         0.3000 
    221 H221       -4.8564  -23.1837  -56.5695 H         1 UNK         0.0600 
    222 H222       -2.9416  -20.8013  -56.7719 H         1 UNK         0.0600 
    223 H223       -3.0282  -22.1244  -57.9351 H         1 UNK         0.0600 
    224 H224       -4.4061  -21.0608  -57.7048 H         1 UNK         0.0600 
    225 H225       -4.6885  -23.2950  -53.6890 H         1 UNK         0.3000 
    226 H226       -5.5730  -20.7683  -52.6107 H         1 UNK         0.0600 
    227 H227       -4.4291  -22.3979  -51.1737 H         1 UNK         0.0600 
    228 H228       -6.0567  -22.1654  -50.5625 H         1 UNK         0.0600 
    229 H229       -5.6723  -23.6140  -51.4806 H         1 UNK         0.0600 
    230 H230       -9.1848  -21.0626  -52.7061 H         1 UNK         0.3000 
    231 H231       -7.0114  -19.9360  -51.0961 H         1 UNK         0.0600 
    232 H232       -9.9475  -19.1603  -51.4411 H         1 UNK         0.0600 
    233 H233       -8.8398  -18.5184  -50.2344 H         1 UNK         0.0600 
    234 H234       -9.2995  -20.2110  -50.1813 H         1 UNK         0.0600 
    235 H235       -7.8903  -19.5994  -54.3256 H         1 UNK         0.3000 
    236 H236       -8.0139  -16.8289  -54.7775 H         1 UNK         0.0600 
    237 H237       -8.7654  -18.5360  -56.4088 H         1 UNK         0.0600 
    238 H238       -7.5854  -17.4695  -57.1528 H         1 UNK         0.0600 
    239 H239       -7.1051  -19.0828  -56.6447 H         1 UNK         0.0600 
    240 H240       -5.2228  -18.7867  -54.1380 H         1 UNK         0.3000 
    241 H241       -3.1460  -17.1706  -55.0990 H         1 UNK         0.0600 
    242 H242       -4.3153  -15.0028  -51.8511 H         1 UNK         0.3800 
    243 H243       -5.2827  -16.3512  -52.4006 H         1 UNK         0.3800 
    244 H244       -2.8344  -19.4839  -54.3007 H         1 UNK         0.0800 
    245 H245       -1.7024  -18.3984  -53.5606 H         1 UNK         0.0800 
    246 H246       -1.6738  -20.9797  -52.2198 H         1 UNK         0.0800 
    247 H247       -2.2668  -20.8820  -50.5843 H         1 UNK         0.0800 
@<TRIPOS>BOND
     1    1    2 1    
     2    1  127 1    
     3    1  128 1    
     4    1  129 1    
     5    2    3 2    
     6    2    4 am   BACKBONE|DICT|INTERRES
     7    4    5 1    
     8    4  130 1    
     9    5    6 1    
    10    5   65 1    
    11    5  131 1    
    12    6    7 1    
    13    6  132 1    
    14    6  133 1    
    15    7    8 1    
    16    8    9 1    
    17    8  134 1    
    18    8  135 1    
    19    9   10 ar   
    20    9   14 ar   
    21   10   11 ar   
    22   10  136 1    
    23   11   12 ar   
    24   11  126 1    
    25   12   13 ar   
    26   12  137 1    
    27   13   14 ar   
    28   13   15 1    
    29   14  138 1    
    30   15   16 1    
    31   15  139 1    
    32   15  140 1    
    33   16   17 1    
    34   17   18 1    
    35   17  141 1    
    36   17  142 1    
    37   18   19 1    
    38   18   67 1    
    39   18  143 1    
    40   19   20 am   BACKBONE|DICT|INTERRES
    41   19  144 1    
    42   20   21 2    
    43   20   22 1    
    44   22   23 1    
    45   22   24 1    
    46   22  145 1    
    47   23  146 1    
    48   23  147 1    
    49   23  148 1    
    50   24   25 am   BACKBONE|DICT|INTERRES
    51   24  149 1    
    52   25   26 2    
    53   25   27 1    
    54   27   28 1    
    55   27   29 1    
    56   27  150 1    
    57   28  151 1    
    58   28  152 1    
    59   28  153 1    
    60   29   30 am   BACKBONE|DICT|INTERRES
    61   29  154 1    
    62   30   31 2    
    63   30   32 1    
    64   32   33 1    
    65   32   34 1    
    66   32  155 1    
    67   33  156 1    
    68   33  157 1    
    69   33  158 1    
    70   34   35 am   BACKBONE|DICT|INTERRES
    71   34  159 1    
    72   35   36 2    
    73   35   37 1    
    74   37   38 1    
    75   37   39 1    
    76   37  160 1    
    77   38  161 1    
    78   38  162 1    
    79   38  163 1    
    80   39   40 am   BACKBONE|DICT|INTERRES
    81   39  164 1    
    82   40   41 2    
    83   40   42 1    
    84   42   43 1    
    85   42   44 1    
    86   42  165 1    
    87   43  166 1    
    88   43  167 1    
    89   43  168 1    
    90   44   45 am   BACKBONE|DICT|INTERRES
    91   44  169 1    
    92   45   46 2    
    93   45   47 1    
    94   47   48 1    
    95   47   49 1    
    96   47  170 1    
    97   48  171 1    
    98   48  172 1    
    99   48  173 1    
   100   49   50 am   BACKBONE|DICT|INTERRES
   101   49  174 1    
   102   50   51 2    
   103   50   52 1    
   104   52   53 1    
   105   52   54 1    
   106   52  175 1    
   107   53  176 1    
   108   53  177 1    
   109   53  178 1    
   110   54   55 am   BACKBONE|DICT|INTERRES
   111   54  179 1    
   112   55   56 2    
   113   55   57 1    
   114   57   58 1    
   115   57   59 1    
   116   57  180 1    
   117   58  181 1    
   118   58  182 1    
   119   58  183 1    
   120   59   60 am   BACKBONE|DICT|INTERRES
   121   59  184 1    
   122   60   61 2    
   123   60   62 1    
   124   62   63 1    
   125   62   64 1    
   126   62  185 1    
   127   63  186 1    
   128   63  187 1    
   129   63  188 1    
   130   64   65 am   BACKBONE|DICT|INTERRES
   131   64  189 1    
   132   65   66 2    
   133   67   68 2    
   134   67   69 am   BACKBONE|DICT|INTERRES
   135   69   70 1    
   136   69  190 1    
   137   70   71 1    
   138   70   72 1    
   139   70  191 1    
   140   71  192 1    
   141   71  193 1    
   142   71  194 1    
   143   72   73 2    
   144   72   74 am   BACKBONE|DICT|INTERRES
   145   74   75 1    
   146   74  195 1    
   147   75   76 1    
   148   75   77 1    
   149   75  196 1    
   150   76  197 1    
   151   76  198 1    
   152   76  199 1    
   153   77   78 2    
   154   77   79 am   BACKBONE|DICT|INTERRES
   155   79   80 1    
   156   79  200 1    
   157   80   81 1    
   158   80   82 1    
   159   80  201 1    
   160   81  202 1    
   161   81  203 1    
   162   81  204 1    
   163   82   83 2    
   164   82   84 am   BACKBONE|DICT|INTERRES
   165   84   85 1    
   166   84  205 1    
   167   85   86 1    
   168   85   87 1    
   169   85  206 1    
   170   86  207 1    
   171   86  208 1    
   172   86  209 1    
   173   87   88 2    
   174   87   89 am   BACKBONE|DICT|INTERRES
   175   89   90 1    
   176   89  210 1    
   177   90   91 1    
   178   90   92 1    
   179   90  211 1    
   180   91  212 1    
   181   91  213 1    
   182   91  214 1    
   183   92   93 2    
   184   92   94 am   BACKBONE|DICT|INTERRES
   185   94   95 1    
   186   94  215 1    
   187   95   96 1    
   188   95   97 1    
   189   95  216 1    
   190   96  217 1    
   191   96  218 1    
   192   96  219 1    
   193   97   98 2    
   194   97   99 am   BACKBONE|DICT|INTERRES
   195   99  100 1    
   196   99  220 1    
   197  100  101 1    
   198  100  102 1    
   199  100  221 1    
   200  101  222 1    
   201  101  223 1    
   202  101  224 1    
   203  102  103 2    
   204  102  104 am   BACKBONE|DICT|INTERRES
   205  104  105 1    
   206  104  225 1    
   207  105  106 1    
   208  105  107 1    
   209  105  226 1    
   210  106  227 1    
   211  106  228 1    
   212  106  229 1    
   213  107  108 2    
   214  107  109 am   BACKBONE|DICT|INTERRES
   215  109  110 1    
   216  109  230 1    
   217  110  111 1    
   218  110  112 1    
   219  110  231 1    
   220  111  232 1    
   221  111  233 1    
   222  111  234 1    
   223  112  113 2    
   224  112  114 am   BACKBONE|DICT|INTERRES
   225  114  115 1    
   226  114  235 1    
   227  115  116 1    
   228  115  117 1    
   229  115  236 1    
   230  116  237 1    
   231  116  238 1    
   232  116  239 1    
   233  117  118 2    
   234  117  119 am   BACKBONE|DICT|INTERRES
   235  119  120 1    
   236  119  240 1    
   237  120  121 1    
   238  120  124 1    
   239  120  241 1    
   240  121  122 am   BACKBONE|DICT|INTERRES
   241  121  123 2    
   242  122  242 1    
   243  122  243 1    
   244  124  125 1    
   245  124  244 1    
   246  124  245 1    
   247  125  126 1    
   248  126  246 1    
   249  126  247 1    
@<TRIPOS>SUBSTRUCTURE
     1 UNK         1 GROUP             0       ****    0 ROOT    
