@<TRIPOS>MOLECULE
3R540
247   249    1
SMALL
USER_CHARGES


@<TRIPOS>ATOM
      1 CA         -3.3389  -11.2815  -48.2332 C.3       0 UNK        -0.1800 
      2 C          -2.4036  -12.4263  -47.8706 C.2       0 UNK         0.5000 
      3 O          -1.9142  -12.4782  -46.7427 O.2       0 UNK        -0.5000 
      4 N          -2.1629  -13.3357  -48.8246 N.am      1 UNK        -0.5000 
      5 CA         -1.2975  -14.5151  -48.7146 C.3       1 UNK         0.1400 
      6 C6         -1.8258  -15.5872  -47.7213 C.3       23 UNK        -0.0398 
      7 S7         -3.4837  -16.1920  -48.2137 S.3       23 UNK        -0.2404 
      8 C8         -3.2819  -18.0084  -48.3398 C.3       23 UNK        -0.0205 
      9 C9         -2.1237  -18.4810  -49.2152 C.ar      23 UNK        -0.0193 
     10 C10        -1.7292  -17.7835  -50.3610 C.ar      23 UNK        -0.1150 
     11 C11        -0.6268  -18.2031  -51.1111 C.ar      23 UNK        -0.0193 
     12 C12         0.0645  -19.3554  -50.7300 C.ar      23 UNK        -0.1150 
     13 C13        -0.3542  -20.0970  -49.6215 C.ar      23 UNK        -0.0193 
     14 C14        -1.4479  -19.6544  -48.8710 C.ar      23 UNK        -0.1150 
     15 C15         0.3318  -21.4104  -49.2812 C.3       23 UNK        -0.0205 
     16 S16         1.6759  -21.2321  -48.0602 S.3       23 UNK        -0.2404 
     17 C17         0.7931  -21.0039  -46.4762 C.3       23 UNK        -0.0398 
     18 CA          0.4902  -22.3149  -45.7196 C.3       11 UNK         0.1400 
     19 N           0.1918  -22.0663  -44.3090 N.am      11 UNK        -0.5000 
     20 C           0.1405  -23.0210  -43.3704 C.2       10 UNK         0.5000 
     21 O           0.3815  -24.2094  -43.5847 O.2       10 UNK        -0.5000 
     22 CA         -0.3043  -22.5730  -41.9692 C.3       10 UNK         0.1400 
     23 CB          0.8491  -21.8956  -41.2130 C.3       10 UNK        -0.1800 
     24 N          -1.4525  -21.6686  -42.0325 N.am      10 UNK        -0.5000 
     25 C          -2.6875  -22.0476  -42.3904 C.2       9 UNK         0.5000 
     26 O          -2.9905  -23.2042  -42.6831 O.2       9 UNK        -0.5000 
     27 CA         -3.7618  -20.9470  -42.4515 C.3       9 UNK         0.1400 
     28 CB         -4.4189  -20.7599  -41.0759 C.3       9 UNK        -0.1800 
     29 N          -3.2549  -19.6570  -42.9226 N.am      9 UNK        -0.5000 
     30 C          -2.7743  -19.4280  -44.1521 C.2       8 UNK         0.5000 
     31 O          -2.6348  -20.2919  -45.0148 O.2       8 UNK        -0.5000 
     32 CA         -2.3319  -17.9906  -44.4547 C.3       8 UNK         0.1400 
     33 CB         -3.5522  -17.0698  -44.6119 C.3       8 UNK        -0.1800 
     34 N          -1.4347  -17.4235  -43.4520 N.am      8 UNK        -0.5000 
     35 C          -0.2900  -17.9552  -43.0034 C.2       7 UNK         0.5000 
     36 O           0.0994  -19.0925  -43.2819 O.2       7 UNK        -0.5000 
     37 CA          0.5738  -17.0097  -42.1445 C.3       7 UNK         0.1400 
     38 CB          1.8628  -17.6767  -41.6337 C.3       7 UNK        -0.1800 
     39 N           0.9079  -15.8010  -42.9090 N.am      7 UNK        -0.5000 
     40 C           0.1028  -14.7338  -43.0446 C.2       6 UNK         0.5000 
     41 O          -0.9813  -14.6501  -42.4649 O.2       6 UNK        -0.5000 
     42 CA          0.5002  -13.6125  -44.0301 C.3       6 UNK         0.1400 
     43 CB          0.4102  -12.2127  -43.3891 C.3       6 UNK        -0.1800 
     44 N           1.7816  -13.8150  -44.7112 N.am      6 UNK        -0.5000 
     45 C           3.0187  -13.7584  -44.1933 C.2       5 UNK         0.5000 
     46 O           3.2647  -13.4633  -43.0231 O.2       5 UNK        -0.5000 
     47 CA          4.1621  -14.1487  -45.1556 C.3       5 UNK         0.1400 
     48 CB          5.4841  -14.4769  -44.4312 C.3       5 UNK        -0.1800 
     49 N           3.7711  -15.2411  -46.0542 N.am      5 UNK        -0.5000 
     50 C           3.3559  -16.4684  -45.6977 C.2       4 UNK         0.5000 
     51 O           3.3580  -16.8710  -44.5360 O.2       4 UNK        -0.5000 
     52 CA          2.7630  -17.3743  -46.7941 C.3       4 UNK         0.1400 
     53 CB          1.2761  -17.6301  -46.5000 C.3       4 UNK        -0.1800 
     54 N           2.8784  -16.7849  -48.1257 N.am      4 UNK        -0.5000 
     55 C           3.9713  -16.8409  -48.8978 C.2       3 UNK         0.5000 
     56 O           4.9808  -17.4847  -48.6112 O.2       3 UNK        -0.5000 
     57 CA          3.9450  -16.0037  -50.1910 C.3       3 UNK         0.1400 
     58 CB          3.6069  -16.8961  -51.3945 C.3       3 UNK        -0.1800 
     59 N           3.0048  -14.8769  -50.1265 N.am      3 UNK        -0.5000 
     60 C           3.1760  -13.7927  -49.3552 C.2       2 UNK         0.5000 
     61 O           4.1481  -13.6337  -48.6170 O.2       2 UNK        -0.5000 
     62 CA          2.0584  -12.7327  -49.3642 C.3       2 UNK         0.1400 
     63 CB          2.2451  -11.7674  -50.5434 C.3       2 UNK        -0.1800 
     64 N           0.7050  -13.2904  -49.4062 N.am      2 UNK        -0.5000 
     65 C           0.1718  -14.0989  -48.4775 C.2       1 UNK         0.5000 
     66 O           0.7851  -14.4813  -47.4785 O.2       1 UNK        -0.5000 
     67 C          -0.6308  -23.1320  -46.3901 C.2       11 UNK         0.5000 
     68 O          -0.3301  -24.1168  -47.0610 O.2       11 UNK        -0.5000 
     69 N          -1.8945  -22.7426  -46.1660 N.am      12 UNK        -0.5000 
     70 CA         -3.0907  -23.3828  -46.7216 C.3       12 UNK         0.1400 
     71 CB         -4.3302  -22.5668  -46.3268 C.3       12 UNK        -0.1800 
     72 C          -3.2761  -24.8550  -46.3088 C.2       12 UNK         0.5000 
     73 O          -3.9091  -25.6099  -47.0480 O.2       12 UNK        -0.5000 
     74 N          -2.7354  -25.2355  -45.1441 N.am      13 UNK        -0.5000 
     75 CA         -2.7030  -26.6144  -44.6625 C.3       13 UNK         0.1400 
     76 CB         -2.4875  -26.6106  -43.1416 C.3       13 UNK        -0.1800 
     77 C          -1.6168  -27.4556  -45.3600 C.2       13 UNK         0.5000 
     78 O          -1.8229  -28.6516  -45.5691 O.2       13 UNK        -0.5000 
     79 N          -0.4814  -26.8278  -45.6954 N.am      14 UNK        -0.5000 
     80 CA          0.6582  -27.4660  -46.3539 C.3       14 UNK         0.1400 
     81 CB          1.9372  -26.6755  -46.0330 C.3       14 UNK        -0.1800 
     82 C           0.4477  -27.5830  -47.8732 C.2       14 UNK         0.5000 
     83 O           0.6253  -28.6646  -48.4349 O.2       14 UNK        -0.5000 
     84 N           0.0593  -26.4694  -48.5009 N.am      15 UNK        -0.5000 
     85 CA         -0.2824  -26.3509  -49.9112 C.3       15 UNK         0.1400 
     86 CB          0.5735  -25.2383  -50.5402 C.3       15 UNK        -0.1800 
     87 C          -1.7795  -26.0293  -49.9697 C.2       15 UNK         0.5000 
     88 O          -2.1536  -24.8757  -49.7603 O.2       15 UNK        -0.5000 
     89 N          -2.5845  -27.0806  -50.1844 N.am      16 UNK        -0.5000 
     90 CA         -4.0471  -27.1565  -50.0857 C.3       16 UNK         0.1400 
     91 CB         -4.5220  -28.4176  -50.8276 C.3       16 UNK        -0.1800 
     92 C          -4.8128  -25.9082  -50.5703 C.2       16 UNK         0.5000 
     93 O          -5.0108  -25.7344  -51.7754 O.2       16 UNK        -0.5000 
     94 N          -5.2119  -25.0673  -49.6069 N.am      17 UNK        -0.5000 
     95 CA         -5.9553  -23.8064  -49.7172 C.3       17 UNK         0.1400 
     96 CB         -7.3432  -24.0237  -50.3502 C.3       17 UNK        -0.1800 
     97 C          -5.1987  -22.6627  -50.4212 C.2       17 UNK         0.5000 
     98 O          -5.1627  -21.5523  -49.8912 O.2       17 UNK        -0.5000 
     99 N          -4.6578  -22.9380  -51.6163 N.am      18 UNK        -0.5000 
    100 CA        -3.9421  -22.0313  -52.5272 C.3       18 UNK         0.1400 
    101 CB        -2.6450  -21.5186  -51.8728 C.3       18 UNK        -0.1800 
    102 C         -4.8002  -20.8721  -53.0874 C.2       18 UNK         0.5000 
    103 O         -4.2552  -19.9498  -53.6969 O.2       18 UNK        -0.5000 
    104 N         -6.1232  -20.9262  -52.8609 N.am      19 UNK        -0.5000 
    105 CA        -7.1730  -19.9897  -53.2905 C.3       19 UNK         0.1400 
    106 CB        -7.3359  -20.0571  -54.8229 C.3       19 UNK        -0.1800 
    107 C         -7.0022  -18.5311  -52.8038 C.2       19 UNK         0.5000 
    108 O         -7.7252  -17.6532  -53.2774 O.2       19 UNK        -0.5000 
    109 N         -6.0403  -18.2906  -51.8982 N.am      20 UNK        -0.5000 
    110 CA        -5.5200  -16.9829  -51.4804 C.3       20 UNK         0.1400 
    111 CB        -6.5510  -16.2283  -50.6177 C.3       20 UNK        -0.1800 
    112 C         -4.9882  -16.1433  -52.6660 C.2       20 UNK         0.5000 
    113 O         -5.0894  -14.9148  -52.6513 O.2       20 UNK        -0.5000 
    114 N         -4.4339  -16.8270  -53.6809 N.am      21 UNK        -0.5000 
    115 CA        -4.0668  -16.2739  -54.9901 C.3       21 UNK         0.1400 
    116 CB        -3.6156  -17.4276  -55.8987 C.3       21 UNK        -0.1800 
    117 C         -2.9974  -15.1638  -54.9639 C.2       21 UNK         0.5000 
    118 O         -2.9149  -14.3826  -55.9126 O.2       21 UNK        -0.5000 
    119 N         -2.2112  -15.1152  -53.8852 N.am      22 UNK        -0.5000 
    120 CA        -1.1753  -14.1111  -53.6142 C.3       22 UNK         0.1400 
    121 C         -1.5880  -13.0964  -52.5034 C.2       22 UNK         0.5000 
    122 N         -2.8611  -12.9934  -52.1347 N.am      22 UNK        -0.7600 
    123 O         -0.7461  -12.3871  -51.9601 O.2       22 UNK        -0.5000 
    124 C124        0.2038  -14.7861  -53.3864 C.3       23 UNK        -0.0398 
    125 S125        0.3222  -15.7342  -51.8360 S.3       23 UNK        -0.2404 
    126 C126       -0.1953  -17.4050  -52.3306 C.3       23 UNK        -0.0205 
    127 H127       -3.7369  -11.3849  -49.2428 H         1 UNK         0.0600 
    128 H128       -2.8089  -10.3311  -48.1715 H         1 UNK         0.0600 
    129 H129       -4.1791  -11.2504  -47.5396 H         1 UNK         0.0600 
    130 H130       -2.6039  -13.2270  -49.7257 H         1 UNK         0.3000 
    131 H131       -1.3161  -14.9692  -49.7022 H         1 UNK         0.0600 
    132 H132       -1.1413  -16.4333  -47.6801 H         1 UNK         0.0800 
    133 H133       -1.8769  -15.1867  -46.7085 H         1 UNK         0.0800 
    134 H134       -3.1687  -18.4098  -47.3332 H         1 UNK         0.0800 
    135 H135       -4.2056  -18.4363  -48.7310 H         1 UNK         0.0800 
    136 H136       -2.2615  -16.8939  -50.6616 H         1 UNK         0.1150 
    137 H137        0.9107  -19.6926  -51.3117 H         1 UNK         0.1150 
    138 H138       -1.7880  -20.2331  -48.0242 H         1 UNK         0.1150 
    139 H139       -0.4084  -22.1360  -48.9472 H         1 UNK         0.0800 
    140 H140        0.7595  -21.8359  -50.1900 H         1 UNK         0.0800 
    141 H141       -0.0996  -20.3935  -46.5986 H         1 UNK         0.0800 
    142 H142        1.4681  -20.4139  -45.8572 H         1 UNK         0.0800 
    143 H143        1.3951  -22.9265  -45.7461 H         1 UNK         0.0600 
    144 H144       -0.0178  -21.1104  -44.0416 H         1 UNK         0.3000 
    145 H145       -0.5998  -23.4636  -41.4101 H         1 UNK         0.0600 
    146 H146        0.5475  -21.6131  -40.2044 H         1 UNK         0.0600 
    147 H147        1.7012  -22.5701  -41.1204 H         1 UNK         0.0600 
    148 H148        1.1981  -20.9972  -41.7227 H         1 UNK         0.0600 
    149 H149       -1.2734  -20.6889  -41.8656 H         1 UNK         0.3000 
    150 H150       -4.5321  -21.2770  -43.1510 H         1 UNK         0.0600 
    151 H151       -5.2432  -20.0482  -41.1257 H         1 UNK         0.0600 
    152 H152       -4.8268  -21.7020  -40.7068 H         1 UNK         0.0600 
    153 H153       -3.7058  -20.3979  -40.3342 H         1 UNK         0.0600 
    154 H154       -3.3040  -18.8846  -42.2747 H         1 UNK         0.3000 
    155 H155       -1.7859  -18.0056  -45.3999 H         1 UNK         0.0600 
    156 H156       -4.1001  -16.9614  -43.6752 H         1 UNK         0.0600 
    157 H157       -4.2499  -17.4606  -45.3535 H         1 UNK         0.0600 
    158 H158       -3.2570  -16.0730  -44.9383 H         1 UNK         0.0600 
    159 H159       -1.6427  -16.4778  -43.1506 H         1 UNK         0.3000 
    160 H160       -0.0157  -16.7311  -41.2686 H         1 UNK         0.0600 
    161 H161        2.4674  -18.0760  -42.4474 H         1 UNK         0.0600 
    162 H162        1.6292  -18.5079  -40.9676 H         1 UNK         0.0600 
    163 H163        2.4774  -16.9725  -41.0728 H         1 UNK         0.0600 
    164 H164        1.7689  -15.8403  -43.4414 H         1 UNK         0.3000 
    165 H165       -0.2477  -13.6489  -44.8235 H         1 UNK         0.0600 
    166 H166        0.6727  -11.4338  -44.1050 H         1 UNK         0.0600 
    167 H167       -0.6047  -12.0067  -43.0473 H         1 UNK         0.0600 
    168 H168        1.0677  -12.1145  -42.5253 H         1 UNK         0.0600 
    169 H169        1.6898  -14.0856  -45.6863 H         1 UNK         0.3000 
    170 H170        4.3390  -13.2780  -45.7884 H         1 UNK         0.0600 
    171 H171        5.8455  -13.6145  -43.8701 H         1 UNK         0.0600 
    172 H172        5.3688  -15.2998  -43.7253 H         1 UNK         0.0600 
    173 H173        6.2641  -14.7509  -45.1415 H         1 UNK         0.0600 
    174 H174        3.7357  -14.9917  -47.0353 H         1 UNK         0.3000 
    175 H175        3.2910  -18.3299  -46.7735 H         1 UNK         0.0600 
    176 H176        0.7275  -16.7063  -46.3303 H         1 UNK         0.0600 
    177 H177        0.7914  -18.1707  -47.3129 H         1 UNK         0.0600 
    178 H178        1.1630  -18.2184  -45.5920 H         1 UNK         0.0600 
    179 H179        2.1076  -16.2032  -48.4224 H         1 UNK         0.3000 
    180 H180        4.9466  -15.5958  -50.3426 H         1 UNK         0.0600 
    181 H181        2.6645  -17.4248  -51.2502 H         1 UNK         0.0600 
    182 H182        4.3794  -17.6510  -51.5449 H         1 UNK         0.0600 
    183 H183        3.5346  -16.3164  -52.3149 H         1 UNK         0.0600 
    184 H184        2.1672  -14.9501  -50.6901 H         1 UNK         0.3000 
    185 H185        2.1446  -12.1591  -48.4390 H         1 UNK         0.0600 
    186 H186        3.2362  -11.3121  -50.5253 H         1 UNK         0.0600 
    187 H187        2.1334  -12.2774  -51.5012 H         1 UNK         0.0600 
    188 H188        1.5149  -10.9585  -50.5097 H         1 UNK         0.0600 
    189 H189        0.1348  -13.0076  -50.1973 H         1 UNK         0.3000 
    190 H190       -2.0634  -21.9022  -45.6156 H         1 UNK         0.3000 
    191 H191       -3.0023  -23.3569  -47.8088 H         1 UNK         0.0600 
    192 H192       -4.3100  -21.5758  -46.7810 H         1 UNK         0.0600 
    193 H193       -5.2497  -23.0536  -46.6491 H         1 UNK         0.0600 
    194 H194       -4.3967  -22.4439  -45.2462 H         1 UNK         0.0600 
    195 H195       -2.2921  -24.5364  -44.5628 H         1 UNK         0.3000 
    196 H196       -3.6695  -27.0806  -44.8658 H         1 UNK         0.0600 
    197 H197       -2.4714  -27.6269  -42.7458 H         1 UNK         0.0600 
    198 H198       -3.2892  -26.0757  -42.6321 H         1 UNK         0.0600 
    199 H199       -1.5441  -26.1357  -42.8692 H         1 UNK         0.0600 
    200 H200       -0.4066  -25.8333  -45.5267 H         1 UNK         0.3000 
    201 H201        0.7801  -28.4742  -45.9520 H         1 UNK         0.0600 
    202 H202        2.1190  -26.6425  -44.9585 H         1 UNK         0.0600 
    203 H203        1.8813  -25.6470  -46.3914 H         1 UNK         0.0600 
    204 H204        2.8088  -27.1384  -46.4973 H         1 UNK         0.0600 
    205 H205       -0.1043  -25.6271  -47.9480 H         1 UNK         0.3000 
    206 H206       -0.0894  -27.2811  -50.4497 H         1 UNK         0.0600 
    207 H207        1.6308  -25.5025  -50.5254 H         1 UNK         0.0600 
    208 H208        0.2916  -25.0681  -51.5798 H         1 UNK         0.0600 
    209 H209        0.4610  -24.2939  -50.0076 H         1 UNK         0.0600 
    210 H210       -2.1330  -27.9700  -50.3392 H         1 UNK         0.3000 
    211 H211       -4.2809  -27.3036  -49.0303 H         1 UNK         0.0600 
    212 H212       -4.2404  -28.3941  -51.8812 H         1 UNK         0.0600 
    213 H213       -5.6075  -28.5146  -50.7801 H         1 UNK         0.0600 
    214 H214       -4.0980  -29.3201  -50.3870 H         1 UNK         0.0600 
    215 H215       -4.8906  -25.2854  -48.6664 H         1 UNK         0.3000 
    216 H216       -6.1260  -23.4792  -48.6925 H         1 UNK         0.0600 
    217 H217       -7.9254  -23.1014  -50.3358 H         1 UNK         0.0600 
    218 H218       -7.9122  -24.7738  -49.8009 H         1 UNK         0.0600 
    219 H219       -7.2764  -24.3495  -51.3885 H         1 UNK         0.0600 
    220 H220       -4.7478  -23.9008  -51.9345 H         1 UNK         0.3000 
    221 H221       -3.6588  -22.6373  -53.3885 H         1 UNK         0.0600 
    222 H222       -2.8572  -20.8291  -51.0565 H         1 UNK         0.0600 
    223 H223       -2.0499  -22.3395  -51.4719 H         1 UNK         0.0600 
    224 H224       -2.0222  -20.9858  -52.5921 H         1 UNK         0.0600 
    225 H225       -6.4498  -21.7161  -52.3240 H         1 UNK         0.3000 
    226 H226       -8.1002  -20.3481  -52.8414 H         1 UNK         0.0600 
    227 H227       -7.4846  -21.0832  -55.1591 H         1 UNK         0.0600 
    228 H228       -8.2013  -19.4821  -55.1543 H         1 UNK         0.0600 
    229 H229       -6.4620  -19.6584  -55.3391 H         1 UNK         0.0600 
    230 H230       -5.5179  -19.0912  -51.5701 H         1 UNK         0.3000 
    231 H231       -4.6555  -17.1907  -50.8521 H         1 UNK         0.0600 
    232 H232       -7.4269  -15.9339  -51.1961 H         1 UNK         0.0600 
    233 H233       -6.8885  -16.8419  -49.7825 H         1 UNK         0.0600 
    234 H234       -6.1165  -15.3213  -50.1954 H         1 UNK         0.0600 
    235 H235       -4.3840  -17.8381  -53.6043 H         1 UNK         0.3000 
    236 H236       -4.9695  -15.8355  -55.4200 H         1 UNK         0.0600 
    237 H237       -4.4077  -18.1669  -56.0196 H         1 UNK         0.0600 
    238 H238       -3.3544  -17.0672  -56.8945 H         1 UNK         0.0600 
    239 H239       -2.7416  -17.9383  -55.4923 H         1 UNK         0.0600 
    240 H240       -2.3828  -15.7786  -53.1458 H         1 UNK         0.3000 
    241 H241       -1.0562  -13.4866  -54.5007 H         1 UNK         0.0600 
    242 H242       -3.5772  -13.5863  -52.5426 H         1 UNK         0.3800 
    243 H243       -3.1321  -12.2542  -51.5095 H         1 UNK         0.3800 
    244 H244        0.4465  -15.4389  -54.2260 H         1 UNK         0.0800 
    245 H245        0.9872  -14.0268  -53.3713 H         1 UNK         0.0800 
    246 H246       -1.0252  -17.3646  -53.0349 H         1 UNK         0.0800 
    247 H247        0.6291  -17.8943  -52.8513 H         1 UNK         0.0800 
@<TRIPOS>BOND
     1    1    2 1    
     2    1  127 1    
     3    1  128 1    
     4    1  129 1    
     5    2    3 2    
     6    2    4 am   BACKBONE|DICT|INTERRES
     7    4    5 1    
     8    4  130 1    
     9    5    6 1    
    10    5   65 1    
    11    5  131 1    
    12    6    7 1    
    13    6  132 1    
    14    6  133 1    
    15    7    8 1    
    16    8    9 1    
    17    8  134 1    
    18    8  135 1    
    19    9   10 ar   
    20    9   14 ar   
    21   10   11 ar   
    22   10  136 1    
    23   11   12 ar   
    24   11  126 1    
    25   12   13 ar   
    26   12  137 1    
    27   13   14 ar   
    28   13   15 1    
    29   14  138 1    
    30   15   16 1    
    31   15  139 1    
    32   15  140 1    
    33   16   17 1    
    34   17   18 1    
    35   17  141 1    
    36   17  142 1    
    37   18   19 1    
    38   18   67 1    
    39   18  143 1    
    40   19   20 am   BACKBONE|DICT|INTERRES
    41   19  144 1    
    42   20   21 2    
    43   20   22 1    
    44   22   23 1    
    45   22   24 1    
    46   22  145 1    
    47   23  146 1    
    48   23  147 1    
    49   23  148 1    
    50   24   25 am   BACKBONE|DICT|INTERRES
    51   24  149 1    
    52   25   26 2    
    53   25   27 1    
    54   27   28 1    
    55   27   29 1    
    56   27  150 1    
    57   28  151 1    
    58   28  152 1    
    59   28  153 1    
    60   29   30 am   BACKBONE|DICT|INTERRES
    61   29  154 1    
    62   30   31 2    
    63   30   32 1    
    64   32   33 1    
    65   32   34 1    
    66   32  155 1    
    67   33  156 1    
    68   33  157 1    
    69   33  158 1    
    70   34   35 am   BACKBONE|DICT|INTERRES
    71   34  159 1    
    72   35   36 2    
    73   35   37 1    
    74   37   38 1    
    75   37   39 1    
    76   37  160 1    
    77   38  161 1    
    78   38  162 1    
    79   38  163 1    
    80   39   40 am   BACKBONE|DICT|INTERRES
    81   39  164 1    
    82   40   41 2    
    83   40   42 1    
    84   42   43 1    
    85   42   44 1    
    86   42  165 1    
    87   43  166 1    
    88   43  167 1    
    89   43  168 1    
    90   44   45 am   BACKBONE|DICT|INTERRES
    91   44  169 1    
    92   45   46 2    
    93   45   47 1    
    94   47   48 1    
    95   47   49 1    
    96   47  170 1    
    97   48  171 1    
    98   48  172 1    
    99   48  173 1    
   100   49   50 am   BACKBONE|DICT|INTERRES
   101   49  174 1    
   102   50   51 2    
   103   50   52 1    
   104   52   53 1    
   105   52   54 1    
   106   52  175 1    
   107   53  176 1    
   108   53  177 1    
   109   53  178 1    
   110   54   55 am   BACKBONE|DICT|INTERRES
   111   54  179 1    
   112   55   56 2    
   113   55   57 1    
   114   57   58 1    
   115   57   59 1    
   116   57  180 1    
   117   58  181 1    
   118   58  182 1    
   119   58  183 1    
   120   59   60 am   BACKBONE|DICT|INTERRES
   121   59  184 1    
   122   60   61 2    
   123   60   62 1    
   124   62   63 1    
   125   62   64 1    
   126   62  185 1    
   127   63  186 1    
   128   63  187 1    
   129   63  188 1    
   130   64   65 am   BACKBONE|DICT|INTERRES
   131   64  189 1    
   132   65   66 2    
   133   67   68 2    
   134   67   69 am   BACKBONE|DICT|INTERRES
   135   69   70 1    
   136   69  190 1    
   137   70   71 1    
   138   70   72 1    
   139   70  191 1    
   140   71  192 1    
   141   71  193 1    
   142   71  194 1    
   143   72   73 2    
   144   72   74 am   BACKBONE|DICT|INTERRES
   145   74   75 1    
   146   74  195 1    
   147   75   76 1    
   148   75   77 1    
   149   75  196 1    
   150   76  197 1    
   151   76  198 1    
   152   76  199 1    
   153   77   78 2    
   154   77   79 am   BACKBONE|DICT|INTERRES
   155   79   80 1    
   156   79  200 1    
   157   80   81 1    
   158   80   82 1    
   159   80  201 1    
   160   81  202 1    
   161   81  203 1    
   162   81  204 1    
   163   82   83 2    
   164   82   84 am   BACKBONE|DICT|INTERRES
   165   84   85 1    
   166   84  205 1    
   167   85   86 1    
   168   85   87 1    
   169   85  206 1    
   170   86  207 1    
   171   86  208 1    
   172   86  209 1    
   173   87   88 2    
   174   87   89 am   BACKBONE|DICT|INTERRES
   175   89   90 1    
   176   89  210 1    
   177   90   91 1    
   178   90   92 1    
   179   90  211 1    
   180   91  212 1    
   181   91  213 1    
   182   91  214 1    
   183   92   93 2    
   184   92   94 am   BACKBONE|DICT|INTERRES
   185   94   95 1    
   186   94  215 1    
   187   95   96 1    
   188   95   97 1    
   189   95  216 1    
   190   96  217 1    
   191   96  218 1    
   192   96  219 1    
   193   97   98 2    
   194   97   99 am   BACKBONE|DICT|INTERRES
   195   99  100 1    
   196   99  220 1    
   197  100  101 1    
   198  100  102 1    
   199  100  221 1    
   200  101  222 1    
   201  101  223 1    
   202  101  224 1    
   203  102  103 2    
   204  102  104 am   BACKBONE|DICT|INTERRES
   205  104  105 1    
   206  104  225 1    
   207  105  106 1    
   208  105  107 1    
   209  105  226 1    
   210  106  227 1    
   211  106  228 1    
   212  106  229 1    
   213  107  108 2    
   214  107  109 am   BACKBONE|DICT|INTERRES
   215  109  110 1    
   216  109  230 1    
   217  110  111 1    
   218  110  112 1    
   219  110  231 1    
   220  111  232 1    
   221  111  233 1    
   222  111  234 1    
   223  112  113 2    
   224  112  114 am   BACKBONE|DICT|INTERRES
   225  114  115 1    
   226  114  235 1    
   227  115  116 1    
   228  115  117 1    
   229  115  236 1    
   230  116  237 1    
   231  116  238 1    
   232  116  239 1    
   233  117  118 2    
   234  117  119 am   BACKBONE|DICT|INTERRES
   235  119  120 1    
   236  119  240 1    
   237  120  121 1    
   238  120  124 1    
   239  120  241 1    
   240  121  122 am   BACKBONE|DICT|INTERRES
   241  121  123 2    
   242  122  242 1    
   243  122  243 1    
   244  124  125 1    
   245  124  244 1    
   246  124  245 1    
   247  125  126 1    
   248  126  246 1    
   249  126  247 1    
@<TRIPOS>SUBSTRUCTURE
     1 UNK         1 GROUP             0       ****    0 ROOT    
