@<TRIPOS>MOLECULE
3R540
247   249    1
SMALL
USER_CHARGES


@<TRIPOS>ATOM
      1 CA          1.9927  -17.4012  -51.9116 C.3       0 UNK        -0.1800 
      2 C           2.3486  -16.4907  -50.7473 C.2       0 UNK         0.5000 
      3 O           3.1164  -16.8888  -49.8719 O.2       0 UNK        -0.5000 
      4 N           1.8288  -15.2549  -50.7477 N.am      1 UNK        -0.5000 
      5 CA          2.0153  -14.2670  -49.6718 C.3       1 UNK         0.1400 
      6 C6          0.9401  -13.1446  -49.7152 C.3       23 UNK        -0.0398 
      7 S7          0.3375  -12.7075  -48.0435 S.3       23 UNK        -0.2404 
      8 C8         -1.2381  -13.6276  -47.9246 C.3       23 UNK        -0.0205 
      9 C9         -1.0979  -15.0966  -48.3040 C.ar      23 UNK        -0.0193 
     10 C10        -1.7899  -15.6099  -49.4069 C.ar      23 UNK        -0.1150 
     11 C11        -1.6087  -16.9388  -49.7998 C.ar      23 UNK        -0.0193 
     12 C12        -0.7262  -17.7491  -49.0846 C.ar      23 UNK        -0.1150 
     13 C13        -0.0406  -17.2568  -47.9721 C.ar      23 UNK        -0.0193 
     14 C14        -0.2492  -15.9349  -47.5745 C.ar      23 UNK        -0.1150 
     15 C15         0.9613  -18.1367  -47.2363 C.3       23 UNK        -0.0205 
     16 S16         0.3574  -18.6910  -45.6097 S.3       23 UNK        -0.2404 
     17 C17        -1.0702  -19.7275  -46.0692 C.3       23 UNK        -0.0398 
     18 CA         -0.7711  -21.2417  -46.0034 C.3       11 UNK         0.1400 
     19 N          -0.5018  -21.6958  -44.6329 N.am      11 UNK        -0.5000 
     20 C          -0.1891  -22.9476  -44.2639 C.2       10 UNK         0.5000 
     21 O          -0.1467  -23.9048  -45.0376 O.2       10 UNK        -0.5000 
     22 CA          0.0677  -23.1755  -42.7683 C.3       10 UNK         0.1400 
     23 CB          1.4049  -22.5549  -42.3329 C.3       10 UNK        -0.1800 
     24 N          -1.0258  -22.6160  -41.9780 N.am      10 UNK        -0.5000 
     25 C          -2.1820  -23.2519  -41.7414 C.2       9 UNK         0.5000 
     26 O          -2.4055  -24.4134  -42.0838 O.2       9 UNK        -0.5000 
     27 CA         -3.2849  -22.4580  -41.0134 C.3       9 UNK         0.1400 
     28 CB         -3.2058  -22.6937  -39.4975 C.3       9 UNK        -0.1800 
     29 N          -3.2438  -21.0181  -41.2761 N.am      9 UNK        -0.5000 
     30 C          -3.4663  -20.4549  -42.4714 C.2       8 UNK         0.5000 
     31 O          -3.7292  -21.0897  -43.4912 O.2       8 UNK        -0.5000 
     32 CA         -3.3142  -18.9261  -42.5541 C.3       8 UNK         0.1400 
     33 CB         -4.6233  -18.2303  -42.1544 C.3       8 UNK        -0.1800 
     34 N          -2.2121  -18.3781  -41.7570 N.am      8 UNK        -0.5000 
     35 C          -0.9266  -18.7538  -41.8294 C.2       7 UNK         0.5000 
     36 O          -0.5343  -19.7163  -42.4889 O.2       7 UNK        -0.5000 
     37 CA          0.0880  -17.8856  -41.0569 C.3       7 UNK         0.1400 
     38 CB          1.5234  -17.9744  -41.6189 C.3       7 UNK        -0.1800 
     39 N          -0.3374  -16.4877  -40.8727 N.am      7 UNK        -0.5000 
     40 C          -0.5973  -15.5100  -41.7593 C.2       6 UNK         0.5000 
     41 O          -0.9782  -14.4094  -41.3636 O.2       6 UNK        -0.5000 
     42 CA         -0.4292  -15.7392  -43.2798 C.3       6 UNK         0.1400 
     43 CB         -1.7196  -15.4139  -44.0610 C.3       6 UNK        -0.1800 
     44 N           0.7446  -15.0256  -43.7931 N.am      6 UNK        -0.5000 
     45 C           0.9214  -13.7090  -43.9837 C.2       5 UNK         0.5000 
     46 O           0.0323  -12.8647  -43.8711 O.2       5 UNK        -0.5000 
     47 CA          2.3488  -13.2366  -44.3428 C.3       5 UNK         0.1400 
     48 CB          2.8410  -12.1750  -43.3437 C.3       5 UNK        -0.1800 
     49 N           3.3487  -14.3106  -44.3975 N.am      5 UNK        -0.5000 
     50 C           3.5230  -15.1273  -45.4414 C.2       4 UNK         0.5000 
     51 O           2.8007  -15.1249  -46.4359 O.2       4 UNK        -0.5000 
     52 CA          4.6761  -16.1323  -45.3533 C.3       4 UNK         0.1400 
     53 CB          4.2392  -17.4105  -44.6140 C.3       4 UNK        -0.1800 
     54 N           5.0941  -16.4495  -46.7135 N.am      4 UNK        -0.5000 
     55 C           6.2790  -16.9496  -47.0757 C.2       3 UNK         0.5000 
     56 O           7.1696  -17.2494  -46.2791 O.2       3 UNK        -0.5000 
     57 CA          6.5164  -17.1322  -48.5842 C.3       3 UNK         0.1400 
     58 CB          5.9645  -18.4864  -49.0570 C.3       3 UNK        -0.1800 
     59 N           5.9179  -16.0540  -49.3760 N.am      3 UNK        -0.5000 
     60 C           6.4948  -14.8566  -49.5690 C.2       2 UNK         0.5000 
     61 O           7.5803  -14.5419  -49.0794 O.2       2 UNK        -0.5000 
     62 CA          5.7641  -13.8404  -50.4721 C.3       2 UNK         0.1400 
     63 CB          6.3253  -13.8954  -51.9013 C.3       2 UNK        -0.1800 
     64 N           4.3220  -14.0666  -50.5244 N.am      2 UNK        -0.5000 
     65 C           3.4600  -13.7175  -49.5602 C.2       1 UNK         0.5000 
     66 O           3.7794  -13.0105  -48.6040 O.2       1 UNK        -0.5000 
     67 C          -1.9056  -22.0237  -46.6959 C.2       11 UNK         0.5000 
     68 O          -1.8333  -22.2431  -47.9063 O.2       11 UNK        -0.5000 
     69 N          -2.9153  -22.4511  -45.9247 N.am      12 UNK        -0.5000 
     70 CA         -4.0319  -23.2841  -46.3707 C.3       12 UNK         0.1400 
     71 CB         -4.9640  -23.5619  -45.1817 C.3       12 UNK        -0.1800 
     72 C          -3.6036  -24.6081  -47.0282 C.2       12 UNK         0.5000 
     73 O          -4.2454  -25.0320  -47.9892 O.2       12 UNK        -0.5000 
     74 N          -2.5277  -25.2139  -46.5111 N.am      13 UNK        -0.5000 
     75 CA         -1.9689  -26.4702  -47.0014 C.3       13 UNK         0.1400 
     76 CB         -1.6108  -27.3587  -45.7995 C.3       13 UNK        -0.1800 
     77 C          -0.7310  -26.2321  -47.8792 C.2       13 UNK         0.5000 
     78 O          -0.6133  -26.8478  -48.9387 O.2       13 UNK        -0.5000 
     79 N           0.1768  -25.3588  -47.4222 N.am      14 UNK        -0.5000 
     80 CA          1.4897  -25.1381  -48.0299 C.3       14 UNK         0.1400 
     81 CB          2.3968  -24.4234  -47.0158 C.3       14 UNK        -0.1800 
     82 C           1.4433  -24.3453  -49.3464 C.2       14 UNK         0.5000 
     83 O           2.2980  -24.5622  -50.2063 O.2       14 UNK        -0.5000 
     84 N           0.4709  -23.4348  -49.4715 N.am      15 UNK        -0.5000 
     85 CA          0.3477  -22.4993  -50.5909 C.3       15 UNK         0.1400 
     86 CB          0.7238  -21.0992  -50.0831 C.3       15 UNK        -0.1800 
     87 C          -1.0537  -22.5197  -51.2290 C.2       15 UNK         0.5000 
     88 O          -1.3144  -21.7169  -52.1250 O.2       15 UNK        -0.5000 
     89 N          -1.9238  -23.4315  -50.7672 N.am      16 UNK        -0.5000 
     90 CA         -3.3067  -23.6429  -51.2078 C.3       16 UNK         0.1400 
     91 CB         -3.3415  -24.2081  -52.6424 C.3       16 UNK        -0.1800 
     92 C          -4.2119  -22.4054  -51.0239 C.2       16 UNK         0.5000 
     93 O          -5.1182  -22.1731  -51.8279 O.2       16 UNK        -0.5000 
     94 N          -3.9831  -21.6363  -49.9478 N.am      17 UNK        -0.5000 
     95 CA         -4.7535  -20.4287  -49.6261 C.3       17 UNK         0.1400 
     96 CB         -4.1025  -19.6951  -48.4470 C.3       17 UNK        -0.1800 
     97 C          -6.2440  -20.7017  -49.3414 C.2       17 UNK         0.5000 
     98 O          -7.0752  -19.8287  -49.5873 O.2       17 UNK        -0.5000 
     99 N          -6.5647  -21.9242  -48.8931 N.am      18 UNK        -0.5000 
    100 CA        -7.9299  -22.4131  -48.6847 C.3       18 UNK         0.1400 
    101 CB        -7.8734  -23.7307  -47.8983 C.3       18 UNK        -0.1800 
    102 C         -8.7208  -22.5979  -49.9960 C.2       18 UNK         0.5000 
    103 O         -9.9501  -22.5370  -49.9718 O.2       18 UNK        -0.5000 
    104 N         -8.0080  -22.7915  -51.1147 N.am      19 UNK        -0.5000 
    105 CA        -8.5666  -22.8498  -52.4665 C.3       19 UNK         0.1400 
    106 CB        -7.7557  -23.8658  -53.2893 C.3       19 UNK        -0.1800 
    107 C         -8.5700  -21.4670  -53.1520 C.2       19 UNK         0.5000 
    108 O         -8.9893  -21.3745  -54.3063 O.2       19 UNK        -0.5000 
    109 N         -8.0900  -20.4283  -52.4468 N.am      20 UNK        -0.5000 
    110 CA        -7.9063  -19.0457  -52.8990 C.3       20 UNK         0.1400 
    111 CB        -9.2645  -18.3728  -53.1871 C.3       20 UNK        -0.1800 
    112 C         -6.9096  -18.9292  -54.0711 C.2       20 UNK         0.5000 
    113 O         -7.0902  -18.0894  -54.9555 O.2       20 UNK        -0.5000 
    114 N         -5.8629  -19.7701  -54.0514 N.am      21 UNK        -0.5000 
    115 CA        -4.8569  -19.9026  -55.1114 C.3       21 UNK         0.1400 
    116 CB        -3.8964  -21.0415  -54.7425 C.3       21 UNK        -0.1800 
    117 C         -4.0711  -18.6141  -55.4307 C.2       21 UNK         0.5000 
    118 O         -3.6027  -18.4593  -56.5596 O.2       21 UNK        -0.5000 
    119 N         -3.9617  -17.7105  -54.4491 N.am      22 UNK        -0.5000 
    120 CA        -3.3618  -16.3743  -54.6032 C.3       22 UNK         0.1400 
    121 C         -4.3077  -15.3223  -55.2574 C.2       22 UNK         0.5000 
    122 N         -5.5739  -15.6230  -55.5255 N.am      22 UNK        -0.7600 
    123 O         -3.8798  -14.2062  -55.5389 O.2       22 UNK        -0.5000 
    124 C124       -2.7711  -15.8419  -53.2712 C.3       23 UNK        -0.0398 
    125 S125       -1.5428  -16.9890  -52.5560 S.3       23 UNK        -0.2404 
    126 C126       -2.3426  -17.5044  -51.0052 C.3       23 UNK        -0.0205 
    127 H127        1.5640  -16.8422  -52.7434 H         1 UNK         0.0600 
    128 H128        1.2674  -18.1475  -51.5901 H         1 UNK         0.0600 
    129 H129        2.8811  -17.9189  -52.2730 H         1 UNK         0.0600 
    130 H130        1.2116  -14.9813  -51.4986 H         1 UNK         0.3000 
    131 H131        1.8676  -14.8318  -48.7538 H         1 UNK         0.0600 
    132 H132        0.0803  -13.4512  -50.3122 H         1 UNK         0.0800 
    133 H133        1.3199  -12.2448  -50.2022 H         1 UNK         0.0800 
    134 H134       -1.6088  -13.5586  -46.9010 H         1 UNK         0.0800 
    135 H135       -1.9798  -13.1352  -48.5551 H         1 UNK         0.0800 
    136 H136       -2.4517  -14.9724  -49.9758 H         1 UNK         0.1150 
    137 H137       -0.5701  -18.7646  -49.4062 H         1 UNK         0.1150 
    138 H138        0.2888  -15.5417  -46.7240 H         1 UNK         0.1150 
    139 H139        1.2274  -19.0070  -47.8373 H         1 UNK         0.0800 
    140 H140        1.8867  -17.5766  -47.0991 H         1 UNK         0.0800 
    141 H141       -1.3966  -19.4453  -47.0676 H         1 UNK         0.0800 
    142 H142       -1.8993  -19.4770  -45.4078 H         1 UNK         0.0800 
    143 H143        0.1338  -21.4344  -46.5834 H         1 UNK         0.0600 
    144 H144       -0.5079  -20.9717  -43.9186 H         1 UNK         0.3000 
    145 H145        0.1282  -24.2521  -42.5943 H         1 UNK         0.0600 
    146 H146        1.5962  -22.7368  -41.2754 H         1 UNK         0.0600 
    147 H147        2.2336  -22.9901  -42.8928 H         1 UNK         0.0600 
    148 H148        1.4325  -21.4775  -42.4964 H         1 UNK         0.0600 
    149 H149       -0.9478  -21.6363  -41.7345 H         1 UNK         0.3000 
    150 H150       -4.2466  -22.8348  -41.3683 H         1 UNK         0.0600 
    151 H151       -3.2599  -23.7580  -39.2643 H         1 UNK         0.0600 
    152 H152       -4.0315  -22.2066  -38.9784 H         1 UNK         0.0600 
    153 H153       -2.2732  -22.3129  -39.0791 H         1 UNK         0.0600 
    154 H154       -3.0173  -20.4178  -40.4970 H         1 UNK         0.3000 
    155 H155       -3.1101  -18.6766  -43.5961 H         1 UNK         0.0600 
    156 H156       -4.5652  -17.1542  -42.3188 H         1 UNK         0.0600 
    157 H157       -4.8641  -18.3975  -41.1039 H         1 UNK         0.0600 
    158 H158       -5.4604  -18.6025  -42.7467 H         1 UNK         0.0600 
    159 H159       -2.4402  -17.5926  -41.1648 H         1 UNK         0.3000 
    160 H160        0.1184  -18.3109  -40.0528 H         1 UNK         0.0600 
    161 H161        1.5881  -17.7054  -42.6715 H         1 UNK         0.0600 
    162 H162        1.9062  -18.9920  -41.5322 H         1 UNK         0.0600 
    163 H163        2.2051  -17.3288  -41.0654 H         1 UNK         0.0600 
    164 H164       -0.4707  -16.2414  -39.9021 H         1 UNK         0.3000 
    165 H165       -0.2309  -16.7846  -43.4832 H         1 UNK         0.0600 
    166 H166       -2.0455  -14.3836  -43.9198 H         1 UNK         0.0600 
    167 H167       -1.5892  -15.5821  -45.1286 H         1 UNK         0.0600 
    168 H168       -2.5379  -16.0554  -43.7333 H         1 UNK         0.0600 
    169 H169        1.5613  -15.6011  -43.9335 H         1 UNK         0.3000 
    170 H170        2.2875  -12.7675  -45.3277 H         1 UNK         0.0600 
    171 H171        2.1674  -11.3173  -43.3152 H         1 UNK         0.0600 
    172 H172        2.9051  -12.5759  -42.3313 H         1 UNK         0.0600 
    173 H173        3.8262  -11.7988  -43.6203 H         1 UNK         0.0600 
    174 H174        3.9681  -14.3853  -43.6029 H         1 UNK         0.3000 
    175 H175        5.5081  -15.6641  -44.8230 H         1 UNK         0.0600 
    176 H176        3.4055  -17.9016  -45.1169 H         1 UNK         0.0600 
    177 H177        5.0559  -18.1290  -44.5451 H         1 UNK         0.0600 
    178 H178        3.9231  -17.1848  -43.5952 H         1 UNK         0.0600 
    179 H179        4.4159  -16.1980  -47.4235 H         1 UNK         0.3000 
    180 H180        7.5951  -17.1370  -48.7550 H         1 UNK         0.0600 
    181 H181        4.8949  -18.5780  -48.8664 H         1 UNK         0.0600 
    182 H182        6.4586  -19.3086  -48.5380 H         1 UNK         0.0600 
    183 H183        6.1286  -18.6297  -50.1250 H         1 UNK         0.0600 
    184 H184        4.9950  -16.2371  -49.7576 H         1 UNK         0.3000 
    185 H185        5.9526  -12.8421  -50.0710 H         1 UNK         0.0600 
    186 H186        7.3990  -13.7032  -51.9067 H         1 UNK         0.0600 
    187 H187        6.1642  -14.8716  -52.3605 H         1 UNK         0.0600 
    188 H188        5.8587  -13.1432  -52.5376 H         1 UNK         0.0600 
    189 H189        3.9771  -14.6396  -51.2804 H         1 UNK         0.3000 
    190 H190       -2.9434  -22.1551  -44.9533 H         1 UNK         0.3000 
    191 H191       -4.5881  -22.7158  -47.1153 H         1 UNK         0.0600 
    192 H192       -4.4172  -23.9711  -44.3311 H         1 UNK         0.0600 
    193 H193       -5.7420  -24.2798  -45.4428 H         1 UNK         0.0600 
    194 H194       -5.4626  -22.6502  -44.8526 H         1 UNK         0.0600 
    195 H195       -2.0291  -24.7587  -45.7564 H         1 UNK         0.3000 
    196 H196       -2.7074  -27.0050  -47.6026 H         1 UNK         0.0600 
    197 H197       -1.1811  -28.3062  -46.1272 H         1 UNK         0.0600 
    198 H198       -2.4956  -27.5910  -45.2066 H         1 UNK         0.0600 
    199 H199       -0.8858  -26.8777  -45.1413 H         1 UNK         0.0600 
    200 H200        0.0097  -24.8826  -46.5376 H         1 UNK         0.3000 
    201 H201        1.9308  -26.1133  -48.2477 H         1 UNK         0.0600 
    202 H202        2.4838  -24.9951  -46.0916 H         1 UNK         0.0600 
    203 H203        2.0150  -23.4335  -46.7623 H         1 UNK         0.0600 
    204 H204        3.4038  -24.2942  -47.4144 H         1 UNK         0.0600 
    205 H205       -0.1946  -23.3113  -48.7173 H         1 UNK         0.3000 
    206 H206        1.0384  -22.7636  -51.3939 H         1 UNK         0.0600 
    207 H207        1.7711  -21.0582  -49.7830 H         1 UNK         0.0600 
    208 H208        0.5775  -20.3411  -50.8528 H         1 UNK         0.0600 
    209 H209        0.1205  -20.8273  -49.2182 H         1 UNK         0.0600 
    210 H210       -1.6047  -24.0402  -50.0281 H         1 UNK         0.3000 
    211 H211       -3.7198  -24.4091  -50.5515 H         1 UNK         0.0600 
    212 H212       -2.9510  -23.4956  -53.3685 H         1 UNK         0.0600 
    213 H213       -4.3591  -24.4595  -52.9434 H         1 UNK         0.0600 
    214 H214       -2.7490  -25.1197  -52.7187 H         1 UNK         0.0600 
    215 H215       -3.2097  -21.8728  -49.3336 H         1 UNK         0.3000 
    216 H216       -4.7061  -19.7718  -50.4972 H         1 UNK         0.0600 
    217 H217       -3.0538  -19.4889  -48.6518 H         1 UNK         0.0600 
    218 H218       -4.1647  -20.2719  -47.5247 H         1 UNK         0.0600 
    219 H219       -4.5912  -18.7369  -48.2663 H         1 UNK         0.0600 
    220 H220       -5.8216  -22.5926  -48.7575 H         1 UNK         0.3000 
    221 H221       -8.4667  -21.6777  -48.0816 H         1 UNK         0.0600 
    222 H222       -7.2757  -24.4844  -48.4129 H         1 UNK         0.0600 
    223 H223       -7.4443  -23.5755  -46.9096 H         1 UNK         0.0600 
    224 H224       -8.8720  -24.1449  -47.7529 H         1 UNK         0.0600 
    225 H225       -6.9963  -22.7889  -51.0626 H         1 UNK         0.3000 
    226 H226       -9.6009  -23.1974  -52.4256 H         1 UNK         0.0600 
    227 H227       -7.7281  -24.8394  -52.7998 H         1 UNK         0.0600 
    228 H228       -8.1983  -24.0122  -54.2753 H         1 UNK         0.0600 
    229 H229       -6.7277  -23.5361  -53.4405 H         1 UNK         0.0600 
    230 H230       -7.7904  -20.6054  -51.4965 H         1 UNK         0.3000 
    231 H231       -7.4497  -18.5121  -52.0644 H         1 UNK         0.0600 
    232 H232       -9.1389  -17.3068  -53.3804 H         1 UNK         0.0600 
    233 H233       -9.9399  -18.4694  -52.3370 H         1 UNK         0.0600 
    234 H234       -9.7567  -18.8058  -54.0582 H         1 UNK         0.0600 
    235 H235       -5.7951  -20.4375  -53.2933 H         1 UNK         0.3000 
    236 H236       -5.3858  -20.1879  -56.0230 H         1 UNK         0.0600 
    237 H237       -4.4325  -21.9838  -54.6275 H         1 UNK         0.0600 
    238 H238       -3.1421  -21.1892  -55.5164 H         1 UNK         0.0600 
    239 H239       -3.3727  -20.8363  -53.8079 H         1 UNK         0.0600 
    240 H240       -4.3753  -17.9199  -53.5543 H         1 UNK         0.3000 
    241 H241       -2.5240  -16.4716  -55.2965 H         1 UNK         0.0600 
    242 H242       -5.9606  -16.5387  -55.3174 H         1 UNK         0.3800 
    243 H243       -6.1627  -14.9268  -55.9542 H         1 UNK         0.3800 
    244 H244       -2.2627  -14.8904  -53.4368 H         1 UNK         0.0800 
    245 H245       -3.5664  -15.6325  -52.5551 H         1 UNK         0.0800 
    246 H246       -2.3404  -18.5953  -50.9706 H         1 UNK         0.0800 
    247 H247       -3.3914  -17.2087  -50.9736 H         1 UNK         0.0800 
@<TRIPOS>BOND
     1    1    2 1    
     2    1  127 1    
     3    1  128 1    
     4    1  129 1    
     5    2    3 2    
     6    2    4 am   BACKBONE|DICT|INTERRES
     7    4    5 1    
     8    4  130 1    
     9    5    6 1    
    10    5   65 1    
    11    5  131 1    
    12    6    7 1    
    13    6  132 1    
    14    6  133 1    
    15    7    8 1    
    16    8    9 1    
    17    8  134 1    
    18    8  135 1    
    19    9   10 ar   
    20    9   14 ar   
    21   10   11 ar   
    22   10  136 1    
    23   11   12 ar   
    24   11  126 1    
    25   12   13 ar   
    26   12  137 1    
    27   13   14 ar   
    28   13   15 1    
    29   14  138 1    
    30   15   16 1    
    31   15  139 1    
    32   15  140 1    
    33   16   17 1    
    34   17   18 1    
    35   17  141 1    
    36   17  142 1    
    37   18   19 1    
    38   18   67 1    
    39   18  143 1    
    40   19   20 am   BACKBONE|DICT|INTERRES
    41   19  144 1    
    42   20   21 2    
    43   20   22 1    
    44   22   23 1    
    45   22   24 1    
    46   22  145 1    
    47   23  146 1    
    48   23  147 1    
    49   23  148 1    
    50   24   25 am   BACKBONE|DICT|INTERRES
    51   24  149 1    
    52   25   26 2    
    53   25   27 1    
    54   27   28 1    
    55   27   29 1    
    56   27  150 1    
    57   28  151 1    
    58   28  152 1    
    59   28  153 1    
    60   29   30 am   BACKBONE|DICT|INTERRES
    61   29  154 1    
    62   30   31 2    
    63   30   32 1    
    64   32   33 1    
    65   32   34 1    
    66   32  155 1    
    67   33  156 1    
    68   33  157 1    
    69   33  158 1    
    70   34   35 am   BACKBONE|DICT|INTERRES
    71   34  159 1    
    72   35   36 2    
    73   35   37 1    
    74   37   38 1    
    75   37   39 1    
    76   37  160 1    
    77   38  161 1    
    78   38  162 1    
    79   38  163 1    
    80   39   40 am   BACKBONE|DICT|INTERRES
    81   39  164 1    
    82   40   41 2    
    83   40   42 1    
    84   42   43 1    
    85   42   44 1    
    86   42  165 1    
    87   43  166 1    
    88   43  167 1    
    89   43  168 1    
    90   44   45 am   BACKBONE|DICT|INTERRES
    91   44  169 1    
    92   45   46 2    
    93   45   47 1    
    94   47   48 1    
    95   47   49 1    
    96   47  170 1    
    97   48  171 1    
    98   48  172 1    
    99   48  173 1    
   100   49   50 am   BACKBONE|DICT|INTERRES
   101   49  174 1    
   102   50   51 2    
   103   50   52 1    
   104   52   53 1    
   105   52   54 1    
   106   52  175 1    
   107   53  176 1    
   108   53  177 1    
   109   53  178 1    
   110   54   55 am   BACKBONE|DICT|INTERRES
   111   54  179 1    
   112   55   56 2    
   113   55   57 1    
   114   57   58 1    
   115   57   59 1    
   116   57  180 1    
   117   58  181 1    
   118   58  182 1    
   119   58  183 1    
   120   59   60 am   BACKBONE|DICT|INTERRES
   121   59  184 1    
   122   60   61 2    
   123   60   62 1    
   124   62   63 1    
   125   62   64 1    
   126   62  185 1    
   127   63  186 1    
   128   63  187 1    
   129   63  188 1    
   130   64   65 am   BACKBONE|DICT|INTERRES
   131   64  189 1    
   132   65   66 2    
   133   67   68 2    
   134   67   69 am   BACKBONE|DICT|INTERRES
   135   69   70 1    
   136   69  190 1    
   137   70   71 1    
   138   70   72 1    
   139   70  191 1    
   140   71  192 1    
   141   71  193 1    
   142   71  194 1    
   143   72   73 2    
   144   72   74 am   BACKBONE|DICT|INTERRES
   145   74   75 1    
   146   74  195 1    
   147   75   76 1    
   148   75   77 1    
   149   75  196 1    
   150   76  197 1    
   151   76  198 1    
   152   76  199 1    
   153   77   78 2    
   154   77   79 am   BACKBONE|DICT|INTERRES
   155   79   80 1    
   156   79  200 1    
   157   80   81 1    
   158   80   82 1    
   159   80  201 1    
   160   81  202 1    
   161   81  203 1    
   162   81  204 1    
   163   82   83 2    
   164   82   84 am   BACKBONE|DICT|INTERRES
   165   84   85 1    
   166   84  205 1    
   167   85   86 1    
   168   85   87 1    
   169   85  206 1    
   170   86  207 1    
   171   86  208 1    
   172   86  209 1    
   173   87   88 2    
   174   87   89 am   BACKBONE|DICT|INTERRES
   175   89   90 1    
   176   89  210 1    
   177   90   91 1    
   178   90   92 1    
   179   90  211 1    
   180   91  212 1    
   181   91  213 1    
   182   91  214 1    
   183   92   93 2    
   184   92   94 am   BACKBONE|DICT|INTERRES
   185   94   95 1    
   186   94  215 1    
   187   95   96 1    
   188   95   97 1    
   189   95  216 1    
   190   96  217 1    
   191   96  218 1    
   192   96  219 1    
   193   97   98 2    
   194   97   99 am   BACKBONE|DICT|INTERRES
   195   99  100 1    
   196   99  220 1    
   197  100  101 1    
   198  100  102 1    
   199  100  221 1    
   200  101  222 1    
   201  101  223 1    
   202  101  224 1    
   203  102  103 2    
   204  102  104 am   BACKBONE|DICT|INTERRES
   205  104  105 1    
   206  104  225 1    
   207  105  106 1    
   208  105  107 1    
   209  105  226 1    
   210  106  227 1    
   211  106  228 1    
   212  106  229 1    
   213  107  108 2    
   214  107  109 am   BACKBONE|DICT|INTERRES
   215  109  110 1    
   216  109  230 1    
   217  110  111 1    
   218  110  112 1    
   219  110  231 1    
   220  111  232 1    
   221  111  233 1    
   222  111  234 1    
   223  112  113 2    
   224  112  114 am   BACKBONE|DICT|INTERRES
   225  114  115 1    
   226  114  235 1    
   227  115  116 1    
   228  115  117 1    
   229  115  236 1    
   230  116  237 1    
   231  116  238 1    
   232  116  239 1    
   233  117  118 2    
   234  117  119 am   BACKBONE|DICT|INTERRES
   235  119  120 1    
   236  119  240 1    
   237  120  121 1    
   238  120  124 1    
   239  120  241 1    
   240  121  122 am   BACKBONE|DICT|INTERRES
   241  121  123 2    
   242  122  242 1    
   243  122  243 1    
   244  124  125 1    
   245  124  244 1    
   246  124  245 1    
   247  125  126 1    
   248  126  246 1    
   249  126  247 1    
@<TRIPOS>SUBSTRUCTURE
     1 UNK         1 GROUP             0       ****    0 ROOT    
