@<TRIPOS>MOLECULE
3R540
247   249    1
SMALL
USER_CHARGES


@<TRIPOS>ATOM
      1 CA         -0.2697  -12.0017  -52.8341 C.3       0 UNK        -0.1800 
      2 C           0.1169  -11.9473  -51.3628 C.2       0 UNK         0.5000 
      3 O           0.0809  -10.8768  -50.7560 O.2       0 UNK        -0.5000 
      4 N           0.4853  -13.0989  -50.7907 N.am      1 UNK        -0.5000 
      5 CA          0.8049  -13.2855  -49.3699 C.3       1 UNK         0.1400 
      6 C6          1.6580  -14.5555  -49.1145 C.3       23 UNK        -0.0398 
      7 S7          1.1502  -16.0148  -50.0902 S.3       23 UNK        -0.2404 
      8 C8          0.8123  -17.2667  -48.8205 C.3       23 UNK        -0.0205 
      9 C9          0.8502  -18.6569  -49.4297 C.ar      23 UNK        -0.0193 
     10 C10        -0.1298  -19.0615  -50.3396 C.ar      23 UNK        -0.1150 
     11 C11        -0.0601  -20.3152  -50.9569 C.ar      23 UNK        -0.0193 
     12 C12         0.9988  -21.1726  -50.6310 C.ar      23 UNK        -0.1150 
     13 C13         1.9959  -20.7714  -49.7367 C.ar      23 UNK        -0.0193 
     14 C14         1.9086  -19.5162  -49.1325 C.ar      23 UNK        -0.1150 
     15 C15         3.2168  -21.6466  -49.4820 C.3       23 UNK        -0.0205 
     16 S16         2.8789  -23.0934  -48.4336 S.3       23 UNK        -0.2404 
     17 C17         2.2380  -22.3385  -46.8971 C.3       23 UNK        -0.0398 
     18 CA          1.0075  -23.0987  -46.3573 C.3       11 UNK         0.1400 
     19 N           0.6659  -22.6993  -44.9921 N.am      11 UNK        -0.5000 
     20 C          -0.1401  -23.4068  -44.1879 C.2       10 UNK         0.5000 
     21 O          -0.6310  -24.4925  -44.4948 O.2       10 UNK        -0.5000 
     22 CA         -0.4849  -22.7846  -42.8247 C.3       10 UNK         0.1400 
     23 CB          0.6430  -23.0370  -41.8132 C.3       10 UNK        -0.1800 
     24 N          -0.7649  -21.3509  -42.9106 N.am      10 UNK        -0.5000 
     25 C          -1.7862  -20.8170  -43.5961 C.2       9 UNK         0.5000 
     26 O          -2.6190  -21.4829  -44.2108 O.2       9 UNK        -0.5000 
     27 CA         -1.8735  -19.2805  -43.6304 C.3       9 UNK         0.1400 
     28 CB         -2.4730  -18.7386  -42.3238 C.3       9 UNK        -0.1800 
     29 N          -0.5811  -18.6402  -43.8714 N.am      9 UNK        -0.5000 
     30 C           0.1596  -18.7961  -44.9771 C.2       8 UNK         0.5000 
     31 O          -0.1742  -19.4829  -45.9397 O.2       8 UNK        -0.5000 
     32 CA          1.5342  -18.1097  -44.9822 C.3       8 UNK         0.1400 
     33 CB          1.4064  -16.5947  -45.2234 C.3       8 UNK        -0.1800 
     34 N           2.2636  -18.3552  -43.7392 N.am      8 UNK        -0.5000 
     35 C           2.6914  -19.5589  -43.3310 C.2       7 UNK         0.5000 
     36 O           2.5672  -20.5927  -43.9891 O.2       7 UNK        -0.5000 
     37 CA          3.3263  -19.6169  -41.9296 C.3       7 UNK         0.1400 
     38 CB          4.8092  -19.2218  -41.9893 C.3       7 UNK        -0.1800 
     39 N           2.6327  -18.7602  -40.9643 N.am      7 UNK        -0.5000 
     40 C           1.3860  -18.9790  -40.5220 C.2       6 UNK         0.5000 
     41 O           0.6988  -19.9395  -40.8644 O.2       6 UNK        -0.5000 
     42 CA          0.7873  -17.9193  -39.5791 C.3       6 UNK         0.1400 
     43 CB          1.2402  -18.1631  -38.1319 C.3       6 UNK        -0.1800 
     44 N           1.1119  -16.5439  -39.9689 N.am      6 UNK        -0.5000 
     45 C           0.7573  -15.9835  -41.1320 C.2       5 UNK         0.5000 
     46 O           0.1507  -16.5835  -42.0233 O.2       5 UNK        -0.5000 
     47 CA          1.1895  -14.5285  -41.3538 C.3       5 UNK         0.1400 
     48 CB          2.6643  -14.4616  -41.7832 C.3       5 UNK        -0.1800 
     49 N           0.3634  -13.9524  -42.4089 N.am      5 UNK        -0.5000 
     50 C          -0.2479  -12.7650  -42.3710 C.2       4 UNK         0.5000 
     51 O          -0.1230  -11.9644  -41.4429 O.2       4 UNK        -0.5000 
     52 CA         -1.1469  -12.3941  -43.5695 C.3       4 UNK         0.1400 
     53 CB         -0.5177  -11.2506  -44.3809 C.3       4 UNK        -0.1800 
     54 N          -1.4368  -13.5046  -44.4824 N.am      4 UNK        -0.5000 
     55 C          -2.2712  -14.5237  -44.2228 C.2       3 UNK         0.5000 
     56 O          -2.8359  -14.6775  -43.1394 O.2       3 UNK        -0.5000 
     57 CA         -2.5121  -15.5227  -45.3789 C.3       3 UNK         0.1400 
     58 CB         -3.7920  -16.3689  -45.2049 C.3       3 UNK        -0.1800 
     59 N          -2.4861  -14.8746  -46.6966 N.am      3 UNK        -0.5000 
     60 C          -3.2972  -13.8973  -47.1332 C.2       2 UNK         0.5000 
     61 O          -4.2700  -13.4858  -46.4997 O.2       2 UNK        -0.5000 
     62 CA         -2.9706  -13.2643  -48.5057 C.3       2 UNK         0.1400 
     63 CB         -3.2248  -11.7428  -48.5024 C.3       2 UNK        -0.1800 
     64 N          -1.6272  -13.5328  -49.0402 N.am      2 UNK        -0.5000 
     65 C          -0.4480  -13.2310  -48.4711 C.2       1 UNK         0.5000 
     66 O          -0.3226  -12.8979  -47.2914 O.2       1 UNK        -0.5000 
     67 C          -0.2136  -23.0073  -47.2965 C.2       11 UNK         0.5000 
     68 O          -0.4689  -23.9561  -48.0376 O.2       11 UNK        -0.5000 
     69 N          -0.9887  -21.9169  -47.2049 N.am      12 UNK        -0.5000 
     70 CA         -2.2107  -21.7027  -47.9852 C.3       12 UNK         0.1400 
     71 CB         -2.7514  -20.2944  -47.7046 C.3       12 UNK        -0.1800 
     72 C          -3.3032  -22.7623  -47.7312 C.2       12 UNK         0.5000 
     73 O          -4.0907  -23.0611  -48.6270 O.2       12 UNK        -0.5000 
     74 N          -3.3181  -23.3383  -46.5249 N.am      13 UNK        -0.5000 
     75 CA         -4.1847  -24.4537  -46.1554 C.3       13 UNK         0.1400 
     76 CB         -4.3138  -24.4811  -44.6238 C.3       13 UNK        -0.1800 
     77 C          -3.6961  -25.8212  -46.6827 C.2       13 UNK         0.5000 
     78 O          -4.4572  -26.7863  -46.5932 O.2       13 UNK        -0.5000 
     79 N          -2.4530  -25.9077  -47.1809 N.am      14 UNK        -0.5000 
     80 CA         -1.7716  -27.1679  -47.4788 C.3       14 UNK         0.1400 
     81 CB         -0.5271  -27.2754  -46.5821 C.3       14 UNK        -0.1800 
     82 C          -1.3680  -27.3373  -48.9534 C.2       14 UNK         0.5000 
     83 O          -1.4482  -28.4609  -49.4538 O.2       14 UNK        -0.5000 
     84 N          -0.9013  -26.2713  -49.6176 N.am      15 UNK        -0.5000 
     85 CA         -0.2252  -26.3606  -50.9146 C.3       15 UNK         0.1400 
     86 CB          1.2865  -26.5224  -50.6638 C.3       15 UNK        -0.1800 
     87 C          -0.4956  -25.1430  -51.8126 C.2       15 UNK         0.5000 
     88 O          -0.9673  -24.1125  -51.3331 O.2       15 UNK        -0.5000 
     89 N          -0.1466  -25.3050  -53.0993 N.am      16 UNK        -0.5000 
     90 CA         -0.2026  -24.3380  -54.2038 C.3       16 UNK         0.1400 
     91 CB          0.9179  -23.2861  -54.0674 C.3       16 UNK        -0.1800 
     92 C          -1.6100  -23.7540  -54.4636 C.2       16 UNK         0.5000 
     93 O          -2.6025  -24.4393  -54.2059 O.2       16 UNK        -0.5000 
     94 N          -1.6843  -22.5398  -55.0269 N.am      17 UNK        -0.5000 
     95 CA         -2.9238  -21.8990  -55.4605 C.3       17 UNK         0.1400 
     96 CB         -3.3479  -22.4696  -56.8277 C.3       17 UNK        -0.1800 
     97 C          -2.7620  -20.3733  -55.5457 C.2       17 UNK         0.5000 
     98 O          -1.6387  -19.8748  -55.6448 O.2       17 UNK        -0.5000 
     99 N          -3.9089  -19.6810  -55.5558 N.am      18 UNK        -0.5000 
    100 CA        -4.1671  -18.2825  -55.9312 C.3       18 UNK         0.1400 
    101 CB        -3.7763  -18.0465  -57.4028 C.3       18 UNK        -0.1800 
    102 C         -3.5778  -17.1714  -55.0378 C.2       18 UNK         0.5000 
    103 O         -4.1702  -16.0933  -54.9748 O.2       18 UNK        -0.5000 
    104 N         -2.4343  -17.4109  -54.3880 N.am      19 UNK        -0.5000 
    105 CA        -1.6801  -16.3980  -53.6390 C.3       19 UNK         0.1400 
    106 CB        -0.2399  -16.8962  -53.4573 C.3       19 UNK        -0.1800 
    107 C         -2.3051  -15.9895  -52.2868 C.2       19 UNK         0.5000 
    108 O         -1.9027  -14.9725  -51.7162 O.2       19 UNK        -0.5000 
    109 N         -3.2673  -16.7772  -51.7961 N.am      20 UNK        -0.5000 
    110 CA        -3.9901  -16.5801  -50.5447 C.3       20 UNK         0.1400 
    111 CB        -3.0648  -16.8812  -49.3474 C.3       20 UNK        -0.1800 
    112 C         -5.2589  -17.4515  -50.5589 C.2       20 UNK         0.5000 
    113 O         -5.8341  -17.6730  -51.6273 O.2       20 UNK        -0.5000 
    114 N         -5.6456  -17.9788  -49.3861 N.am      21 UNK        -0.5000 
    115 CA        -6.7658  -18.9047  -49.1605 C.3       21 UNK         0.1400 
    116 CB        -6.8558  -19.2036  -47.6554 C.3       21 UNK        -0.1800 
    117 C         -6.6837  -20.2208  -49.9652 C.2       21 UNK         0.5000 
    118 O         -7.7006  -20.8914  -50.1453 O.2       21 UNK        -0.5000 
    119 N         -5.4825  -20.5350  -50.4607 N.am      22 UNK        -0.5000 
    120 CA        -5.1922  -21.5346  -51.4937 C.3       22 UNK         0.1400 
    121 C         -5.8954  -21.2784  -52.8621 C.2       22 UNK         0.5000 
    122 N         -6.3182  -20.0605  -53.1857 N.am      22 UNK        -0.7600 
    123 O         -6.0726  -22.2078  -53.6431 O.2       22 UNK        -0.5000 
    124 C124       -3.6595  -21.7107  -51.6725 C.3       23 UNK        -0.0398 
    125 S125       -2.7500  -20.1307  -51.8355 S.3       23 UNK        -0.2404 
    126 C126       -1.0387  -20.7120  -52.0613 C.3       23 UNK        -0.0205 
    127 H127       -0.1919  -13.0128  -53.2351 H         1 UNK         0.0600 
    128 H128        0.3805  -11.3513  -53.4191 H         1 UNK         0.0600 
    129 H129       -1.2985  -11.6656  -52.9629 H         1 UNK         0.0600 
    130 H130        0.4588  -13.9526  -51.3325 H         1 UNK         0.3000 
    131 H131        1.4159  -12.4332  -49.0644 H         1 UNK         0.0600 
    132 H132        1.6990  -14.7991  -48.0514 H         1 UNK         0.0800 
    133 H133        2.6900  -14.3418  -49.3956 H         1 UNK         0.0800 
    134 H134        1.5690  -17.1894  -48.0407 H         1 UNK         0.0800 
    135 H135       -0.1555  -17.0872  -48.3524 H         1 UNK         0.0800 
    136 H136       -0.9149  -18.3714  -50.6072 H         1 UNK         0.1150 
    137 H137        1.0759  -22.1423  -51.0999 H         1 UNK         0.1150 
    138 H138        2.6856  -19.1940  -48.4540 H         1 UNK         0.1150 
    139 H139        3.6074  -21.9955  -50.4389 H         1 UNK         0.0800 
    140 H140        4.0188  -21.0639  -49.0260 H         1 UNK         0.0800 
    141 H141        2.0031  -21.2837  -47.0367 H         1 UNK         0.0800 
    142 H142        3.0426  -22.3685  -46.1611 H         1 UNK         0.0800 
    143 H143        1.2856  -24.1542  -46.3077 H         1 UNK         0.0600 
    144 H144        1.0628  -21.8282  -44.6556 H         1 UNK         0.3000 
    145 H145       -1.3871  -23.2771  -42.4560 H         1 UNK         0.0600 
    146 H146        0.3634  -22.6920  -40.8178 H         1 UNK         0.0600 
    147 H147        0.8687  -24.1013  -41.7360 H         1 UNK         0.0600 
    148 H148        1.5622  -22.5251  -42.0995 H         1 UNK         0.0600 
    149 H149       -0.1541  -20.7375  -42.3778 H         1 UNK         0.3000 
    150 H150       -2.5358  -19.0062  -44.4532 H         1 UNK         0.0600 
    151 H151       -3.4734  -19.1400  -42.1578 H         1 UNK         0.0600 
    152 H152       -2.5551  -17.6517  -42.3444 H         1 UNK         0.0600 
    153 H153       -1.8636  -19.0056  -41.4601 H         1 UNK         0.0600 
    154 H154       -0.2339  -18.0322  -43.1333 H         1 UNK         0.3000 
    155 H155        2.1101  -18.5379  -45.8055 H         1 UNK         0.0600 
    156 H156        0.9851  -16.0762  -44.3658 H         1 UNK         0.0600 
    157 H157        0.7562  -16.3769  -46.0695 H         1 UNK         0.0600 
    158 H158        2.3784  -16.1489  -45.4345 H         1 UNK         0.0600 
    159 H159        2.3679  -17.5731  -43.1116 H         1 UNK         0.3000 
    160 H160        3.2621  -20.6487  -41.5776 H         1 UNK         0.0600 
    161 H161        4.9400  -18.1877  -42.3108 H         1 UNK         0.0600 
    162 H162        5.3533  -19.8554  -42.6912 H         1 UNK         0.0600 
    163 H163        5.2862  -19.3337  -41.0155 H         1 UNK         0.0600 
    164 H164        3.1279  -17.9459  -40.6324 H         1 UNK         0.3000 
    165 H165       -0.2990  -18.0253  -39.6166 H         1 UNK         0.0600 
    166 H166        0.7453  -17.4783  -37.4430 H         1 UNK         0.0600 
    167 H167        0.9949  -19.1768  -37.8119 H         1 UNK         0.0600 
    168 H168        2.3173  -18.0345  -38.0182 H         1 UNK         0.0600 
    169 H169        1.6185  -15.9921  -39.2915 H         1 UNK         0.3000 
    170 H170        1.0542  -13.9845  -40.4168 H         1 UNK         0.0600 
    171 H171        3.3185  -14.8804  -41.0177 H         1 UNK         0.0600 
    172 H172        2.8418  -15.0131  -42.7075 H         1 UNK         0.0600 
    173 H173        2.9774  -13.4302  -41.9465 H         1 UNK         0.0600 
    174 H174        0.1275  -14.5866  -43.1583 H         1 UNK         0.3000 
    175 H175       -2.0945  -12.0371  -43.1609 H         1 UNK         0.0600 
    176 H176        0.4339  -11.5497  -44.8223 H         1 UNK         0.0600 
    177 H177       -1.1757  -10.9326  -45.1901 H         1 UNK         0.0600 
    178 H178       -0.3302  -10.3782  -43.7536 H         1 UNK         0.0600 
    179 H179       -1.0358  -13.4274  -45.4119 H         1 UNK         0.3000 
    180 H180       -1.6666  -16.2104  -45.3565 H         1 UNK         0.0600 
    181 H181       -3.8752  -17.1231  -45.9869 H         1 UNK         0.0600 
    182 H182       -4.6936  -15.7572  -45.2294 H         1 UNK         0.0600 
    183 H183       -3.7913  -16.8952  -44.2514 H         1 UNK         0.0600 
    184 H184       -1.7032  -15.1083  -47.2886 H         1 UNK         0.3000 
    185 H185       -3.6696  -13.7084  -49.2136 H         1 UNK         0.0600 
    186 H186       -4.2641  -11.5140  -48.2638 H         1 UNK         0.0600 
    187 H187       -2.5997  -11.2328  -47.7684 H         1 UNK         0.0600 
    188 H188       -3.0162  -11.3065  -49.4795 H         1 UNK         0.0600 
    189 H189       -1.6072  -13.8645  -50.0010 H         1 UNK         0.3000 
    190 H190       -0.7046  -21.1508  -46.5986 H         1 UNK         0.3000 
    191 H191       -1.9270  -21.7577  -49.0370 H         1 UNK         0.0600 
    192 H192       -3.6176  -20.0776  -48.3282 H         1 UNK         0.0600 
    193 H193       -1.9947  -19.5400  -47.9166 H         1 UNK         0.0600 
    194 H194       -3.0553  -20.1798  -46.6640 H         1 UNK         0.0600 
    195 H195       -2.6831  -22.9948  -45.8139 H         1 UNK         0.3000 
    196 H196       -5.1786  -24.2796  -46.5730 H         1 UNK         0.0600 
    197 H197       -3.3510  -24.6560  -44.1428 H         1 UNK         0.0600 
    198 H198       -4.7098  -23.5386  -44.2447 H         1 UNK         0.0600 
    199 H199       -4.9918  -25.2716  -44.2998 H         1 UNK         0.0600 
    200 H200       -1.8949  -25.0654  -47.2755 H         1 UNK         0.3000 
    201 H201       -2.4165  -28.0146  -47.2350 H         1 UNK         0.0600 
    202 H202        0.1707  -26.4568  -46.7626 H         1 UNK         0.0600 
    203 H203        0.0074  -28.2094  -46.7605 H         1 UNK         0.0600 
    204 H204       -0.7998  -27.2527  -45.5268 H         1 UNK         0.0600 
    205 H205       -0.8679  -25.3572  -49.1683 H         1 UNK         0.3000 
    206 H206       -0.5876  -27.2345  -51.4600 H         1 UNK         0.0600 
    207 H207        1.4974  -27.4203  -50.0826 H         1 UNK         0.0600 
    208 H208        1.8418  -26.6073  -51.5985 H         1 UNK         0.0600 
    209 H209        1.6911  -25.6689  -50.1176 H         1 UNK         0.0600 
    210 H210        0.1982  -26.2155  -53.3681 H         1 UNK         0.3000 
    211 H211        0.0247  -24.9191  -55.0986 H         1 UNK         0.0600 
    212 H212        1.0181  -22.6864  -54.9725 H         1 UNK         0.0600 
    213 H213        1.8827  -23.7648  -53.8997 H         1 UNK         0.0600 
    214 H214        0.7431  -22.6069  -53.2391 H         1 UNK         0.0600 
    215 H215       -0.8463  -21.9987  -55.1964 H         1 UNK         0.3000 
    216 H216       -3.7079  -22.1116  -54.7366 H         1 UNK         0.0600 
    217 H217       -2.5823  -22.3009  -57.5860 H         1 UNK         0.0600 
    218 H218       -4.2692  -22.0058  -57.1820 H         1 UNK         0.0600 
    219 H219       -3.5325  -23.5424  -56.7715 H         1 UNK         0.0600 
    220 H220       -4.7520  -20.2120  -55.3875 H         1 UNK         0.3000 
    221 H221       -5.2503  -18.1689  -55.8641 H         1 UNK         0.0600 
    222 H222       -4.0603  -17.0448  -57.7282 H         1 UNK         0.0600 
    223 H223       -4.2769  -18.7550  -58.0629 H         1 UNK         0.0600 
    224 H224       -2.7012  -18.1459  -57.5567 H         1 UNK         0.0600 
    225 H225       -1.9896  -18.3113  -54.5365 H         1 UNK         0.3000 
    226 H226       -1.6389  -15.4923  -54.2477 H         1 UNK         0.0600 
    227 H227        0.2280  -17.1078  -54.4189 H         1 UNK         0.0600 
    228 H228        0.3743  -16.1461  -52.9593 H         1 UNK         0.0600 
    229 H229       -0.2010  -17.8068  -52.8615 H         1 UNK         0.0600 
    230 H230       -3.5723  -17.5672  -52.3492 H         1 UNK         0.3000 
    231 H231       -4.3211  -15.5421  -50.4972 H         1 UNK         0.0600 
    232 H232       -2.7523  -17.9231  -49.3492 H         1 UNK         0.0600 
    233 H233       -3.5599  -16.6851  -48.3981 H         1 UNK         0.0600 
    234 H234       -2.1648  -16.2698  -49.3719 H         1 UNK         0.0600 
    235 H235       -5.1092  -17.7407  -48.5654 H         1 UNK         0.3000 
    236 H236       -7.6807  -18.3949  -49.4684 H         1 UNK         0.0600 
    237 H237       -6.9967  -18.2899  -47.0775 H         1 UNK         0.0600 
    238 H238       -7.7012  -19.8573  -47.4363 H         1 UNK         0.0600 
    239 H239       -5.9559  -19.6990  -47.2885 H         1 UNK         0.0600 
    240 H240       -4.7166  -19.9120  -50.2579 H         1 UNK         0.3000 
    241 H241       -5.5887  -22.4838  -51.1288 H         1 UNK         0.0600 
    242 H242       -6.8319  -19.9262  -54.0405 H         1 UNK         0.3800 
    243 H243       -6.1752  -19.2705  -52.5616 H         1 UNK         0.3800 
    244 H244       -3.2466  -22.2413  -50.8195 H         1 UNK         0.0800 
    245 H245       -3.4364  -22.3561  -52.5201 H         1 UNK         0.0800 
    246 H246       -0.6632  -20.3153  -53.0047 H         1 UNK         0.0800 
    247 H247       -1.0554  -21.7917  -52.1716 H         1 UNK         0.0800 
@<TRIPOS>BOND
     1    1    2 1    
     2    1  127 1    
     3    1  128 1    
     4    1  129 1    
     5    2    3 2    
     6    2    4 am   BACKBONE|DICT|INTERRES
     7    4    5 1    
     8    4  130 1    
     9    5    6 1    
    10    5   65 1    
    11    5  131 1    
    12    6    7 1    
    13    6  132 1    
    14    6  133 1    
    15    7    8 1    
    16    8    9 1    
    17    8  134 1    
    18    8  135 1    
    19    9   10 ar   
    20    9   14 ar   
    21   10   11 ar   
    22   10  136 1    
    23   11   12 ar   
    24   11  126 1    
    25   12   13 ar   
    26   12  137 1    
    27   13   14 ar   
    28   13   15 1    
    29   14  138 1    
    30   15   16 1    
    31   15  139 1    
    32   15  140 1    
    33   16   17 1    
    34   17   18 1    
    35   17  141 1    
    36   17  142 1    
    37   18   19 1    
    38   18   67 1    
    39   18  143 1    
    40   19   20 am   BACKBONE|DICT|INTERRES
    41   19  144 1    
    42   20   21 2    
    43   20   22 1    
    44   22   23 1    
    45   22   24 1    
    46   22  145 1    
    47   23  146 1    
    48   23  147 1    
    49   23  148 1    
    50   24   25 am   BACKBONE|DICT|INTERRES
    51   24  149 1    
    52   25   26 2    
    53   25   27 1    
    54   27   28 1    
    55   27   29 1    
    56   27  150 1    
    57   28  151 1    
    58   28  152 1    
    59   28  153 1    
    60   29   30 am   BACKBONE|DICT|INTERRES
    61   29  154 1    
    62   30   31 2    
    63   30   32 1    
    64   32   33 1    
    65   32   34 1    
    66   32  155 1    
    67   33  156 1    
    68   33  157 1    
    69   33  158 1    
    70   34   35 am   BACKBONE|DICT|INTERRES
    71   34  159 1    
    72   35   36 2    
    73   35   37 1    
    74   37   38 1    
    75   37   39 1    
    76   37  160 1    
    77   38  161 1    
    78   38  162 1    
    79   38  163 1    
    80   39   40 am   BACKBONE|DICT|INTERRES
    81   39  164 1    
    82   40   41 2    
    83   40   42 1    
    84   42   43 1    
    85   42   44 1    
    86   42  165 1    
    87   43  166 1    
    88   43  167 1    
    89   43  168 1    
    90   44   45 am   BACKBONE|DICT|INTERRES
    91   44  169 1    
    92   45   46 2    
    93   45   47 1    
    94   47   48 1    
    95   47   49 1    
    96   47  170 1    
    97   48  171 1    
    98   48  172 1    
    99   48  173 1    
   100   49   50 am   BACKBONE|DICT|INTERRES
   101   49  174 1    
   102   50   51 2    
   103   50   52 1    
   104   52   53 1    
   105   52   54 1    
   106   52  175 1    
   107   53  176 1    
   108   53  177 1    
   109   53  178 1    
   110   54   55 am   BACKBONE|DICT|INTERRES
   111   54  179 1    
   112   55   56 2    
   113   55   57 1    
   114   57   58 1    
   115   57   59 1    
   116   57  180 1    
   117   58  181 1    
   118   58  182 1    
   119   58  183 1    
   120   59   60 am   BACKBONE|DICT|INTERRES
   121   59  184 1    
   122   60   61 2    
   123   60   62 1    
   124   62   63 1    
   125   62   64 1    
   126   62  185 1    
   127   63  186 1    
   128   63  187 1    
   129   63  188 1    
   130   64   65 am   BACKBONE|DICT|INTERRES
   131   64  189 1    
   132   65   66 2    
   133   67   68 2    
   134   67   69 am   BACKBONE|DICT|INTERRES
   135   69   70 1    
   136   69  190 1    
   137   70   71 1    
   138   70   72 1    
   139   70  191 1    
   140   71  192 1    
   141   71  193 1    
   142   71  194 1    
   143   72   73 2    
   144   72   74 am   BACKBONE|DICT|INTERRES
   145   74   75 1    
   146   74  195 1    
   147   75   76 1    
   148   75   77 1    
   149   75  196 1    
   150   76  197 1    
   151   76  198 1    
   152   76  199 1    
   153   77   78 2    
   154   77   79 am   BACKBONE|DICT|INTERRES
   155   79   80 1    
   156   79  200 1    
   157   80   81 1    
   158   80   82 1    
   159   80  201 1    
   160   81  202 1    
   161   81  203 1    
   162   81  204 1    
   163   82   83 2    
   164   82   84 am   BACKBONE|DICT|INTERRES
   165   84   85 1    
   166   84  205 1    
   167   85   86 1    
   168   85   87 1    
   169   85  206 1    
   170   86  207 1    
   171   86  208 1    
   172   86  209 1    
   173   87   88 2    
   174   87   89 am   BACKBONE|DICT|INTERRES
   175   89   90 1    
   176   89  210 1    
   177   90   91 1    
   178   90   92 1    
   179   90  211 1    
   180   91  212 1    
   181   91  213 1    
   182   91  214 1    
   183   92   93 2    
   184   92   94 am   BACKBONE|DICT|INTERRES
   185   94   95 1    
   186   94  215 1    
   187   95   96 1    
   188   95   97 1    
   189   95  216 1    
   190   96  217 1    
   191   96  218 1    
   192   96  219 1    
   193   97   98 2    
   194   97   99 am   BACKBONE|DICT|INTERRES
   195   99  100 1    
   196   99  220 1    
   197  100  101 1    
   198  100  102 1    
   199  100  221 1    
   200  101  222 1    
   201  101  223 1    
   202  101  224 1    
   203  102  103 2    
   204  102  104 am   BACKBONE|DICT|INTERRES
   205  104  105 1    
   206  104  225 1    
   207  105  106 1    
   208  105  107 1    
   209  105  226 1    
   210  106  227 1    
   211  106  228 1    
   212  106  229 1    
   213  107  108 2    
   214  107  109 am   BACKBONE|DICT|INTERRES
   215  109  110 1    
   216  109  230 1    
   217  110  111 1    
   218  110  112 1    
   219  110  231 1    
   220  111  232 1    
   221  111  233 1    
   222  111  234 1    
   223  112  113 2    
   224  112  114 am   BACKBONE|DICT|INTERRES
   225  114  115 1    
   226  114  235 1    
   227  115  116 1    
   228  115  117 1    
   229  115  236 1    
   230  116  237 1    
   231  116  238 1    
   232  116  239 1    
   233  117  118 2    
   234  117  119 am   BACKBONE|DICT|INTERRES
   235  119  120 1    
   236  119  240 1    
   237  120  121 1    
   238  120  124 1    
   239  120  241 1    
   240  121  122 am   BACKBONE|DICT|INTERRES
   241  121  123 2    
   242  122  242 1    
   243  122  243 1    
   244  124  125 1    
   245  124  244 1    
   246  124  245 1    
   247  125  126 1    
   248  126  246 1    
   249  126  247 1    
@<TRIPOS>SUBSTRUCTURE
     1 UNK         1 GROUP             0       ****    0 ROOT    
