@<TRIPOS>MOLECULE
3R540
247   249    1
SMALL
USER_CHARGES


@<TRIPOS>ATOM
      1 CA         -1.1438  -15.7537  -51.3062 C.3       0 UNK        -0.1800 
      2 C          -0.7933  -15.1767  -49.9443 C.2       0 UNK         0.5000 
      3 O          -1.5990  -15.2538  -49.0145 O.2       0 UNK        -0.5000 
      4 N           0.4132  -14.6036  -49.8310 N.am      1 UNK        -0.5000 
      5 CA          1.0023  -14.0384  -48.6080 C.3       1 UNK         0.1400 
      6 C6          1.3755  -15.1189  -47.5586 C.3       23 UNK        -0.0398 
      7 S7          2.5048  -16.3850  -48.2290 S.3       23 UNK        -0.2404 
      8 C8          1.4364  -17.8560  -48.2100 C.3       23 UNK        -0.0205 
      9 C9          2.1010  -19.0136  -48.9349 C.ar      23 UNK        -0.0193 
     10 C10         1.8330  -19.2429  -50.2868 C.ar      23 UNK        -0.1150 
     11 C11         2.4669  -20.2842  -50.9709 C.ar      23 UNK        -0.0193 
     12 C12         3.3792  -21.0946  -50.2884 C.ar      23 UNK        -0.1150 
     13 C13         3.6322  -20.8997  -48.9237 C.ar      23 UNK        -0.0193 
     14 C14         2.9937  -19.8490  -48.2588 C.ar      23 UNK        -0.1150 
     15 C15         4.5988  -21.7890  -48.1414 C.3       23 UNK        -0.0205 
     16 S16         4.6964  -23.5156  -48.7250 S.3       23 UNK        -0.2404 
     17 C17         2.9746  -24.0848  -48.5159 C.3       23 UNK        -0.0398 
     18 CA          2.8669  -25.2315  -47.4831 C.3       11 UNK         0.1400 
     19 N           3.1810  -24.7655  -46.1275 N.am      11 UNK        -0.5000 
     20 C           3.8596  -25.4715  -45.2146 C.2       10 UNK         0.5000 
     21 O           4.3404  -26.5858  -45.4231 O.2       10 UNK        -0.5000 
     22 CA          3.9960  -24.8349  -43.8195 C.3       10 UNK         0.1400 
     23 CB          5.2585  -23.9629  -43.7429 C.3       10 UNK        -0.1800 
     24 N           2.8214  -24.0402  -43.4467 N.am      10 UNK        -0.5000 
     25 C           1.6289  -24.5692  -43.1302 C.2       9 UNK         0.5000 
     26 O           1.4026  -25.7789  -43.1325 O.2       9 UNK        -0.5000 
     27 CA          0.4836  -23.6015  -42.7732 C.3       9 UNK         0.1400 
     28 CB          0.3641  -23.4533  -41.2491 C.3       9 UNK        -0.1800 
     29 N           0.6188  -22.2731  -43.3688 N.am      9 UNK        -0.5000 
     30 C           0.5611  -22.0047  -44.6797 C.2       8 UNK         0.5000 
     31 O           0.3927  -22.8624  -45.5473 O.2       8 UNK        -0.5000 
     32 CA          0.7786  -20.5351  -45.0846 C.3       8 UNK         0.1400 
     33 CB         -0.5456  -19.7578  -45.0258 C.3       8 UNK        -0.1800 
     34 N           1.7660  -19.8447  -44.2494 N.am      8 UNK        -0.5000 
     35 C           3.0397  -20.2140  -44.0668 C.2       7 UNK         0.5000 
     36 O           3.5410  -21.1876  -44.6296 O.2       7 UNK        -0.5000 
     37 CA          3.8715  -19.3761  -43.0684 C.3       7 UNK         0.1400 
     38 CB          5.3321  -19.8546  -42.9779 C.3       7 UNK        -0.1800 
     39 N           3.8692  -17.9390  -43.3584 N.am      7 UNK        -0.5000 
     40 C           2.8485  -17.0908  -43.1767 C.2       6 UNK         0.5000 
     41 O           1.7433  -17.4477  -42.7607 O.2       6 UNK        -0.5000 
     42 CA          3.1096  -15.6094  -43.5179 C.3       6 UNK         0.1400 
     43 CB          4.0047  -15.4388  -44.7597 C.3       6 UNK        -0.1800 
     44 N           1.8466  -14.9061  -43.7444 N.am      6 UNK        -0.5000 
     45 C           1.2150  -14.1401  -42.8462 C.2       5 UNK         0.5000 
     46 O           1.6609  -13.8861  -41.7261 O.2       5 UNK        -0.5000 
     47 CA         -0.1400  -13.5401  -43.2705 C.3       5 UNK         0.1400 
     48 CB          0.0346  -12.0755  -43.7028 C.3       5 UNK        -0.1800 
     49 N          -0.7948  -14.2815  -44.3526 N.am      5 UNK        -0.5000 
     50 C          -1.4647  -15.4305  -44.1795 C.2       4 UNK         0.5000 
     51 O          -1.5514  -15.9995  -43.0902 O.2       4 UNK        -0.5000 
     52 CA         -2.1630  -16.0301  -45.4226 C.3       4 UNK         0.1400 
     53 CB         -3.2105  -17.1022  -45.0468 C.3       4 UNK        -0.1800 
     54 N          -2.7493  -15.0140  -46.3087 N.am      4 UNK        -0.5000 
     55 C          -3.7297  -14.1518  -45.9940 C.2       3 UNK         0.5000 
     56 O          -4.2697  -14.0969  -44.8877 O.2       3 UNK        -0.5000 
     57 CA         -4.1265  -13.1495  -47.0900 C.3       3 UNK         0.1400 
     58 CB         -5.2776  -12.2126  -46.6653 C.3       3 UNK        -0.1800 
     59 N          -2.9392  -12.3846  -47.4496 N.am      3 UNK        -0.5000 
     60 C          -2.7747  -11.5990  -48.5163 C.2       2 UNK         0.5000 
     61 O          -3.6510  -11.3721  -49.3506 O.2       2 UNK        -0.5000 
     62 CA         -1.3711  -10.9886  -48.6997 C.3       2 UNK         0.1400 
     63 CB         -1.0123  -10.0059  -47.5661 C.3       2 UNK        -0.1800 
     64 N          -0.3366  -12.0129  -48.8906 N.am      2 UNK        -0.5000 
     65 C           0.1029  -12.9313  -48.0167 C.2       1 UNK         0.5000 
     66 O          -0.2388  -12.9780  -46.8326 O.2       1 UNK        -0.5000 
     67 C           1.4715  -25.8894  -47.5511 C.2       11 UNK         0.5000 
     68 O           1.1152  -26.4200  -48.6037 O.2       11 UNK        -0.5000 
     69 N           0.7037  -25.8280  -46.4507 N.am      12 UNK        -0.5000 
     70 CA         -0.7022  -26.2284  -46.3218 C.3       12 UNK         0.1400 
     71 CB         -0.8606  -27.7563  -46.4635 C.3       12 UNK        -0.1800 
     72 C          -1.6204  -25.4249  -47.2688 C.2       12 UNK         0.5000 
     73 O          -2.5360  -25.9804  -47.8779 O.2       12 UNK        -0.5000 
     74 N          -1.3388  -24.1194  -47.3792 N.am      13 UNK        -0.5000 
     75 CA         -2.0278  -23.1743  -48.2567 C.3       13 UNK         0.1400 
     76 CB         -1.1320  -21.9391  -48.4369 C.3       13 UNK        -0.1800 
     77 C          -3.4156  -22.7610  -47.7318 C.2       13 UNK         0.5000 
     78 O          -4.2249  -22.2604  -48.5126 O.2       13 UNK        -0.5000 
     79 N          -3.6622  -22.9669  -46.4280 N.am      14 UNK        -0.5000 
     80 CA         -4.8907  -22.6491  -45.6945 C.3       14 UNK         0.1400 
     81 CB         -6.0456  -23.5718  -46.1466 C.3       14 UNK        -0.1800 
     82 C          -5.2155  -21.1439  -45.7743 C.2       14 UNK         0.5000 
     83 O          -4.4986  -20.3464  -45.1698 O.2       14 UNK        -0.5000 
     84 N          -6.2592  -20.7802  -46.5322 N.am      15 UNK        -0.5000 
     85 CA         -6.6574  -19.3965  -46.8038 C.3       15 UNK         0.1400 
     86 CB         -8.0997  -19.3903  -47.3306 C.3       15 UNK        -0.1800 
     87 C          -5.7149  -18.6614  -47.7810 C.2       15 UNK         0.5000 
     88 O          -5.8107  -17.4389  -47.8930 O.2       15 UNK        -0.5000 
     89 N          -4.8294  -19.4107  -48.4552 N.am      16 UNK        -0.5000 
     90 CA         -3.7535  -18.9771  -49.3447 C.3       16 UNK         0.1400 
     91 CB         -2.6356  -18.2832  -48.5466 C.3       16 UNK        -0.1800 
     92 C          -4.2601  -18.1584  -50.5433 C.2       16 UNK         0.5000 
     93 O          -4.5762  -18.7482  -51.5741 O.2       16 UNK        -0.5000 
     94 N          -4.3651  -16.8305  -50.4016 N.am      17 UNK        -0.5000 
     95 CA         -4.8323  -15.8986  -51.4340 C.3       17 UNK         0.1400 
     96 CB         -4.8236  -14.4729  -50.8633 C.3       17 UNK        -0.1800 
     97 C          -6.2223  -16.2380  -52.0107 C.2       17 UNK         0.5000 
     98 O          -6.4450  -16.0506  -53.2069 O.2       17 UNK        -0.5000 
     99 N          -7.1095  -16.7734  -51.1621 N.am      18 UNK        -0.5000 
    100 CA        -8.4438  -17.2477  -51.5379 C.3       18 UNK         0.1400 
    101 CB        -9.3938  -17.0132  -50.3530 C.3       18 UNK        -0.1800 
    102 C         -8.4656  -18.7300  -51.9747 C.2       18 UNK         0.5000 
    103 O         -9.5329  -19.2308  -52.3305 O.2       18 UNK        -0.5000 
    104 N         -7.3130  -19.4112  -51.9339 N.am      19 UNK        -0.5000 
    105 CA        -7.1396  -20.8360  -52.2207 C.3       19 UNK         0.1400 
    106 CB        -6.7156  -21.5490  -50.9230 C.3       19 UNK        -0.1800 
    107 C         -6.1285  -21.0556  -53.3651 C.2       19 UNK         0.5000 
    108 O         -5.4201  -22.0633  -53.3690 O.2       19 UNK        -0.5000 
    109 N         -6.0864  -20.1107  -54.3190 N.am      20 UNK        -0.5000 
    110 CA        -5.2218  -20.0866  -55.5068 C.3       20 UNK         0.1400 
    111 CB        -5.5816  -21.2339  -56.4746 C.3       20 UNK        -0.1800 
    112 C         -3.7228  -20.0479  -55.1433 C.2       20 UNK         0.5000 
    113 O         -2.9445  -20.8953  -55.5914 O.2       20 UNK        -0.5000 
    114 N         -3.3660  -19.0698  -54.2993 N.am      21 UNK        -0.5000 
    115 CA        -2.0550  -18.7794  -53.7042 C.3       21 UNK         0.1400 
    116 CB        -0.9829  -18.4908  -54.7722 C.3       21 UNK        -0.1800 
    117 C         -1.5938  -19.8524  -52.7026 C.2       21 UNK         0.5000 
    118 O         -1.3535  -19.5358  -51.5391 O.2       21 UNK        -0.5000 
    119 N         -1.5073  -21.0949  -53.1748 N.am      22 UNK        -0.5000 
    120 CA        -1.2706  -22.3186  -52.4040 C.3       22 UNK         0.1400 
    121 C         -1.6094  -23.6156  -53.1973 C.2       22 UNK         0.5000 
    122 N         -2.2095  -23.5508  -54.3830 N.am      22 UNK        -0.7600 
    123 O         -1.3461  -24.7157  -52.7202 O.2       22 UNK        -0.5000 
    124 C124        0.1145  -22.3604  -51.6985 C.3       23 UNK        -0.0398 
    125 S125        1.5634  -22.2145  -52.8035 S.3       23 UNK        -0.2404 
    126 C126        2.1637  -20.5253  -52.4469 C.3       23 UNK        -0.0205 
    127 H127       -1.5724  -16.7466  -51.1862 H         1 UNK         0.0600 
    128 H128       -0.2662  -15.8432  -51.9466 H         1 UNK         0.0600 
    129 H129       -1.8713  -15.1176  -51.8082 H         1 UNK         0.0600 
    130 H130        1.0164  -14.5815  -50.6411 H         1 UNK         0.3000 
    131 H131        1.9259  -13.5430  -48.9112 H         1 UNK         0.0600 
    132 H132        1.8749  -14.6517  -46.7095 H         1 UNK         0.0800 
    133 H133        0.4804  -15.5989  -47.1631 H         1 UNK         0.0800 
    134 H134        1.2192  -18.1330  -47.1781 H         1 UNK         0.0800 
    135 H135        0.4812  -17.6212  -48.6796 H         1 UNK         0.0800 
    136 H136        1.1326  -18.6044  -50.8071 H         1 UNK         0.1150 
    137 H137        3.8752  -21.8902  -50.8253 H         1 UNK         0.1150 
    138 H138        3.2003  -19.6724  -47.2124 H         1 UNK         0.1150 
    139 H139        5.5941  -21.3466  -48.1937 H         1 UNK         0.0800 
    140 H140        4.3233  -21.8056  -47.0862 H         1 UNK         0.0800 
    141 H141        2.3275  -23.2530  -48.2317 H         1 UNK         0.0800 
    142 H142        2.6314  -24.4098  -49.5001 H         1 UNK         0.0800 
    143 H143        3.5787  -26.0063  -47.7760 H         1 UNK         0.0600 
    144 H144        2.8277  -23.8543  -45.8697 H         1 UNK         0.3000 
    145 H145        4.1025  -25.6439  -43.0936 H         1 UNK         0.0600 
    146 H146        5.3660  -23.5063  -42.7590 H         1 UNK         0.0600 
    147 H147        5.2472  -23.1658  -44.4864 H         1 UNK         0.0600 
    148 H148        6.1528  -24.5606  -43.9232 H         1 UNK         0.0600 
    149 H149        2.9250  -23.0343  -43.4817 H         1 UNK         0.3000 
    150 H150       -0.4432  -24.0419  -43.1472 H         1 UNK         0.0600 
    151 H151        0.2318  -24.4247  -40.7706 H         1 UNK         0.0600 
    152 H152       -0.4957  -22.8403  -40.9781 H         1 UNK         0.0600 
    153 H153        1.2547  -22.9938  -40.8185 H         1 UNK         0.0600 
    154 H154        0.7691  -21.5047  -42.7319 H         1 UNK         0.3000 
    155 H155        1.1391  -20.5327  -46.1143 H         1 UNK         0.0600 
    156 H156       -1.3446  -20.2721  -45.5598 H         1 UNK         0.0600 
    157 H157       -0.4400  -18.7697  -45.4718 H         1 UNK         0.0600 
    158 H158       -0.8844  -19.6233  -43.9978 H         1 UNK         0.0600 
    159 H159        1.4496  -19.0219  -43.7420 H         1 UNK         0.3000 
    160 H160        3.4180  -19.5227  -42.0860 H         1 UNK         0.0600 
    161 H161        5.8505  -19.7462  -43.9315 H         1 UNK         0.0600 
    162 H162        5.3843  -20.9061  -42.6932 H         1 UNK         0.0600 
    163 H163        5.8870  -19.2916  -42.2272 H         1 UNK         0.0600 
    164 H164        4.7302  -17.5702  -43.7351 H         1 UNK         0.3000 
    165 H165        3.6322  -15.1692  -42.6664 H         1 UNK         0.0600 
    166 H166        4.0402  -14.3983  -45.0836 H         1 UNK         0.0600 
    167 H167        5.0320  -15.7396  -44.5522 H         1 UNK         0.0600 
    168 H168        3.6505  -16.0390  -45.5965 H         1 UNK         0.0600 
    169 H169        1.3655  -15.1061  -44.6065 H         1 UNK         0.3000 
    170 H170       -0.7945  -13.5549  -42.3963 H         1 UNK         0.0600 
    171 H171        0.4332  -11.4732  -42.8857 H         1 UNK         0.0600 
    172 H172        0.7238  -11.9822  -44.5427 H         1 UNK         0.0600 
    173 H173       -0.9171  -11.6336  -43.9987 H         1 UNK         0.0600 
    174 H174       -0.7441  -13.8610  -45.2771 H         1 UNK         0.3000 
    175 H175       -1.3850  -16.5255  -46.0033 H         1 UNK         0.0600 
    176 H176       -3.9884  -16.7017  -44.3967 H         1 UNK         0.0600 
    177 H177       -3.6989  -17.5149  -45.9265 H         1 UNK         0.0600 
    178 H178       -2.7495  -17.9361  -44.5180 H         1 UNK         0.0600 
    179 H179       -2.3570  -14.9767  -47.2475 H         1 UNK         0.3000 
    180 H180       -4.4464  -13.7295  -47.9567 H         1 UNK         0.0600 
    181 H181       -5.5955  -11.5691  -47.4851 H         1 UNK         0.0600 
    182 H182       -4.9858  -11.5730  -45.8315 H         1 UNK         0.0600 
    183 H183       -6.1517  -12.7853  -46.3531 H         1 UNK         0.0600 
    184 H184       -2.1170  -12.5533  -46.8772 H         1 UNK         0.3000 
    185 H185       -1.3961  -10.4147  -49.6275 H         1 UNK         0.0600 
    186 H186       -0.9818  -10.4871  -46.5886 H         1 UNK         0.0600 
    187 H187       -0.0403   -9.5449  -47.7404 H         1 UNK         0.0600 
    188 H188       -1.7469   -9.2021  -47.5065 H         1 UNK         0.0600 
    189 H189       -0.0213  -12.1130  -49.8454 H         1 UNK         0.3000 
    190 H190        1.0989  -25.3734  -45.6402 H         1 UNK         0.3000 
    191 H191       -1.0025  -25.9604  -45.3078 H         1 UNK         0.0600 
    192 H192       -1.8811  -28.0648  -46.2339 H         1 UNK         0.0600 
    193 H193       -0.2000  -28.2853  -45.7766 H         1 UNK         0.0600 
    194 H194       -0.6371  -28.0978  -47.4745 H         1 UNK         0.0600 
    195 H195       -0.5915  -23.7346  -46.8041 H         1 UNK         0.3000 
    196 H196       -2.1645  -23.6466  -49.2318 H         1 UNK         0.0600 
    197 H197       -1.0605  -21.3564  -47.5212 H         1 UNK         0.0600 
    198 H198       -1.5228  -21.2800  -49.2115 H         1 UNK         0.0600 
    199 H199       -0.1186  -22.2201  -48.7228 H         1 UNK         0.0600 
    200 H200       -2.9107  -23.3506  -45.8744 H         1 UNK         0.3000 
    201 H201       -4.6915  -22.8633  -44.6435 H         1 UNK         0.0600 
    202 H202       -6.2797  -23.4615  -47.2059 H         1 UNK         0.0600 
    203 H203       -6.9556  -23.3686  -45.5805 H         1 UNK         0.0600 
    204 H204       -5.7914  -24.6182  -45.9775 H         1 UNK         0.0600 
    205 H205       -6.7768  -21.5026  -47.0114 H         1 UNK         0.3000 
    206 H206       -6.6383  -18.8463  -45.8607 H         1 UNK         0.0600 
    207 H207       -8.7693  -19.9306  -46.6613 H         1 UNK         0.0600 
    208 H208       -8.4757  -18.3697  -47.4019 H         1 UNK         0.0600 
    209 H209       -8.1729  -19.8431  -48.3200 H         1 UNK         0.0600 
    210 H210       -4.8658  -20.4166  -48.3183 H         1 UNK         0.3000 
    211 H211       -3.3342  -19.8927  -49.7616 H         1 UNK         0.0600 
    212 H212       -2.9673  -17.3447  -48.1063 H         1 UNK         0.0600 
    213 H213       -1.7847  -18.0663  -49.1905 H         1 UNK         0.0600 
    214 H214       -2.2743  -18.9212  -47.7402 H         1 UNK         0.0600 
    215 H215       -4.1273  -16.4315  -49.5043 H         1 UNK         0.3000 
    216 H216       -4.1196  -15.9450  -52.2592 H         1 UNK         0.0600 
    217 H217       -3.8362  -14.1949  -50.4946 H         1 UNK         0.0600 
    218 H218       -5.5304  -14.3676  -50.0396 H         1 UNK         0.0600 
    219 H219       -5.1001  -13.7443  -51.6264 H         1 UNK         0.0600 
    220 H220       -6.8312  -16.9048  -50.1984 H         1 UNK         0.3000 
    221 H221       -8.8132  -16.6602  -52.3809 H         1 UNK         0.0600 
    222 H222      -10.4175  -17.2905  -50.6075 H         1 UNK         0.0600 
    223 H223       -9.1014  -17.6012  -49.4848 H         1 UNK         0.0600 
    224 H224       -9.4074  -15.9634  -50.0593 H         1 UNK         0.0600 
    225 H225       -6.4535  -18.9233  -51.6971 H         1 UNK         0.3000 
    226 H226       -8.0812  -21.2756  -52.5546 H         1 UNK         0.0600 
    227 H227       -7.4338  -21.3760  -50.1223 H         1 UNK         0.0600 
    228 H228       -6.6478  -22.6278  -51.0677 H         1 UNK         0.0600 
    229 H229       -5.7401  -21.2031  -50.5806 H         1 UNK         0.0600 
    230 H230       -6.7008  -19.3167  -54.2075 H         1 UNK         0.3000 
    231 H231       -5.4341  -19.1492  -56.0230 H         1 UNK         0.0600 
    232 H232       -5.0148  -21.1514  -57.4026 H         1 UNK         0.0600 
    233 H233       -6.6391  -21.2103  -56.7375 H         1 UNK         0.0600 
    234 H234       -5.3642  -22.2132  -56.0475 H         1 UNK         0.0600 
    235 H235       -4.1199  -18.5229  -53.9059 H         1 UNK         0.3000 
    236 H236       -2.1980  -17.8603  -53.1364 H         1 UNK         0.0600 
    237 H237       -0.7642  -19.3650  -55.3856 H         1 UNK         0.0600 
    238 H238       -1.2970  -17.6858  -55.4364 H         1 UNK         0.0600 
    239 H239       -0.0475  -18.1803  -54.3052 H         1 UNK         0.0600 
    240 H240       -1.7468  -21.2281  -54.1508 H         1 UNK         0.3000 
    241 H241       -2.0197  -22.3063  -51.6102 H         1 UNK         0.0600 
    242 H242       -2.4196  -24.4133  -54.8595 H         1 UNK         0.3800 
    243 H243       -2.5119  -22.6781  -54.7984 H         1 UNK         0.3800 
    244 H244        0.2212  -23.2816  -51.1236 H         1 UNK         0.0800 
    245 H245        0.1568  -21.5660  -50.9575 H         1 UNK         0.0800 
    246 H246        1.4249  -19.8101  -52.8100 H         1 UNK         0.0800 
    247 H247        3.0711  -20.3465  -53.0248 H         1 UNK         0.0800 
@<TRIPOS>BOND
     1    1    2 1    
     2    1  127 1    
     3    1  128 1    
     4    1  129 1    
     5    2    3 2    
     6    2    4 am   BACKBONE|DICT|INTERRES
     7    4    5 1    
     8    4  130 1    
     9    5    6 1    
    10    5   65 1    
    11    5  131 1    
    12    6    7 1    
    13    6  132 1    
    14    6  133 1    
    15    7    8 1    
    16    8    9 1    
    17    8  134 1    
    18    8  135 1    
    19    9   10 ar   
    20    9   14 ar   
    21   10   11 ar   
    22   10  136 1    
    23   11   12 ar   
    24   11  126 1    
    25   12   13 ar   
    26   12  137 1    
    27   13   14 ar   
    28   13   15 1    
    29   14  138 1    
    30   15   16 1    
    31   15  139 1    
    32   15  140 1    
    33   16   17 1    
    34   17   18 1    
    35   17  141 1    
    36   17  142 1    
    37   18   19 1    
    38   18   67 1    
    39   18  143 1    
    40   19   20 am   BACKBONE|DICT|INTERRES
    41   19  144 1    
    42   20   21 2    
    43   20   22 1    
    44   22   23 1    
    45   22   24 1    
    46   22  145 1    
    47   23  146 1    
    48   23  147 1    
    49   23  148 1    
    50   24   25 am   BACKBONE|DICT|INTERRES
    51   24  149 1    
    52   25   26 2    
    53   25   27 1    
    54   27   28 1    
    55   27   29 1    
    56   27  150 1    
    57   28  151 1    
    58   28  152 1    
    59   28  153 1    
    60   29   30 am   BACKBONE|DICT|INTERRES
    61   29  154 1    
    62   30   31 2    
    63   30   32 1    
    64   32   33 1    
    65   32   34 1    
    66   32  155 1    
    67   33  156 1    
    68   33  157 1    
    69   33  158 1    
    70   34   35 am   BACKBONE|DICT|INTERRES
    71   34  159 1    
    72   35   36 2    
    73   35   37 1    
    74   37   38 1    
    75   37   39 1    
    76   37  160 1    
    77   38  161 1    
    78   38  162 1    
    79   38  163 1    
    80   39   40 am   BACKBONE|DICT|INTERRES
    81   39  164 1    
    82   40   41 2    
    83   40   42 1    
    84   42   43 1    
    85   42   44 1    
    86   42  165 1    
    87   43  166 1    
    88   43  167 1    
    89   43  168 1    
    90   44   45 am   BACKBONE|DICT|INTERRES
    91   44  169 1    
    92   45   46 2    
    93   45   47 1    
    94   47   48 1    
    95   47   49 1    
    96   47  170 1    
    97   48  171 1    
    98   48  172 1    
    99   48  173 1    
   100   49   50 am   BACKBONE|DICT|INTERRES
   101   49  174 1    
   102   50   51 2    
   103   50   52 1    
   104   52   53 1    
   105   52   54 1    
   106   52  175 1    
   107   53  176 1    
   108   53  177 1    
   109   53  178 1    
   110   54   55 am   BACKBONE|DICT|INTERRES
   111   54  179 1    
   112   55   56 2    
   113   55   57 1    
   114   57   58 1    
   115   57   59 1    
   116   57  180 1    
   117   58  181 1    
   118   58  182 1    
   119   58  183 1    
   120   59   60 am   BACKBONE|DICT|INTERRES
   121   59  184 1    
   122   60   61 2    
   123   60   62 1    
   124   62   63 1    
   125   62   64 1    
   126   62  185 1    
   127   63  186 1    
   128   63  187 1    
   129   63  188 1    
   130   64   65 am   BACKBONE|DICT|INTERRES
   131   64  189 1    
   132   65   66 2    
   133   67   68 2    
   134   67   69 am   BACKBONE|DICT|INTERRES
   135   69   70 1    
   136   69  190 1    
   137   70   71 1    
   138   70   72 1    
   139   70  191 1    
   140   71  192 1    
   141   71  193 1    
   142   71  194 1    
   143   72   73 2    
   144   72   74 am   BACKBONE|DICT|INTERRES
   145   74   75 1    
   146   74  195 1    
   147   75   76 1    
   148   75   77 1    
   149   75  196 1    
   150   76  197 1    
   151   76  198 1    
   152   76  199 1    
   153   77   78 2    
   154   77   79 am   BACKBONE|DICT|INTERRES
   155   79   80 1    
   156   79  200 1    
   157   80   81 1    
   158   80   82 1    
   159   80  201 1    
   160   81  202 1    
   161   81  203 1    
   162   81  204 1    
   163   82   83 2    
   164   82   84 am   BACKBONE|DICT|INTERRES
   165   84   85 1    
   166   84  205 1    
   167   85   86 1    
   168   85   87 1    
   169   85  206 1    
   170   86  207 1    
   171   86  208 1    
   172   86  209 1    
   173   87   88 2    
   174   87   89 am   BACKBONE|DICT|INTERRES
   175   89   90 1    
   176   89  210 1    
   177   90   91 1    
   178   90   92 1    
   179   90  211 1    
   180   91  212 1    
   181   91  213 1    
   182   91  214 1    
   183   92   93 2    
   184   92   94 am   BACKBONE|DICT|INTERRES
   185   94   95 1    
   186   94  215 1    
   187   95   96 1    
   188   95   97 1    
   189   95  216 1    
   190   96  217 1    
   191   96  218 1    
   192   96  219 1    
   193   97   98 2    
   194   97   99 am   BACKBONE|DICT|INTERRES
   195   99  100 1    
   196   99  220 1    
   197  100  101 1    
   198  100  102 1    
   199  100  221 1    
   200  101  222 1    
   201  101  223 1    
   202  101  224 1    
   203  102  103 2    
   204  102  104 am   BACKBONE|DICT|INTERRES
   205  104  105 1    
   206  104  225 1    
   207  105  106 1    
   208  105  107 1    
   209  105  226 1    
   210  106  227 1    
   211  106  228 1    
   212  106  229 1    
   213  107  108 2    
   214  107  109 am   BACKBONE|DICT|INTERRES
   215  109  110 1    
   216  109  230 1    
   217  110  111 1    
   218  110  112 1    
   219  110  231 1    
   220  111  232 1    
   221  111  233 1    
   222  111  234 1    
   223  112  113 2    
   224  112  114 am   BACKBONE|DICT|INTERRES
   225  114  115 1    
   226  114  235 1    
   227  115  116 1    
   228  115  117 1    
   229  115  236 1    
   230  116  237 1    
   231  116  238 1    
   232  116  239 1    
   233  117  118 2    
   234  117  119 am   BACKBONE|DICT|INTERRES
   235  119  120 1    
   236  119  240 1    
   237  120  121 1    
   238  120  124 1    
   239  120  241 1    
   240  121  122 am   BACKBONE|DICT|INTERRES
   241  121  123 2    
   242  122  242 1    
   243  122  243 1    
   244  124  125 1    
   245  124  244 1    
   246  124  245 1    
   247  125  126 1    
   248  126  246 1    
   249  126  247 1    
@<TRIPOS>SUBSTRUCTURE
     1 UNK         1 GROUP             0       ****    0 ROOT    
