@<TRIPOS>MOLECULE
3R540
247   249    1
SMALL
USER_CHARGES


@<TRIPOS>ATOM
      1 CA         -3.2177  -12.0484  -46.1517 C.3       0 UNK        -0.1800 
      2 C          -2.0311  -12.2455  -47.0834 C.2       0 UNK         0.5000 
      3 O          -1.9036  -11.5213  -48.0704 O.2       0 UNK        -0.5000 
      4 N          -1.1659  -13.2222  -46.7794 N.am      1 UNK        -0.5000 
      5 CA          0.0329  -13.5427  -47.5692 C.3       1 UNK         0.1400 
      6 C6          0.5206  -14.9819  -47.2798 C.3       23 UNK        -0.0398 
      7 S7          1.5053  -15.7148  -48.6308 S.3       23 UNK        -0.2404 
      8 C8          0.2343  -16.6585  -49.5258 C.3       23 UNK        -0.0205 
      9 C9          0.8518  -17.6983  -50.4464 C.ar      23 UNK        -0.0193 
     10 C10         1.0780  -17.4018  -51.7916 C.ar      23 UNK        -0.1150 
     11 C11         1.5746  -18.3758  -52.6694 C.ar      23 UNK        -0.0193 
     12 C12         1.8724  -19.6481  -52.1655 C.ar      23 UNK        -0.1150 
     13 C13         1.6720  -19.9525  -50.8149 C.ar      23 UNK        -0.0193 
     14 C14         1.1637  -18.9709  -49.9630 C.ar      23 UNK        -0.1150 
     15 C15         2.0246  -21.3311  -50.2710 C.3       23 UNK        -0.0205 
     16 S16         0.6756  -22.5351  -50.4922 S.3       23 UNK        -0.2404 
     17 C17        -0.4698  -22.1389  -49.1258 C.3       23 UNK        -0.0398 
     18 CA         -0.5405  -23.2690  -48.0705 C.3       11 UNK         0.1400 
     19 N           0.7207  -23.4630  -47.3490 N.am      11 UNK        -0.5000 
     20 C           1.0250  -24.5854  -46.6811 C.2       10 UNK         0.5000 
     21 O           0.2730  -25.5563  -46.6036 O.2       10 UNK        -0.5000 
     22 CA          2.3688  -24.6174  -45.9312 C.3       10 UNK         0.1400 
     23 CB          3.4985  -25.0575  -46.8736 C.3       10 UNK        -0.1800 
     24 N           2.7247  -23.3391  -45.3162 N.am      10 UNK        -0.5000 
     25 C           1.9923  -22.6881  -44.4028 C.2       9 UNK         0.5000 
     26 O           0.9212  -23.1070  -43.9640 O.2       9 UNK        -0.5000 
     27 CA          2.5167  -21.3223  -43.9217 C.3       9 UNK         0.1400 
     28 CB          4.0203  -21.0996  -44.1953 C.3       9 UNK        -0.1800 
     29 N           1.7447  -20.2028  -44.4656 N.am      9 UNK        -0.5000 
     30 C           1.4858  -19.9314  -45.7564 C.2       8 UNK         0.5000 
     31 O           1.7424  -20.6977  -46.6860 O.2       8 UNK        -0.5000 
     32 CA          0.8304  -18.5718  -46.0779 C.3       8 UNK         0.1400 
     33 CB         -0.6316  -18.7676  -46.5072 C.3       8 UNK        -0.1800 
     34 N           0.8800  -17.6194  -44.9672 N.am      8 UNK        -0.5000 
     35 C           1.9991  -17.0373  -44.5035 C.2       7 UNK         0.5000 
     36 O           3.0986  -17.1569  -45.0432 O.2       7 UNK        -0.5000 
     37 CA          1.8890  -16.2050  -43.2073 C.3       7 UNK         0.1400 
     38 CB          2.0182  -14.7031  -43.5066 C.3       7 UNK        -0.1800 
     39 N           0.6523  -16.4354  -42.4578 N.am      7 UNK        -0.5000 
     40 C           0.2871  -17.5974  -41.8948 C.2       6 UNK         0.5000 
     41 O           0.9918  -18.6076  -41.8994 O.2       6 UNK        -0.5000 
     42 CA         -1.1267  -17.6589  -41.2827 C.3       6 UNK         0.1400 
     43 CB         -1.0602  -17.4478  -39.7630 C.3       6 UNK        -0.1800 
     44 N          -2.0655  -16.6884  -41.8567 N.am      6 UNK        -0.5000 
     45 C          -2.4465  -16.6332  -43.1427 C.2       5 UNK         0.5000 
     46 O          -2.0371  -17.4069  -44.0061 O.2       5 UNK        -0.5000 
     47 CA         -3.3980  -15.4877  -43.5371 C.3       5 UNK         0.1400 
     48 CB         -4.8607  -15.9461  -43.4496 C.3       5 UNK        -0.1800 
     49 N          -3.2089  -14.3003  -42.6989 N.am      5 UNK        -0.5000 
     50 C          -2.1501  -13.4857  -42.7803 C.2       4 UNK         0.5000 
     51 O          -1.2750  -13.5829  -43.6477 O.2       4 UNK        -0.5000 
     52 CA         -2.0214  -12.4325  -41.6672 C.3       4 UNK         0.1400 
     53 CB         -1.3761  -13.0640  -40.4228 C.3       4 UNK        -0.1800 
     54 N          -1.1851  -11.3213  -42.1097 N.am      4 UNK        -0.5000 
     55 C          -1.6281  -10.2609  -42.7973 C.2       3 UNK         0.5000 
     56 O          -2.8153  -10.0332  -43.0300 O.2       3 UNK        -0.5000 
     57 CA         -0.5450   -9.3424  -43.3727 C.3       3 UNK         0.1400 
     58 CB          0.1537   -8.5268  -42.2681 C.3       3 UNK        -0.1800 
     59 N           0.4082  -10.1702  -44.1072 N.am      3 UNK        -0.5000 
     60 C           1.2828   -9.7354  -45.0219 C.2       2 UNK         0.5000 
     61 O           1.4431   -8.5502  -45.3143 O.2       2 UNK        -0.5000 
     62 CA          2.0776  -10.8180  -45.7659 C.3       2 UNK         0.1400 
     63 CB          3.2282  -11.3590  -44.9012 C.3       2 UNK        -0.1800 
     64 N           1.1862  -11.9125  -46.1492 N.am      2 UNK        -0.5000 
     65 C           1.1556  -12.5030  -47.3497 C.2       1 UNK         0.5000 
     66 O           1.9403  -12.2431  -48.2628 O.2       1 UNK        -0.5000 
     67 C          -1.7235  -23.0705  -47.0987 C.2       11 UNK         0.5000 
     68 O          -2.8263  -23.5203  -47.4087 O.2       11 UNK        -0.5000 
     69 N          -1.4791  -22.4627  -45.9255 N.am      12 UNK        -0.5000 
     70 CA         -2.4619  -22.3686  -44.8408 C.3       12 UNK         0.1400 
     71 CB         -2.0491  -21.3059  -43.8055 C.3       12 UNK        -0.1800 
     72 C          -2.6931  -23.7284  -44.1618 C.2       12 UNK         0.5000 
     73 O          -3.8440  -24.1076  -43.9480 O.2       12 UNK        -0.5000 
     74 N          -1.6007  -24.4469  -43.8662 N.am      13 UNK        -0.5000 
     75 CA         -1.6079  -25.7690  -43.2352 C.3       13 UNK         0.1400 
     76 CB         -0.1652  -26.1916  -42.9204 C.3       13 UNK        -0.1800 
     77 C          -2.3176  -26.8414  -44.0823 C.2       13 UNK         0.5000 
     78 O          -3.0730  -27.6466  -43.5368 O.2       13 UNK        -0.5000 
     79 N          -2.0882  -26.8110  -45.4016 N.am      14 UNK        -0.5000 
     80 CA         -2.7504  -27.6762  -46.3788 C.3       14 UNK         0.1400 
     81 CB         -1.9091  -27.6974  -47.6651 C.3       14 UNK        -0.1800 
     82 C          -4.1948  -27.2443  -46.7031 C.2       14 UNK         0.5000 
     83 O          -4.9305  -28.0334  -47.2974 O.2       14 UNK        -0.5000 
     84 N          -4.5594  -26.0011  -46.3475 N.am      15 UNK        -0.5000 
     85 CA         -5.7907  -25.2906  -46.7178 C.3       15 UNK         0.1400 
     86 CB         -7.0213  -25.9253  -46.0388 C.3       15 UNK        -0.1800 
     87 C          -5.9362  -25.1593  -48.2499 C.2       15 UNK         0.5000 
     88 O          -7.0255  -25.3307  -48.8010 O.2       15 UNK        -0.5000 
     89 N          -4.8071  -24.8859  -48.9118 N.am      16 UNK        -0.5000 
     90 CA         -4.6492  -24.8594  -50.3575 C.3       16 UNK         0.1400 
     91 CB         -3.2646  -25.4311  -50.7070 C.3       16 UNK        -0.1800 
     92 C          -4.8465  -23.4273  -50.8723 C.2       16 UNK         0.5000 
     93 O          -3.8794  -22.7543  -51.2339 O.2       16 UNK        -0.5000 
     94 N          -6.1094  -22.9835  -50.9045 N.am      17 UNK        -0.5000 
     95 CA         -6.5208  -21.6648  -51.3971 C.3       17 UNK         0.1400 
     96 CB         -8.0339  -21.4981  -51.1955 C.3       17 UNK        -0.1800 
     97 C          -6.1386  -21.4140  -52.8698 C.2       17 UNK         0.5000 
     98 O          -5.7994  -20.2871  -53.2273 O.2       17 UNK        -0.5000 
     99 N          -6.1541  -22.4792  -53.6836 N.am      18 UNK        -0.5000 
    100 CA        -5.7187  -22.4667  -55.0805 C.3       18 UNK         0.1400 
    101 CB        -6.1639  -23.7718  -55.7571 C.3       18 UNK        -0.1800 
    102 C         -4.1985  -22.2689  -55.2382 C.2       18 UNK         0.5000 
    103 O         -3.7702  -21.6634  -56.2202 O.2       18 UNK        -0.5000 
    104 N         -3.4120  -22.7620  -54.2704 N.am      19 UNK        -0.5000 
    105 CA        -1.9636  -22.5645  -54.2178 C.3       19 UNK         0.1400 
    106 CB        -1.3096  -23.6643  -53.3702 C.3       19 UNK        -0.1800 
    107 C         -1.6182  -21.1689  -53.6770 C.2       19 UNK         0.5000 
    108 O         -0.7432  -20.5104  -54.2351 O.2       19 UNK        -0.5000 
    109 N         -2.3539  -20.7189  -52.6489 N.am      20 UNK        -0.5000 
    110 CA        -2.2320  -19.3883  -52.0455 C.3       20 UNK         0.1400 
    111 CB        -3.0786  -19.3324  -50.7652 C.3       20 UNK        -0.1800 
    112 C         -2.6093  -18.2312  -52.9955 C.2       20 UNK         0.5000 
    113 O         -2.1677  -17.1028  -52.7805 O.2       20 UNK        -0.5000 
    114 N         -3.4086  -18.5264  -54.0302 N.am      21 UNK        -0.5000 
    115 CA        -3.7250  -17.6194  -55.1358 C.3       21 UNK         0.1400 
    116 CB        -4.9775  -18.1378  -55.8592 C.3       21 UNK        -0.1800 
    117 C         -2.5566  -17.4428  -56.1308 C.2       21 UNK         0.5000 
    118 O         -2.5635  -16.4792  -56.8989 O.2       21 UNK        -0.5000 
    119 N         -1.5785  -18.3572  -56.0876 N.am      22 UNK        -0.5000 
    120 CA        -0.3451  -18.3891  -56.8890 C.3       22 UNK         0.1400 
    121 C         -0.5833  -18.6360  -58.4116 C.2       22 UNK         0.5000 
    122 N          0.4370  -18.4999  -59.2498 N.am      22 UNK        -0.7600 
    123 O         -1.6734  -18.9964  -58.8510 O.2       22 UNK        -0.5000 
    124 C124        0.6158  -17.1932  -56.6014 C.3       23 UNK        -0.0398 
    125 S125        0.7739  -16.7442  -54.8369 S.3       23 UNK        -0.2404 
    126 C126        1.7998  -18.0966  -54.1585 C.3       23 UNK        -0.0205 
    127 H127       -3.3439  -12.8904  -45.4727 H         1 UNK         0.0600 
    128 H128       -4.1364  -11.9442  -46.7289 H         1 UNK         0.0600 
    129 H129       -3.0826  -11.1443  -45.5591 H         1 UNK         0.0600 
    130 H130       -1.3002  -13.7495  -45.9252 H         1 UNK         0.3000 
    131 H131       -0.2524  -13.4925  -48.6226 H         1 UNK         0.0600 
    132 H132       -0.3315  -15.6323  -47.0845 H         1 UNK         0.0800 
    133 H133        1.1194  -15.0105  -46.3707 H         1 UNK         0.0800 
    134 H134       -0.4340  -17.1574  -48.8260 H         1 UNK         0.0800 
    135 H135       -0.3889  -15.9689  -50.0976 H         1 UNK         0.0800 
    136 H136        0.8391  -16.4114  -52.1499 H         1 UNK         0.1150 
    137 H137        2.2567  -20.4098  -52.8293 H         1 UNK         0.1150 
    138 H138        1.0112  -19.2024  -48.9219 H         1 UNK         0.1150 
    139 H139        2.9086  -21.7051  -50.7892 H         1 UNK         0.0800 
    140 H140        2.2999  -21.2724  -49.2176 H         1 UNK         0.0800 
    141 H141       -1.4512  -21.9828  -49.5768 H         1 UNK         0.0800 
    142 H142       -0.1888  -21.1958  -48.6622 H         1 UNK         0.0800 
    143 H143       -0.7497  -24.1947  -48.6115 H         1 UNK         0.0600 
    144 H144        1.3557  -22.6732  -47.3136 H         1 UNK         0.3000 
    145 H145        2.2842  -25.3555  -45.1316 H         1 UNK         0.0600 
    146 H146        4.4405  -25.1689  -46.3363 H         1 UNK         0.0600 
    147 H147        3.2712  -26.0211  -47.3318 H         1 UNK         0.0600 
    148 H148        3.6533  -24.3390  -47.6797 H         1 UNK         0.0600 
    149 H149        3.5723  -22.9009  -45.6452 H         1 UNK         0.3000 
    150 H150        2.3704  -21.3032  -42.8407 H         1 UNK         0.0600 
    151 H151        4.6224  -21.9084  -43.7792 H         1 UNK         0.0600 
    152 H152        4.3629  -20.1747  -43.7309 H         1 UNK         0.0600 
    153 H153        4.2415  -21.0291  -45.2609 H         1 UNK         0.0600 
    154 H154        1.4391  -19.5286  -43.7731 H         1 UNK         0.3000 
    155 H155        1.3831  -18.1358  -46.9106 H         1 UNK         0.0600 
    156 H156       -1.1975  -19.3032  -45.7511 H         1 UNK         0.0600 
    157 H157       -0.7088  -19.3417  -47.4281 H         1 UNK         0.0600 
    158 H158       -1.1346  -17.8164  -46.6743 H         1 UNK         0.0600 
    159 H159        0.0061  -17.4679  -44.4754 H         1 UNK         0.3000 
    160 H160        2.7242  -16.4978  -42.5679 H         1 UNK         0.0600 
    161 H161        1.1919  -14.3407  -44.1162 H         1 UNK         0.0600 
    162 H162        2.9416  -14.4883  -44.0460 H         1 UNK         0.0600 
    163 H163        2.0365  -14.1175  -42.5875 H         1 UNK         0.0600 
    164 H164       -0.0027  -15.6677  -42.4316 H         1 UNK         0.3000 
    165 H165       -1.5217  -18.6583  -41.4767 H         1 UNK         0.0600 
    166 H166       -2.0403  -17.5760  -39.3030 H         1 UNK         0.0600 
    167 H167       -0.3880  -18.1695  -39.2968 H         1 UNK         0.0600 
    168 H168       -0.6975  -16.4505  -39.5107 H         1 UNK         0.0600 
    169 H169       -2.4553  -16.0126  -41.2175 H         1 UNK         0.3000 
    170 H170       -3.1850  -15.2237  -44.5751 H         1 UNK         0.0600 
    171 H171       -5.0342  -16.8183  -44.0816 H         1 UNK         0.0600 
    172 H172       -5.1393  -16.2181  -42.4308 H         1 UNK         0.0600 
    173 H173       -5.5396  -15.1623  -43.7861 H         1 UNK         0.0600 
    174 H174       -3.8945  -14.1468  -41.9730 H         1 UNK         0.3000 
    175 H175       -3.0158  -12.0655  -41.4039 H         1 UNK         0.0600 
    176 H176       -0.3911  -13.4786  -40.6430 H         1 UNK         0.0600 
    177 H177       -1.2585  -12.3293  -39.6259 H         1 UNK         0.0600 
    178 H178       -1.9913  -13.8722  -40.0257 H         1 UNK         0.0600 
    179 H179       -0.1939  -11.4246  -41.9523 H         1 UNK         0.3000 
    180 H180       -1.0264   -8.6543  -44.0711 H         1 UNK         0.0600 
    181 H181        0.8556   -7.8074  -42.6896 H         1 UNK         0.0600 
    182 H182        0.7067   -9.1666  -41.5797 H         1 UNK         0.0600 
    183 H183       -0.5729   -7.9623  -41.6825 H         1 UNK         0.0600 
    184 H184        0.3276  -11.1614  -43.9365 H         1 UNK         0.3000 
    185 H185        2.5035  -10.3507  -46.6564 H         1 UNK         0.0600 
    186 H186        3.8109  -12.1028  -45.4447 H         1 UNK         0.0600 
    187 H187        3.9097  -10.5573  -44.6141 H         1 UNK         0.0600 
    188 H188        2.8635  -11.8243  -43.9851 H         1 UNK         0.0600 
    189 H189        0.4579  -12.1578  -45.4960 H         1 UNK         0.3000 
    190 H190       -0.5317  -22.1884  -45.7087 H         1 UNK         0.3000 
    191 H191       -3.4181  -22.0567  -45.2671 H         1 UNK         0.0600 
    192 H192       -2.6025  -21.4272  -42.8731 H         1 UNK         0.0600 
    193 H193       -2.2725  -20.3019  -44.1594 H         1 UNK         0.0600 
    194 H194       -0.9888  -21.3527  -43.5603 H         1 UNK         0.0600 
    195 H195       -0.6875  -24.0298  -44.0322 H         1 UNK         0.3000 
    196 H196       -2.1497  -25.6802  -42.2914 H         1 UNK         0.0600 
    197 H197        0.4314  -26.2888  -43.8275 H         1 UNK         0.0600 
    198 H198        0.3266  -25.4656  -42.2727 H         1 UNK         0.0600 
    199 H199       -0.1430  -27.1540  -42.4078 H         1 UNK         0.0600 
    200 H200       -1.3925  -26.1662  -45.7664 H         1 UNK         0.3000 
    201 H201       -2.7905  -28.6918  -45.9797 H         1 UNK         0.0600 
    202 H202       -1.8301  -26.7034  -48.1077 H         1 UNK         0.0600 
    203 H203       -2.3497  -28.3567  -48.4139 H         1 UNK         0.0600 
    204 H204       -0.8989  -28.0573  -47.4698 H         1 UNK         0.0600 
    205 H205       -3.8832  -25.4453  -45.8414 H         1 UNK         0.3000 
    206 H206       -5.6855  -24.2756  -46.3322 H         1 UNK         0.0600 
    207 H207       -6.8816  -25.9948  -44.9600 H         1 UNK         0.0600 
    208 H208       -7.9148  -25.3247  -46.2122 H         1 UNK         0.0600 
    209 H209       -7.2236  -26.9278  -46.4166 H         1 UNK         0.0600 
    210 H210       -3.9898  -24.6207  -48.3672 H         1 UNK         0.3000 
    211 H211       -5.4001  -25.4971  -50.8286 H         1 UNK         0.0600 
    212 H212       -3.1197  -25.4640  -51.7869 H         1 UNK         0.0600 
    213 H213       -3.1571  -26.4508  -50.3372 H         1 UNK         0.0600 
    214 H214       -2.4580  -24.8346  -50.2796 H         1 UNK         0.0600 
    215 H215       -6.8401  -23.5891  -50.5549 H         1 UNK         0.3000 
    216 H216       -6.0119  -20.9133  -50.7912 H         1 UNK         0.0600 
    217 H217       -8.5996  -22.2455  -51.7533 H         1 UNK         0.0600 
    218 H218       -8.3666  -20.5152  -51.5320 H         1 UNK         0.0600 
    219 H219       -8.3040  -21.5886  -50.1432 H         1 UNK         0.0600 
    220 H220       -6.4558  -23.3658  -53.3076 H         1 UNK         0.3000 
    221 H221       -6.2144  -21.6338  -55.5840 H         1 UNK         0.0600 
    222 H222       -7.2472  -23.8871  -55.7181 H         1 UNK         0.0600 
    223 H223       -5.7149  -24.6455  -55.2831 H         1 UNK         0.0600 
    224 H224       -5.8749  -23.7840  -56.8089 H         1 UNK         0.0600 
    225 H225       -3.8391  -23.1901  -53.4613 H         1 UNK         0.3000 
    226 H226       -1.5604  -22.6437  -55.2299 H         1 UNK         0.0600 
    227 H227       -1.6075  -23.6004  -52.3244 H         1 UNK         0.0600 
    228 H228       -1.5689  -24.6571  -53.7376 H         1 UNK         0.0600 
    229 H229       -0.2228  -23.5787  -53.4011 H         1 UNK         0.0600 
    230 H230       -3.0220  -21.3533  -52.2202 H         1 UNK         0.3000 
    231 H231       -1.1863  -19.2556  -51.7682 H         1 UNK         0.0600 
    232 H232       -4.1413  -19.4277  -50.9868 H         1 UNK         0.0600 
    233 H233       -2.9347  -18.3840  -50.2460 H         1 UNK         0.0600 
    234 H234       -2.8077  -20.1263  -50.0705 H         1 UNK         0.0600 
    235 H235       -3.8032  -19.4563  -54.0782 H         1 UNK         0.3000 
    236 H236       -3.9542  -16.6361  -54.7204 H         1 UNK         0.0600 
    237 H237       -5.8247  -18.2143  -55.1774 H         1 UNK         0.0600 
    238 H238       -5.2694  -17.4648  -56.6663 H         1 UNK         0.0600 
    239 H239       -4.8094  -19.1217  -56.2977 H         1 UNK         0.0600 
    240 H240       -1.6460  -19.0986  -55.4006 H         1 UNK         0.3000 
    241 H241        0.1604  -19.2943  -56.5542 H         1 UNK         0.0600 
    242 H242        0.2840  -18.6764  -60.2310 H         1 UNK         0.3800 
    243 H243        1.3579  -18.2366  -58.9369 H         1 UNK         0.3800 
    244 H244        0.2665  -16.3038  -57.1283 H         1 UNK         0.0800 
    245 H245        1.6150  -17.4005  -56.9858 H         1 UNK         0.0800 
    246 H246        2.8518  -17.8598  -54.3213 H         1 UNK         0.0800 
    247 H247        1.5948  -19.0090  -54.7192 H         1 UNK         0.0800 
@<TRIPOS>BOND
     1    1    2 1    
     2    1  127 1    
     3    1  128 1    
     4    1  129 1    
     5    2    3 2    
     6    2    4 am   BACKBONE|DICT|INTERRES
     7    4    5 1    
     8    4  130 1    
     9    5    6 1    
    10    5   65 1    
    11    5  131 1    
    12    6    7 1    
    13    6  132 1    
    14    6  133 1    
    15    7    8 1    
    16    8    9 1    
    17    8  134 1    
    18    8  135 1    
    19    9   10 ar   
    20    9   14 ar   
    21   10   11 ar   
    22   10  136 1    
    23   11   12 ar   
    24   11  126 1    
    25   12   13 ar   
    26   12  137 1    
    27   13   14 ar   
    28   13   15 1    
    29   14  138 1    
    30   15   16 1    
    31   15  139 1    
    32   15  140 1    
    33   16   17 1    
    34   17   18 1    
    35   17  141 1    
    36   17  142 1    
    37   18   19 1    
    38   18   67 1    
    39   18  143 1    
    40   19   20 am   BACKBONE|DICT|INTERRES
    41   19  144 1    
    42   20   21 2    
    43   20   22 1    
    44   22   23 1    
    45   22   24 1    
    46   22  145 1    
    47   23  146 1    
    48   23  147 1    
    49   23  148 1    
    50   24   25 am   BACKBONE|DICT|INTERRES
    51   24  149 1    
    52   25   26 2    
    53   25   27 1    
    54   27   28 1    
    55   27   29 1    
    56   27  150 1    
    57   28  151 1    
    58   28  152 1    
    59   28  153 1    
    60   29   30 am   BACKBONE|DICT|INTERRES
    61   29  154 1    
    62   30   31 2    
    63   30   32 1    
    64   32   33 1    
    65   32   34 1    
    66   32  155 1    
    67   33  156 1    
    68   33  157 1    
    69   33  158 1    
    70   34   35 am   BACKBONE|DICT|INTERRES
    71   34  159 1    
    72   35   36 2    
    73   35   37 1    
    74   37   38 1    
    75   37   39 1    
    76   37  160 1    
    77   38  161 1    
    78   38  162 1    
    79   38  163 1    
    80   39   40 am   BACKBONE|DICT|INTERRES
    81   39  164 1    
    82   40   41 2    
    83   40   42 1    
    84   42   43 1    
    85   42   44 1    
    86   42  165 1    
    87   43  166 1    
    88   43  167 1    
    89   43  168 1    
    90   44   45 am   BACKBONE|DICT|INTERRES
    91   44  169 1    
    92   45   46 2    
    93   45   47 1    
    94   47   48 1    
    95   47   49 1    
    96   47  170 1    
    97   48  171 1    
    98   48  172 1    
    99   48  173 1    
   100   49   50 am   BACKBONE|DICT|INTERRES
   101   49  174 1    
   102   50   51 2    
   103   50   52 1    
   104   52   53 1    
   105   52   54 1    
   106   52  175 1    
   107   53  176 1    
   108   53  177 1    
   109   53  178 1    
   110   54   55 am   BACKBONE|DICT|INTERRES
   111   54  179 1    
   112   55   56 2    
   113   55   57 1    
   114   57   58 1    
   115   57   59 1    
   116   57  180 1    
   117   58  181 1    
   118   58  182 1    
   119   58  183 1    
   120   59   60 am   BACKBONE|DICT|INTERRES
   121   59  184 1    
   122   60   61 2    
   123   60   62 1    
   124   62   63 1    
   125   62   64 1    
   126   62  185 1    
   127   63  186 1    
   128   63  187 1    
   129   63  188 1    
   130   64   65 am   BACKBONE|DICT|INTERRES
   131   64  189 1    
   132   65   66 2    
   133   67   68 2    
   134   67   69 am   BACKBONE|DICT|INTERRES
   135   69   70 1    
   136   69  190 1    
   137   70   71 1    
   138   70   72 1    
   139   70  191 1    
   140   71  192 1    
   141   71  193 1    
   142   71  194 1    
   143   72   73 2    
   144   72   74 am   BACKBONE|DICT|INTERRES
   145   74   75 1    
   146   74  195 1    
   147   75   76 1    
   148   75   77 1    
   149   75  196 1    
   150   76  197 1    
   151   76  198 1    
   152   76  199 1    
   153   77   78 2    
   154   77   79 am   BACKBONE|DICT|INTERRES
   155   79   80 1    
   156   79  200 1    
   157   80   81 1    
   158   80   82 1    
   159   80  201 1    
   160   81  202 1    
   161   81  203 1    
   162   81  204 1    
   163   82   83 2    
   164   82   84 am   BACKBONE|DICT|INTERRES
   165   84   85 1    
   166   84  205 1    
   167   85   86 1    
   168   85   87 1    
   169   85  206 1    
   170   86  207 1    
   171   86  208 1    
   172   86  209 1    
   173   87   88 2    
   174   87   89 am   BACKBONE|DICT|INTERRES
   175   89   90 1    
   176   89  210 1    
   177   90   91 1    
   178   90   92 1    
   179   90  211 1    
   180   91  212 1    
   181   91  213 1    
   182   91  214 1    
   183   92   93 2    
   184   92   94 am   BACKBONE|DICT|INTERRES
   185   94   95 1    
   186   94  215 1    
   187   95   96 1    
   188   95   97 1    
   189   95  216 1    
   190   96  217 1    
   191   96  218 1    
   192   96  219 1    
   193   97   98 2    
   194   97   99 am   BACKBONE|DICT|INTERRES
   195   99  100 1    
   196   99  220 1    
   197  100  101 1    
   198  100  102 1    
   199  100  221 1    
   200  101  222 1    
   201  101  223 1    
   202  101  224 1    
   203  102  103 2    
   204  102  104 am   BACKBONE|DICT|INTERRES
   205  104  105 1    
   206  104  225 1    
   207  105  106 1    
   208  105  107 1    
   209  105  226 1    
   210  106  227 1    
   211  106  228 1    
   212  106  229 1    
   213  107  108 2    
   214  107  109 am   BACKBONE|DICT|INTERRES
   215  109  110 1    
   216  109  230 1    
   217  110  111 1    
   218  110  112 1    
   219  110  231 1    
   220  111  232 1    
   221  111  233 1    
   222  111  234 1    
   223  112  113 2    
   224  112  114 am   BACKBONE|DICT|INTERRES
   225  114  115 1    
   226  114  235 1    
   227  115  116 1    
   228  115  117 1    
   229  115  236 1    
   230  116  237 1    
   231  116  238 1    
   232  116  239 1    
   233  117  118 2    
   234  117  119 am   BACKBONE|DICT|INTERRES
   235  119  120 1    
   236  119  240 1    
   237  120  121 1    
   238  120  124 1    
   239  120  241 1    
   240  121  122 am   BACKBONE|DICT|INTERRES
   241  121  123 2    
   242  122  242 1    
   243  122  243 1    
   244  124  125 1    
   245  124  244 1    
   246  124  245 1    
   247  125  126 1    
   248  126  246 1    
   249  126  247 1    
@<TRIPOS>SUBSTRUCTURE
     1 UNK         1 GROUP             0       ****    0 ROOT    
