@<TRIPOS>MOLECULE
3R540
247   249    1
SMALL
USER_CHARGES


@<TRIPOS>ATOM
      1 CA          4.5165  -18.1474  -45.8966 C.3       0 UNK        -0.1800 
      2 C           4.3465  -16.9545  -46.8270 C.2       0 UNK         0.5000 
      3 O           4.9998  -15.9293  -46.6327 O.2       0 UNK        -0.5000 
      4 N           3.4814  -17.0972  -47.8403 N.am      1 UNK        -0.5000 
      5 CA          3.1316  -16.0769  -48.8381 C.3       1 UNK         0.1400 
      6 C6          4.3728  -15.5180  -49.5990 C.3       23 UNK        -0.0398 
      7 S7          4.0404  -15.2259  -51.3698 S.3       23 UNK        -0.2404 
      8 C8          4.8516  -16.6673  -52.1349 C.3       23 UNK        -0.0205 
      9 C9          4.1544  -17.9693  -51.7695 C.ar      23 UNK        -0.0193 
     10 C10         3.0187  -18.3768  -52.4720 C.ar      23 UNK        -0.1150 
     11 C11         2.3647  -19.5631  -52.1308 C.ar      23 UNK        -0.0193 
     12 C12         2.8619  -20.3497  -51.0897 C.ar      23 UNK        -0.1150 
     13 C13         3.9799  -19.9392  -50.3530 C.ar      23 UNK        -0.0193 
     14 C14         4.6312  -18.7578  -50.7183 C.ar      23 UNK        -0.1150 
     15 C15         4.5214  -20.7233  -49.1574 C.3       23 UNK        -0.0205 
     16 S16         3.4309  -22.0270  -48.4925 S.3       23 UNK        -0.2404 
     17 C17         2.0391  -21.0756  -47.7819 C.3       23 UNK        -0.0398 
     18 CA          0.9306  -22.0328  -47.2786 C.3       11 UNK         0.1400 
     19 N           0.2582  -21.5614  -46.0665 N.am      11 UNK        -0.5000 
     20 C          -0.3892  -22.3920  -45.2353 C.2       10 UNK         0.5000 
     21 O          -0.4941  -23.6052  -45.4262 O.2       10 UNK        -0.5000 
     22 CA         -1.0620  -21.7630  -44.0052 C.3       10 UNK         0.1400 
     23 CB         -0.0146  -21.3594  -42.9563 C.3       10 UNK        -0.1800 
     24 N          -1.8978  -20.6127  -44.3449 N.am      10 UNK        -0.5000 
     25 C          -2.9615  -20.6645  -45.1589 C.2       9 UNK         0.5000 
     26 O          -3.3531  -21.6924  -45.7101 O.2       9 UNK        -0.5000 
     27 CA         -3.6905  -19.3422  -45.4389 C.3       9 UNK         0.1400 
     28 CB         -4.6204  -18.9698  -44.2754 C.3       9 UNK        -0.1800 
     29 N          -2.7847  -18.2313  -45.7290 N.am      9 UNK        -0.5000 
     30 C          -1.9267  -18.1978  -46.7586 C.2       8 UNK         0.5000 
     31 O          -1.8124  -19.0962  -47.5884 O.2       8 UNK        -0.5000 
     32 CA         -1.0037  -16.9760  -46.8541 C.3       8 UNK         0.1400 
     33 CB         -1.7808  -15.7404  -47.3272 C.3       8 UNK        -0.1800 
     34 N          -0.3463  -16.6918  -45.5843 N.am      8 UNK        -0.5000 
     35 C           0.4897  -17.5241  -44.9486 C.2       7 UNK         0.5000 
     36 O           0.8509  -18.6178  -45.3911 O.2       7 UNK        -0.5000 
     37 CA          0.9431  -17.0772  -43.5481 C.3       7 UNK         0.1400 
     38 CB          2.0748  -16.0413  -43.6334 C.3       7 UNK        -0.1800 
     39 N          -0.1654  -16.5233  -42.7673 N.am      7 UNK        -0.5000 
     40 C          -1.2158  -17.2314  -42.3275 C.2       6 UNK         0.5000 
     41 O          -1.3511  -18.4400  -42.5090 O.2       6 UNK        -0.5000 
     42 CA         -2.3176  -16.4509  -41.5890 C.3       6 UNK         0.1400 
     43 CB         -1.9436  -16.2505  -40.1129 C.3       6 UNK        -0.1800 
     44 N          -2.5908  -15.1510  -42.2015 N.am      6 UNK        -0.5000 
     45 C          -3.1458  -14.9843  -43.4105 C.2       5 UNK         0.5000 
     46 O          -3.5177  -15.9116  -44.1281 O.2       5 UNK        -0.5000 
     47 CA         -3.2510  -13.5358  -43.9228 C.3       5 UNK         0.1400 
     48 CB         -4.5268  -12.8641  -43.3941 C.3       5 UNK        -0.1800 
     49 N          -2.0835  -12.7213  -43.5693 N.am      5 UNK        -0.5000 
     50 C          -0.8406  -12.9737  -43.9975 C.2       4 UNK         0.5000 
     51 O          -0.5525  -13.9201  -44.7351 O.2       4 UNK        -0.5000 
     52 CA          0.2716  -12.0507  -43.4870 C.3       4 UNK         0.1400 
     53 CB          0.7372  -12.4778  -42.0831 C.3       4 UNK        -0.1800 
     54 N           1.3760  -12.1378  -44.4309 N.am      4 UNK        -0.5000 
     55 C           2.3644  -11.2523  -44.5917 C.2       3 UNK         0.5000 
     56 O           2.5109  -10.2504  -43.8906 O.2       3 UNK        -0.5000 
     57 CA          3.3442  -11.5255  -45.7495 C.3       3 UNK         0.1400 
     58 CB          4.5570  -12.3257  -45.2505 C.3       3 UNK        -0.1800 
     59 N           2.7154  -12.2616  -46.8468 N.am      3 UNK        -0.5000 
     60 C           1.8074  -11.7662  -47.6974 C.2       2 UNK         0.5000 
     61 O           1.4751  -10.5798  -47.7006 O.2       2 UNK        -0.5000 
     62 CA          1.1535  -12.7487  -48.7015 C.3       2 UNK         0.1400 
     63 CB          0.7472  -12.0482  -50.0103 C.3       2 UNK        -0.1800 
     64 N           1.9655  -13.9235  -49.0399 N.am      2 UNK        -0.5000 
     65 C           2.2499  -14.9565  -48.2383 C.2       1 UNK         0.5000 
     66 O           1.8620  -15.0182  -47.0707 O.2       1 UNK        -0.5000 
     67 C          -0.0690  -22.4386  -48.3827 C.2       11 UNK         0.5000 
     68 O           0.1853  -23.4197  -49.0792 O.2       11 UNK        -0.5000 
     69 N          -1.2131  -21.7442  -48.4917 N.am      12 UNK        -0.5000 
     70 CA         -2.2919  -22.1075  -49.4142 C.3       12 UNK         0.1400 
     71 CB         -3.3411  -20.9915  -49.4915 C.3       12 UNK        -0.1800 
     72 C          -2.9559  -23.4455  -49.0569 C.2       12 UNK         0.5000 
     73 O          -3.2863  -24.2093  -49.9636 O.2       12 UNK        -0.5000 
     74 N          -3.1202  -23.7282  -47.7578 N.am      13 UNK        -0.5000 
     75 CA         -3.5939  -25.0175  -47.2557 C.3       13 UNK         0.1400 
     76 CB         -3.8997  -24.9166  -45.7545 C.3       13 UNK        -0.1800 
     77 C          -2.5944  -26.1522  -47.5423 C.2       13 UNK         0.5000 
     78 O          -3.0112  -27.2218  -47.9865 O.2       13 UNK        -0.5000 
     79 N          -1.2958  -25.8859  -47.3351 N.am      14 UNK        -0.5000 
     80 CA         -0.1994  -26.8117  -47.6364 C.3       14 UNK         0.1400 
     81 CB          1.1154  -26.2549  -47.0700 C.3       14 UNK        -0.1800 
     82 C          -0.0630  -27.1151  -49.1422 C.2       14 UNK         0.5000 
     83 O           0.1760  -28.2648  -49.5126 O.2       14 UNK        -0.5000 
     84 N          -0.2532  -26.0880  -49.9811 N.am      15 UNK        -0.5000 
     85 CA         -0.2653  -26.1776  -51.4433 C.3       15 UNK         0.1400 
     86 CB         -0.0717  -24.7661  -52.0230 C.3       15 UNK        -0.1800 
     87 C          -1.5486  -26.8144  -52.0173 C.2       15 UNK         0.5000 
     88 O          -1.5800  -27.1204  -53.2098 O.2       15 UNK        -0.5000 
     89 N          -2.5826  -26.9751  -51.1771 N.am      16 UNK        -0.5000 
     90 CA         -3.9352  -27.4492  -51.4930 C.3       16 UNK         0.1400 
     91 CB         -3.9151  -28.9015  -52.0135 C.3       16 UNK        -0.1800 
     92 C          -4.7248  -26.4871  -52.4091 C.2       16 UNK         0.5000 
     93 O          -5.6601  -26.9107  -53.0904 O.2       16 UNK        -0.5000 
     94 N          -4.3520  -25.2015  -52.3851 N.am      17 UNK        -0.5000 
     95 CA         -5.0632  -24.1015  -53.0345 C.3       17 UNK         0.1400 
     96 CB         -4.0636  -22.9734  -53.3323 C.3       17 UNK        -0.1800 
     97 C          -6.2230  -23.5906  -52.1573 C.2       17 UNK         0.5000 
     98 O          -7.2386  -23.1497  -52.6965 O.2       17 UNK        -0.5000 
     99 N          -6.0512  -23.7024  -50.8301 N.am      18 UNK        -0.5000 
    100 CA        -6.9875  -23.3522  -49.7577 C.3       18 UNK         0.1400 
    101 CB        -8.2673  -24.2105  -49.8588 C.3       18 UNK        -0.1800 
    102 C         -7.2895  -21.8405  -49.6537 C.2       18 UNK         0.5000 
    103 O         -6.6657  -21.0237  -50.3377 O.2       18 UNK        -0.5000 
    104 N         -8.2175  -21.4954  -48.7465 N.am      19 UNK        -0.5000 
    105 CA        -8.6137  -20.1371  -48.3590 C.3       19 UNK         0.1400 
    106 CB        -9.3973  -19.4551  -49.5045 C.3       19 UNK        -0.1800 
    107 C         -7.3914  -19.3407  -47.8575 C.2       19 UNK         0.5000 
    108 O         -6.8173  -19.7113  -46.8341 O.2       19 UNK        -0.5000 
    109 N         -6.9914  -18.3108  -48.6073 N.am      20 UNK        -0.5000 
    110 CA        -5.7197  -17.6081  -48.4760 C.3       20 UNK         0.1400 
    111 CB        -5.8613  -16.4081  -47.5214 C.3       20 UNK        -0.1800 
    112 C         -5.2240  -17.2336  -49.8814 C.2       20 UNK         0.5000 
    113 O         -4.7707  -16.1095  -50.1018 O.2       20 UNK        -0.5000 
    114 N         -5.3409  -18.1875  -50.8206 N.am      21 UNK        -0.5000 
    115 CA        -5.0490  -18.0304  -52.2515 C.3       21 UNK         0.1400 
    116 CB        -5.3474  -19.3600  -52.9591 C.3       21 UNK        -0.1800 
    117 C         -3.6159  -17.5630  -52.5786 C.2       21 UNK         0.5000 
    118 O         -3.4040  -16.9342  -53.6161 O.2       21 UNK        -0.5000 
    119 N         -2.6719  -17.8621  -51.6809 N.am      22 UNK        -0.5000 
    120 CA        -1.2751  -17.4096  -51.7315 C.3       22 UNK         0.1400 
    121 C         -1.0531  -15.9386  -51.2678 C.2       22 UNK         0.5000 
    122 N         -2.0671  -15.2082  -50.8182 N.am      22 UNK        -0.7600 
    123 O          0.0686  -15.4448  -51.3268 O.2       22 UNK        -0.5000 
    124 C124       -0.3494  -18.3835  -50.9659 C.3       23 UNK        -0.0398 
    125 S125       -0.3383  -20.0539  -51.7081 S.3       23 UNK        -0.2404 
    126 C126        1.0846  -19.9674  -52.8458 C.3       23 UNK        -0.0205 
    127 H127        4.7702  -17.8145  -44.8903 H         1 UNK         0.0600 
    128 H128        3.6024  -18.7367  -45.8338 H         1 UNK         0.0600 
    129 H129        5.3215  -18.7902  -46.2519 H         1 UNK         0.0600 
    130 H130        2.9543  -17.9544  -47.9088 H         1 UNK         0.3000 
    131 H131        2.4944  -16.6042  -49.5501 H         1 UNK         0.0600 
    132 H132        5.2143  -16.2060  -49.5224 H         1 UNK         0.0800 
    133 H133        4.7373  -14.5926  -49.1486 H         1 UNK         0.0800 
    134 H134        4.8434  -16.5415  -53.2186 H         1 UNK         0.0800 
    135 H135        5.9023  -16.6972  -51.8421 H         1 UNK         0.0800 
    136 H136        2.6334  -17.7565  -53.2693 H         1 UNK         0.1150 
    137 H137        2.3399  -21.2622  -50.8412 H         1 UNK         0.1150 
    138 H138        5.5052  -18.4416  -50.1667 H         1 UNK         0.1150 
    139 H139        5.4613  -21.1892  -49.4557 H         1 UNK         0.0800 
    140 H140        4.7638  -20.0331  -48.3488 H         1 UNK         0.0800 
    141 H141        1.6524  -20.3516  -48.5012 H         1 UNK         0.0800 
    142 H142        2.4398  -20.4953  -46.9507 H         1 UNK         0.0800 
    143 H143        1.4295  -22.9580  -46.9807 H         1 UNK         0.0600 
    144 H144        0.3012  -20.5686  -45.8577 H         1 UNK         0.3000 
    145 H145       -1.7100  -22.5213  -43.5609 H         1 UNK         0.0600 
    146 H146       -0.4907  -21.0294  -42.0329 H         1 UNK         0.0600 
    147 H147        0.6325  -22.2005  -42.7044 H         1 UNK         0.0600 
    148 H148        0.6218  -20.5483  -43.3120 H         1 UNK         0.0600 
    149 H149       -1.6606  -19.7321  -43.8961 H         1 UNK         0.3000 
    150 H150       -4.3024  -19.5063  -46.3238 H         1 UNK         0.0600 
    151 H151       -5.3095  -19.7850  -44.0513 H         1 UNK         0.0600 
    152 H152       -5.2240  -18.0961  -44.5210 H         1 UNK         0.0600 
    153 H153       -4.0612  -18.7483  -43.3663 H         1 UNK         0.0600 
    154 H154       -2.8401  -17.4302  -45.1061 H         1 UNK         0.3000 
    155 H155       -0.2291  -17.1963  -47.5915 H         1 UNK         0.0600 
    156 H156       -2.4868  -15.3920  -46.5743 H         1 UNK         0.0600 
    157 H157       -2.3505  -15.9592  -48.2297 H         1 UNK         0.0600 
    158 H158       -1.1043  -14.9179  -47.5547 H         1 UNK         0.0600 
    159 H159       -0.5278  -15.7791  -45.1762 H         1 UNK         0.3000 
    160 H160        1.3231  -17.9561  -43.0231 H         1 UNK         0.0600 
    161 H161        2.9320  -16.4451  -44.1694 H         1 UNK         0.0600 
    162 H162        2.4211  -15.7495  -42.6420 H         1 UNK         0.0600 
    163 H163        1.7633  -15.1397  -44.1604 H         1 UNK         0.0600 
    164 H164       -0.1602  -15.5265  -42.6175 H         1 UNK         0.3000 
    165 H165       -3.2326  -17.0456  -41.6311 H         1 UNK         0.0600 
    166 H166       -2.7519  -15.7672  -39.5638 H         1 UNK         0.0600 
    167 H167       -1.7490  -17.2076  -39.6270 H         1 UNK         0.0600 
    168 H168       -1.0482  -15.6377  -40.0017 H         1 UNK         0.0600 
    169 H169       -2.3162  -14.3318  -41.6803 H         1 UNK         0.3000 
    170 H170       -3.3145  -13.5756  -45.0123 H         1 UNK         0.0600 
    171 H171       -5.4114  -13.4444  -43.6603 H         1 UNK         0.0600 
    172 H172       -4.5124  -12.7667  -42.3079 H         1 UNK         0.0600 
    173 H173       -4.6533  -11.8683  -43.8194 H         1 UNK         0.0600 
    174 H174       -2.2483  -11.9305  -42.9630 H         1 UNK         0.3000 
    175 H175       -0.1041  -11.0258  -43.4626 H         1 UNK         0.0600 
    176 H176       -0.0854  -12.4443  -41.3680 H         1 UNK         0.0600 
    177 H177        1.1344  -13.4932  -42.0824 H         1 UNK         0.0600 
    178 H178        1.5173  -11.8162  -41.7066 H         1 UNK         0.0600 
    179 H179        1.3016  -12.9210  -45.0701 H         1 UNK         0.3000 
    180 H180        3.6945  -10.5638  -46.1298 H         1 UNK         0.0600 
    181 H181        4.2644  -13.3083  -44.8768 H         1 UNK         0.0600 
    182 H182        5.0647  -11.8021  -44.4394 H         1 UNK         0.0600 
    183 H183        5.2854  -12.4760  -46.0475 H         1 UNK         0.0600 
    184 H184        2.8683  -13.2631  -46.8678 H         1 UNK         0.3000 
    185 H185        0.2405  -13.1056  -48.2228 H         1 UNK         0.0600 
    186 H186        0.0543  -11.2269  -49.8232 H         1 UNK         0.0600 
    187 H187        1.6141  -11.6376  -50.5292 H         1 UNK         0.0600 
    188 H188        0.2466  -12.7383  -50.6894 H         1 UNK         0.0600 
    189 H189        2.3164  -13.9532  -49.9880 H         1 UNK         0.3000 
    190 H190       -1.3644  -20.9155  -47.9226 H         1 UNK         0.3000 
    191 H191       -1.8547  -22.2218  -50.4074 H         1 UNK         0.0600 
    192 H192       -3.8436  -20.8366  -48.5359 H         1 UNK         0.0600 
    193 H193       -4.1008  -21.2343  -50.2331 H         1 UNK         0.0600 
    194 H194       -2.8903  -20.0487  -49.7950 H         1 UNK         0.0600 
    195 H195       -2.8990  -23.0209  -47.0621 H         1 UNK         0.3000 
    196 H196       -4.5254  -25.2579  -47.7726 H         1 UNK         0.0600 
    197 H197       -3.0177  -24.6323  -45.1802 H         1 UNK         0.0600 
    198 H198       -4.2553  -25.8701  -45.3625 H         1 UNK         0.0600 
    199 H199       -4.6758  -24.1758  -45.5614 H         1 UNK         0.0600 
    200 H200       -1.0400  -24.9905  -46.9334 H         1 UNK         0.3000 
    201 H201       -0.4138  -27.7536  -47.1272 H         1 UNK         0.0600 
    202 H202        1.0373  -26.0682  -45.9988 H         1 UNK         0.0600 
    203 H203        1.3996  -25.3203  -47.5531 H         1 UNK         0.0600 
    204 H204        1.9331  -26.9610  -47.2194 H         1 UNK         0.0600 
    205 H205       -0.3523  -25.1543  -49.5893 H         1 UNK         0.3000 
    206 H206        0.5771  -26.7963  -51.7586 H         1 UNK         0.0600 
    207 H207       -0.8886  -24.1013  -51.7402 H         1 UNK         0.0600 
    208 H208       -0.0302  -24.7893  -53.1126 H         1 UNK         0.0600 
    209 H209        0.8590  -24.3189  -51.6732 H         1 UNK         0.0600 
    210 H210       -2.4475  -26.6794  -50.2191 H         1 UNK         0.3000 
    211 H211       -4.4710  -27.4541  -50.5428 H         1 UNK         0.0600 
    212 H212       -3.4737  -28.9721  -53.0077 H         1 UNK         0.0600 
    213 H213       -4.9254  -29.3071  -52.0775 H         1 UNK         0.0600 
    214 H214       -3.3482  -29.5509  -51.3464 H         1 UNK         0.0600 
    215 H215       -3.6224  -24.9390  -51.7302 H         1 UNK         0.3000 
    216 H216       -5.4788  -24.4506  -53.9820 H         1 UNK         0.0600 
    217 H217       -4.5458  -22.1667  -53.8848 H         1 UNK         0.0600 
    218 H218       -3.2341  -23.3322  -53.9418 H         1 UNK         0.0600 
    219 H219       -3.6471  -22.5485  -52.4182 H         1 UNK         0.0600 
    220 H220       -5.1454  -24.0348  -50.5169 H         1 UNK         0.3000 
    221 H221       -6.4790  -23.6219  -48.8309 H         1 UNK         0.0600 
    222 H222       -8.8947  -23.9045  -50.6966 H         1 UNK         0.0600 
    223 H223       -8.0238  -25.2647  -49.9929 H         1 UNK         0.0600 
    224 H224       -8.8716  -24.1382  -48.9544 H         1 UNK         0.0600 
    225 H225       -8.6470  -22.2332  -48.2071 H         1 UNK         0.3000 
    226 H226       -9.2881  -20.2342  -47.5070 H         1 UNK         0.0600 
    227 H227      -10.2853  -20.0331  -49.7608 H         1 UNK         0.0600 
    228 H228       -9.7383  -18.4614  -49.2112 H         1 UNK         0.0600 
    229 H229       -8.8037  -19.3517  -50.4134 H         1 UNK         0.0600 
    230 H230       -7.5243  -18.0915  -49.4378 H         1 UNK         0.3000 
    231 H231       -4.9676  -18.2855  -48.0716 H         1 UNK         0.0600 
    232 H232       -4.9096  -15.8904  -47.3978 H         1 UNK         0.0600 
    233 H233       -6.1820  -16.7298  -46.5306 H         1 UNK         0.0600 
    234 H234       -6.5877  -15.6845  -47.8923 H         1 UNK         0.0600 
    235 H235       -5.7231  -19.0886  -50.5506 H         1 UNK         0.3000 
    236 H236       -5.7313  -17.2729  -52.6418 H         1 UNK         0.0600 
    237 H237       -5.1465  -19.2942  -54.0291 H         1 UNK         0.0600 
    238 H238       -4.7343  -20.1658  -52.5554 H         1 UNK         0.0600 
    239 H239       -6.3928  -19.6464  -52.8412 H         1 UNK         0.0600 
    240 H240       -2.9423  -18.3826  -50.8615 H         1 UNK         0.3000 
    241 H241       -0.9610  -17.4235  -52.7769 H         1 UNK         0.0600 
    242 H242       -1.8972  -14.2555  -50.5436 H         1 UNK         0.3800 
    243 H243       -3.0040  -15.5905  -50.7349 H         1 UNK         0.3800 
    244 H244        0.6676  -17.9967  -50.9126 H         1 UNK         0.0800 
    245 H245       -0.6769  -18.4774  -49.9302 H         1 UNK         0.0800 
    246 H246        0.8507  -19.2709  -53.6522 H         1 UNK         0.0800 
    247 H247        1.2272  -20.9438  -53.3105 H         1 UNK         0.0800 
@<TRIPOS>BOND
     1    1    2 1    
     2    1  127 1    
     3    1  128 1    
     4    1  129 1    
     5    2    3 2    
     6    2    4 am   BACKBONE|DICT|INTERRES
     7    4    5 1    
     8    4  130 1    
     9    5    6 1    
    10    5   65 1    
    11    5  131 1    
    12    6    7 1    
    13    6  132 1    
    14    6  133 1    
    15    7    8 1    
    16    8    9 1    
    17    8  134 1    
    18    8  135 1    
    19    9   10 ar   
    20    9   14 ar   
    21   10   11 ar   
    22   10  136 1    
    23   11   12 ar   
    24   11  126 1    
    25   12   13 ar   
    26   12  137 1    
    27   13   14 ar   
    28   13   15 1    
    29   14  138 1    
    30   15   16 1    
    31   15  139 1    
    32   15  140 1    
    33   16   17 1    
    34   17   18 1    
    35   17  141 1    
    36   17  142 1    
    37   18   19 1    
    38   18   67 1    
    39   18  143 1    
    40   19   20 am   BACKBONE|DICT|INTERRES
    41   19  144 1    
    42   20   21 2    
    43   20   22 1    
    44   22   23 1    
    45   22   24 1    
    46   22  145 1    
    47   23  146 1    
    48   23  147 1    
    49   23  148 1    
    50   24   25 am   BACKBONE|DICT|INTERRES
    51   24  149 1    
    52   25   26 2    
    53   25   27 1    
    54   27   28 1    
    55   27   29 1    
    56   27  150 1    
    57   28  151 1    
    58   28  152 1    
    59   28  153 1    
    60   29   30 am   BACKBONE|DICT|INTERRES
    61   29  154 1    
    62   30   31 2    
    63   30   32 1    
    64   32   33 1    
    65   32   34 1    
    66   32  155 1    
    67   33  156 1    
    68   33  157 1    
    69   33  158 1    
    70   34   35 am   BACKBONE|DICT|INTERRES
    71   34  159 1    
    72   35   36 2    
    73   35   37 1    
    74   37   38 1    
    75   37   39 1    
    76   37  160 1    
    77   38  161 1    
    78   38  162 1    
    79   38  163 1    
    80   39   40 am   BACKBONE|DICT|INTERRES
    81   39  164 1    
    82   40   41 2    
    83   40   42 1    
    84   42   43 1    
    85   42   44 1    
    86   42  165 1    
    87   43  166 1    
    88   43  167 1    
    89   43  168 1    
    90   44   45 am   BACKBONE|DICT|INTERRES
    91   44  169 1    
    92   45   46 2    
    93   45   47 1    
    94   47   48 1    
    95   47   49 1    
    96   47  170 1    
    97   48  171 1    
    98   48  172 1    
    99   48  173 1    
   100   49   50 am   BACKBONE|DICT|INTERRES
   101   49  174 1    
   102   50   51 2    
   103   50   52 1    
   104   52   53 1    
   105   52   54 1    
   106   52  175 1    
   107   53  176 1    
   108   53  177 1    
   109   53  178 1    
   110   54   55 am   BACKBONE|DICT|INTERRES
   111   54  179 1    
   112   55   56 2    
   113   55   57 1    
   114   57   58 1    
   115   57   59 1    
   116   57  180 1    
   117   58  181 1    
   118   58  182 1    
   119   58  183 1    
   120   59   60 am   BACKBONE|DICT|INTERRES
   121   59  184 1    
   122   60   61 2    
   123   60   62 1    
   124   62   63 1    
   125   62   64 1    
   126   62  185 1    
   127   63  186 1    
   128   63  187 1    
   129   63  188 1    
   130   64   65 am   BACKBONE|DICT|INTERRES
   131   64  189 1    
   132   65   66 2    
   133   67   68 2    
   134   67   69 am   BACKBONE|DICT|INTERRES
   135   69   70 1    
   136   69  190 1    
   137   70   71 1    
   138   70   72 1    
   139   70  191 1    
   140   71  192 1    
   141   71  193 1    
   142   71  194 1    
   143   72   73 2    
   144   72   74 am   BACKBONE|DICT|INTERRES
   145   74   75 1    
   146   74  195 1    
   147   75   76 1    
   148   75   77 1    
   149   75  196 1    
   150   76  197 1    
   151   76  198 1    
   152   76  199 1    
   153   77   78 2    
   154   77   79 am   BACKBONE|DICT|INTERRES
   155   79   80 1    
   156   79  200 1    
   157   80   81 1    
   158   80   82 1    
   159   80  201 1    
   160   81  202 1    
   161   81  203 1    
   162   81  204 1    
   163   82   83 2    
   164   82   84 am   BACKBONE|DICT|INTERRES
   165   84   85 1    
   166   84  205 1    
   167   85   86 1    
   168   85   87 1    
   169   85  206 1    
   170   86  207 1    
   171   86  208 1    
   172   86  209 1    
   173   87   88 2    
   174   87   89 am   BACKBONE|DICT|INTERRES
   175   89   90 1    
   176   89  210 1    
   177   90   91 1    
   178   90   92 1    
   179   90  211 1    
   180   91  212 1    
   181   91  213 1    
   182   91  214 1    
   183   92   93 2    
   184   92   94 am   BACKBONE|DICT|INTERRES
   185   94   95 1    
   186   94  215 1    
   187   95   96 1    
   188   95   97 1    
   189   95  216 1    
   190   96  217 1    
   191   96  218 1    
   192   96  219 1    
   193   97   98 2    
   194   97   99 am   BACKBONE|DICT|INTERRES
   195   99  100 1    
   196   99  220 1    
   197  100  101 1    
   198  100  102 1    
   199  100  221 1    
   200  101  222 1    
   201  101  223 1    
   202  101  224 1    
   203  102  103 2    
   204  102  104 am   BACKBONE|DICT|INTERRES
   205  104  105 1    
   206  104  225 1    
   207  105  106 1    
   208  105  107 1    
   209  105  226 1    
   210  106  227 1    
   211  106  228 1    
   212  106  229 1    
   213  107  108 2    
   214  107  109 am   BACKBONE|DICT|INTERRES
   215  109  110 1    
   216  109  230 1    
   217  110  111 1    
   218  110  112 1    
   219  110  231 1    
   220  111  232 1    
   221  111  233 1    
   222  111  234 1    
   223  112  113 2    
   224  112  114 am   BACKBONE|DICT|INTERRES
   225  114  115 1    
   226  114  235 1    
   227  115  116 1    
   228  115  117 1    
   229  115  236 1    
   230  116  237 1    
   231  116  238 1    
   232  116  239 1    
   233  117  118 2    
   234  117  119 am   BACKBONE|DICT|INTERRES
   235  119  120 1    
   236  119  240 1    
   237  120  121 1    
   238  120  124 1    
   239  120  241 1    
   240  121  122 am   BACKBONE|DICT|INTERRES
   241  121  123 2    
   242  122  242 1    
   243  122  243 1    
   244  124  125 1    
   245  124  244 1    
   246  124  245 1    
   247  125  126 1    
   248  126  246 1    
   249  126  247 1    
@<TRIPOS>SUBSTRUCTURE
     1 UNK         1 GROUP             0       ****    0 ROOT    
