@<TRIPOS>MOLECULE
3R540
247   249    1
SMALL
USER_CHARGES


@<TRIPOS>ATOM
      1 CA         -3.0765  -16.2394  -47.8004 C.3       0 UNK        -0.1800 
      2 C          -2.4899  -14.9104  -47.3471 C.2       0 UNK         0.5000 
      3 O          -3.2203  -14.0625  -46.8344 O.2       0 UNK        -0.5000 
      4 N          -1.1798  -14.7262  -47.5339 N.am      1 UNK        -0.5000 
      5 CA         -0.4429  -13.5199  -47.1672 C.3       1 UNK         0.1400 
      6 C6         -0.6599  -12.3335  -48.1553 C.3       23 UNK        -0.0398 
      7 S7          0.0356  -12.4961  -49.8434 S.3       23 UNK        -0.2404 
      8 C8         -1.3472  -13.2015  -50.8033 C.3       23 UNK        -0.0205 
      9 C9         -1.3730  -14.7270  -50.9261 C.ar      23 UNK        -0.0193 
     10 C10        -2.5117  -15.3148  -51.4853 C.ar      23 UNK        -0.1150 
     11 C11        -2.5911  -16.6970  -51.6736 C.ar      23 UNK        -0.0193 
     12 C12        -1.5229  -17.5018  -51.2683 C.ar      23 UNK        -0.1150 
     13 C13        -0.3890  -16.9407  -50.6770 C.ar      23 UNK        -0.0193 
     14 C14        -0.3087  -15.5528  -50.5313 C.ar      23 UNK        -0.1150 
     15 C15         0.7509  -17.8343  -50.2039 C.3       23 UNK        -0.0205 
     16 S16         0.7448  -18.0846  -48.3964 S.3       23 UNK        -0.2404 
     17 C17        -0.7576  -19.0850  -48.1169 C.3       23 UNK        -0.0398 
     18 CA         -0.4904  -20.5642  -47.7361 C.3       11 UNK         0.1400 
     19 N           0.2417  -20.7291  -46.4759 N.am      11 UNK        -0.5000 
     20 C           0.7070  -21.9018  -46.0167 C.2       10 UNK         0.5000 
     21 O           0.6998  -22.9431  -46.6735 O.2       10 UNK        -0.5000 
     22 CA          1.2141  -21.9418  -44.5617 C.3       10 UNK         0.1400 
     23 CB          2.7006  -21.5645  -44.4755 C.3       10 UNK        -0.1800 
     24 N           0.4233  -21.0964  -43.6638 N.am      10 UNK        -0.5000 
     25 C          -0.8604  -21.3280  -43.3504 C.2       9 UNK         0.5000 
     26 O          -1.4906  -22.3074  -43.7472 O.2       9 UNK        -0.5000 
     27 CA         -1.5766  -20.2752  -42.4843 C.3       9 UNK         0.1400 
     28 CB         -1.2890  -20.5086  -40.9941 C.3       9 UNK        -0.1800 
     29 N          -1.2143  -18.9063  -42.8473 N.am      9 UNK        -0.5000 
     30 C          -1.4835  -18.3312  -44.0280 C.2       8 UNK         0.5000 
     31 O          -2.1492  -18.8685  -44.9127 O.2       8 UNK        -0.5000 
     32 CA         -0.8429  -16.9556  -44.2908 C.3       8 UNK         0.1400 
     33 CB         -1.6963  -15.8237  -43.7037 C.3       8 UNK        -0.1800 
     34 N           0.5238  -16.8718  -43.7730 N.am      8 UNK        -0.5000 
     35 C           1.5366  -17.6276  -44.2225 C.2       7 UNK         0.5000 
     36 O           1.4167  -18.4603  -45.1185 O.2       7 UNK        -0.5000 
     37 CA          2.8895  -17.4896  -43.5085 C.3       7 UNK         0.1400 
     38 CB          3.6960  -16.3197  -44.0764 C.3       7 UNK        -0.1800 
     39 N           2.7191  -17.3219  -42.0678 N.am      7 UNK        -0.5000 
     40 C           2.3836  -18.3207  -41.2401 C.2       6 UNK         0.5000 
     41 O           2.2316  -19.4872  -41.6041 O.2       6 UNK        -0.5000 
     42 CA          2.1370  -17.9440  -39.7678 C.3       6 UNK         0.1400 
     43 CB          3.4611  -17.8892  -38.9913 C.3       6 UNK        -0.1800 
     44 N           1.4355  -16.6674  -39.6217 N.am      6 UNK        -0.5000 
     45 C           0.1830  -16.4409  -40.0413 C.2       5 UNK         0.5000 
     46 O          -0.5239  -17.2968  -40.5706 O.2       5 UNK        -0.5000 
     47 CA         -0.3654  -15.0133  -39.8718 C.3       5 UNK         0.1400 
     48 CB         -1.1060  -14.8806  -38.5328 C.3       5 UNK        -0.1800 
     49 N           0.6548  -13.9660  -39.9641 N.am      5 UNK        -0.5000 
     50 C           1.4006  -13.7009  -41.0456 C.2       4 UNK         0.5000 
     51 O           1.3623  -14.3697  -42.0813 O.2       4 UNK        -0.5000 
     52 CA          2.3256  -12.4758  -40.9126 C.3       4 UNK         0.1400 
     53 CB          3.5060  -12.7563  -39.9584 C.3       4 UNK        -0.1800 
     54 N           2.7713  -11.9253  -42.1993 N.am      4 UNK        -0.5000 
     55 C           3.7046  -12.3936  -43.0408 C.2       3 UNK         0.5000 
     56 O           4.3967  -13.3895  -42.8299 O.2       3 UNK        -0.5000 
     57 CA          3.9332  -11.5394  -44.3045 C.3       3 UNK         0.1400 
     58 CB          5.3779  -11.0054  -44.3837 C.3       3 UNK        -0.1800 
     59 N           3.5264  -12.2084  -45.5450 N.am      3 UNK        -0.5000 
     60 C           4.0970  -13.2429  -46.1824 C.2       2 UNK         0.5000 
     61 O           5.1251  -13.8109  -45.8130 O.2       2 UNK        -0.5000 
     62 CA          3.4285  -13.6623  -47.5125 C.3       2 UNK         0.1400 
     63 CB          3.7103  -15.1258  -47.9180 C.3       2 UNK        -0.1800 
     64 N           1.9910  -13.3690  -47.5845 N.am      2 UNK        -0.5000 
     65 C           1.0125  -13.9198  -46.8533 C.2       1 UNK         0.5000 
     66 O           1.2165  -14.7252  -45.9486 O.2       1 UNK        -0.5000 
     67 C          -1.8200  -21.3473  -47.6921 C.2       11 UNK         0.5000 
     68 O          -2.0587  -22.1789  -48.5649 O.2       11 UNK        -0.5000 
     69 N          -2.6465  -21.0923  -46.6651 N.am      12 UNK        -0.5000 
     70 CA         -3.9717  -21.6935  -46.4743 C.3       12 UNK         0.1400 
     71 CB         -4.6413  -21.0787  -45.2379 C.3       12 UNK        -0.1800 
     72 C          -3.9708  -23.2305  -46.3790 C.2       12 UNK         0.5000 
     73 O          -4.9239  -23.8631  -46.8343 O.2       12 UNK        -0.5000 
     74 N          -2.8940  -23.8079  -45.8307 N.am      13 UNK        -0.5000 
     75 CA         -2.6670  -25.2516  -45.7428 C.3       13 UNK         0.1400 
     76 CB         -1.3863  -25.5122  -44.9359 C.3       13 UNK        -0.1800 
     77 C          -2.5959  -25.9612  -47.1110 C.2       13 UNK         0.5000 
     78 O          -2.9111  -27.1498  -47.1889 O.2       13 UNK        -0.5000 
     79 N          -2.2215  -25.2319  -48.1716 N.am      14 UNK        -0.5000 
     80 CA         -2.1665  -25.7188  -49.5484 C.3       14 UNK         0.1400 
     81 CB         -1.1216  -24.8971  -50.3190 C.3       14 UNK        -0.1800 
     82 C          -3.5617  -25.6720  -50.2045 C.2       14 UNK         0.5000 
     83 O          -3.7731  -24.9234  -51.1614 O.2       14 UNK        -0.5000 
     84 N          -4.4923  -26.4690  -49.6599 N.am      15 UNK        -0.5000 
     85 CA         -5.8673  -26.6834  -50.1270 C.3       15 UNK         0.1400 
     86 CB         -5.8555  -27.4502  -51.4669 C.3       15 UNK        -0.1800 
     87 C          -6.6839  -25.3769  -50.1986 C.2       15 UNK         0.5000 
     88 O          -7.1811  -25.0163  -51.2653 O.2       15 UNK        -0.5000 
     89 N          -6.7531  -24.6543  -49.0701 N.am      16 UNK        -0.5000 
     90 CA         -7.3623  -23.3220  -48.9249 C.3       16 UNK         0.1400 
     91 CB         -8.8852  -23.3711  -49.1711 C.3       16 UNK        -0.1800 
     92 C          -6.6450  -22.2511  -49.7767 C.2       16 UNK         0.5000 
     93 O          -7.2701  -21.2919  -50.2299 O.2       16 UNK        -0.5000 
     94 N          -5.3385  -22.4653  -49.9854 N.am      17 UNK        -0.5000 
     95 CA         -4.4059  -21.7005  -50.8140 C.3       17 UNK         0.1400 
     96 CB         -4.3053  -20.2402  -50.3355 C.3       17 UNK        -0.1800 
     97 C          -4.6508  -21.8185  -52.3324 C.2       17 UNK         0.5000 
     98 O          -4.0008  -21.1044  -53.0982 O.2       17 UNK        -0.5000 
     99 N          -5.5229  -22.7446  -52.7590 N.am      18 UNK        -0.5000 
    100 CA        -5.7994  -23.0325  -54.1677 C.3       18 UNK         0.1400 
    101 CB        -7.1198  -23.8072  -54.2853 C.3       18 UNK        -0.1800 
    102 C         -4.6600  -23.8044  -54.8601 C.2       18 UNK         0.5000 
    103 O         -4.5566  -23.7415  -56.0859 O.2       18 UNK        -0.5000 
    104 N         -3.8218  -24.5018  -54.0791 N.am      19 UNK        -0.5000 
    105 CA        -2.6007  -25.1553  -54.5551 C.3       19 UNK         0.1400 
    106 CB        -2.4643  -26.5298  -53.8788 C.3       19 UNK        -0.1800 
    107 C         -1.3488  -24.2802  -54.3304 C.2       19 UNK         0.5000 
    108 O         -0.2549  -24.6921  -54.7200 O.2       19 UNK        -0.5000 
    109 N         -1.5202  -23.0957  -53.7245 N.am      20 UNK        -0.5000 
    110 CA        -0.4967  -22.0595  -53.5931 C.3       20 UNK         0.1400 
    111 CB        -0.5862  -21.4244  -52.1900 C.3       20 UNK        -0.1800 
    112 C         -0.6448  -21.0315  -54.7349 C.2       20 UNK         0.5000 
    113 O         -1.0986  -21.3827  -55.8271 O.2       20 UNK        -0.5000 
    114 N         -0.2653  -19.7733  -54.4700 N.am      21 UNK        -0.5000 
    115 CA        -0.2580  -18.6544  -55.4194 C.3       21 UNK         0.1400 
    116 CB         0.3122  -17.4135  -54.7136 C.3       21 UNK        -0.1800 
    117 C         -1.6259  -18.3245  -56.0519 C.2       21 UNK         0.5000 
    118 O         -1.6589  -17.7605  -57.1467 O.2       21 UNK        -0.5000 
    119 N         -2.7155  -18.6881  -55.3661 N.am      22 UNK        -0.5000 
    120 CA        -4.1013  -18.5275  -55.8350 C.3       22 UNK         0.1400 
    121 C         -4.6649  -19.8083  -56.5188 C.2       22 UNK         0.5000 
    122 N         -3.8839  -20.8660  -56.7054 N.am      22 UNK        -0.7600 
    123 O         -5.8343  -19.8447  -56.8920 O.2       22 UNK        -0.5000 
    124 C124       -5.0441  -18.0243  -54.7089 C.3       23 UNK        -0.0398 
    125 S125       -4.3841  -16.5620  -53.8295 S.3       23 UNK        -0.2404 
    126 C126       -3.8363  -17.3378  -52.2740 C.3       23 UNK        -0.0205 
    127 H127       -4.0335  -16.0804  -48.2974 H         1 UNK         0.0600 
    128 H128       -3.2374  -16.8943  -46.9438 H         1 UNK         0.0600 
    129 H129       -2.4181  -16.7438  -48.5057 H         1 UNK         0.0600 
    130 H130       -0.6168  -15.4658  -47.9323 H         1 UNK         0.3000 
    131 H131       -0.8359  -13.1891  -46.2031 H         1 UNK         0.0600 
    132 H132       -1.7257  -12.1170  -48.2352 H         1 UNK         0.0800 
    133 H133       -0.2301  -11.4302  -47.7199 H         1 UNK         0.0800 
    134 H134       -2.2930  -12.8522  -50.3867 H         1 UNK         0.0800 
    135 H135       -1.2909  -12.7903  -51.8121 H         1 UNK         0.0800 
    136 H136       -3.3396  -14.6900  -51.7901 H         1 UNK         0.1150 
    137 H137       -1.5756  -18.5715  -51.4016 H         1 UNK         0.1150 
    138 H138        0.5860  -15.1312  -50.0978 H         1 UNK         0.1150 
    139 H139        0.7171  -18.8041  -50.6998 H         1 UNK         0.0800 
    140 H140        1.7018  -17.3822  -50.4895 H         1 UNK         0.0800 
    141 H141       -1.3832  -19.0395  -49.0077 H         1 UNK         0.0800 
    142 H142       -1.3282  -18.5918  -47.3316 H         1 UNK         0.0800 
    143 H143        0.1186  -21.0049  -48.5284 H         1 UNK         0.0600 
    144 H144        0.3814  -19.8952  -45.9118 H         1 UNK         0.3000 
    145 H145        1.1148  -22.9712  -44.2105 H         1 UNK         0.0600 
    146 H146        3.0597  -21.6037  -43.4469 H         1 UNK         0.0600 
    147 H147        3.3086  -22.2564  -45.0594 H         1 UNK         0.0600 
    148 H148        2.8918  -20.5637  -44.8596 H         1 UNK         0.0600 
    149 H149        0.8818  -20.2782  -43.2839 H         1 UNK         0.3000 
    150 H150       -2.6506  -20.3876  -42.6416 H         1 UNK         0.0600 
    151 H151       -1.5656  -21.5208  -40.6965 H         1 UNK         0.0600 
    152 H152       -1.8588  -19.8191  -40.3709 H         1 UNK         0.0600 
    153 H153       -0.2326  -20.3737  -40.7608 H         1 UNK         0.0600 
    154 H154       -0.7212  -18.3651  -42.1423 H         1 UNK         0.3000 
    155 H155       -0.7909  -16.8145  -45.3723 H         1 UNK         0.0600 
    156 H156       -1.8264  -15.9338  -42.6279 H         1 UNK         0.0600 
    157 H157       -2.6894  -15.8143  -44.1546 H         1 UNK         0.0600 
    158 H158       -1.2433  -14.8501  -43.8935 H         1 UNK         0.0600 
    159 H159        0.7158  -16.1651  -43.0727 H         1 UNK         0.3000 
    160 H160        3.4615  -18.4032  -43.6840 H         1 UNK         0.0600 
    161 H161        3.1306  -15.3885  -44.0360 H         1 UNK         0.0600 
    162 H162        3.9541  -16.5003  -45.1190 H         1 UNK         0.0600 
    163 H163        4.6289  -16.1722  -43.5325 H         1 UNK         0.0600 
    164 H164        2.7677  -16.3774  -41.7121 H         1 UNK         0.3000 
    165 H165        1.5133  -18.7242  -39.3261 H         1 UNK         0.0600 
    166 H166        3.2891  -17.7025  -37.9311 H         1 UNK         0.0600 
    167 H167        3.9988  -18.8349  -39.0708 H         1 UNK         0.0600 
    168 H168        4.1185  -17.1048  -39.3687 H         1 UNK         0.0600 
    169 H169        1.9463  -15.9074  -39.1977 H         1 UNK         0.3000 
    170 H170       -1.0848  -14.8409  -40.6738 H         1 UNK         0.0600 
    171 H171       -0.4318  -15.0082  -37.6849 H         1 UNK         0.0600 
    172 H172       -1.5830  -13.9047  -38.4400 H         1 UNK         0.0600 
    173 H173       -1.8908  -15.6332  -38.4443 H         1 UNK         0.0600 
    174 H174        0.7511  -13.3720  -39.1530 H         1 UNK         0.3000 
    175 H175        1.7269  -11.6821  -40.4627 H         1 UNK         0.0600 
    176 H176        4.1824  -11.9032  -39.9040 H         1 UNK         0.0600 
    177 H177        4.0857  -13.6264  -40.2677 H         1 UNK         0.0600 
    178 H178        3.1530  -12.9514  -38.9453 H         1 UNK         0.0600 
    179 H179        2.2619  -11.1030  -42.4908 H         1 UNK         0.3000 
    180 H180        3.2866  -10.6632  -44.2342 H         1 UNK         0.0600 
    181 H181        6.1121  -11.8104  -44.4235 H         1 UNK         0.0600 
    182 H182        5.6131  -10.3996  -43.5079 H         1 UNK         0.0600 
    183 H183        5.5200  -10.3766  -45.2625 H         1 UNK         0.0600 
    184 H184        2.6791  -11.8483  -45.9591 H         1 UNK         0.3000 
    185 H185        3.8933  -13.0320  -48.2719 H         1 UNK         0.0600 
    186 H186        4.7810  -15.3288  -47.9548 H         1 UNK         0.0600 
    187 H187        3.2651  -15.8364  -47.2225 H         1 UNK         0.0600 
    188 H188        3.3078  -15.3408  -48.9079 H         1 UNK         0.0600 
    189 H189        1.7141  -12.7391  -48.3278 H         1 UNK         0.3000 
    190 H190       -2.3775  -20.3845  -45.9850 H         1 UNK         0.3000 
    191 H191       -4.5756  -21.4306  -47.3430 H         1 UNK         0.0600 
    192 H192       -4.7218  -19.9953  -45.3289 H         1 UNK         0.0600 
    193 H193       -5.6508  -21.4697  -45.1046 H         1 UNK         0.0600 
    194 H194       -4.0815  -21.2994  -44.3294 H         1 UNK         0.0600 
    195 H195       -2.1926  -23.2104  -45.4049 H         1 UNK         0.3000 
    196 H196       -3.5079  -25.6836  -45.1969 H         1 UNK         0.0600 
    197 H197       -1.1987  -26.5816  -44.8321 H         1 UNK         0.0600 
    198 H198       -1.4617  -25.0975  -43.9306 H         1 UNK         0.0600 
    199 H199       -0.5130  -25.0701  -45.4162 H         1 UNK         0.0600 
    200 H200       -2.0332  -24.2434  -48.0433 H         1 UNK         0.3000 
    201 H201       -1.8335  -26.7587  -49.5503 H         1 UNK         0.0600 
    202 H202       -0.1601  -24.8912  -49.8054 H         1 UNK         0.0600 
    203 H203       -1.4468  -23.8658  -50.4337 H         1 UNK         0.0600 
    204 H204       -0.9549  -25.3008  -51.3170 H         1 UNK         0.0600 
    205 H205       -4.2155  -27.0003  -48.8414 H         1 UNK         0.3000 
    206 H206       -6.3572  -27.3166  -49.3860 H         1 UNK         0.0600 
    207 H207       -5.3064  -28.3877  -51.3798 H         1 UNK         0.0600 
    208 H208       -6.8693  -27.6962  -51.7848 H         1 UNK         0.0600 
    209 H209       -5.3958  -26.8669  -52.2658 H         1 UNK         0.0600 
    210 H210       -6.2525  -24.9809  -48.2518 H         1 UNK         0.3000 
    211 H211       -7.2146  -23.0275  -47.8854 H         1 UNK         0.0600 
    212 H212       -9.1243  -23.5672  -50.2166 H         1 UNK         0.0600 
    213 H213       -9.3531  -22.4228  -48.9045 H         1 UNK         0.0600 
    214 H214       -9.3576  -24.1456  -48.5670 H         1 UNK         0.0600 
    215 H215       -4.9488  -23.3097  -49.5898 H         1 UNK         0.3000 
    216 H216       -3.4347  -22.1668  -50.6569 H         1 UNK         0.0600 
    217 H217       -3.3925  -19.7840  -50.7098 H         1 UNK         0.0600 
    218 H218       -4.2656  -20.1699  -49.2502 H         1 UNK         0.0600 
    219 H219       -5.1497  -19.6422  -50.6789 H         1 UNK         0.0600 
    220 H220       -5.9904  -23.3316  -52.0781 H         1 UNK         0.3000 
    221 H221       -5.9199  -22.0810  -54.6898 H         1 UNK         0.0600 
    222 H222       -7.0340  -24.8127  -53.8724 H         1 UNK         0.0600 
    223 H223       -7.9294  -23.2957  -53.7643 H         1 UNK         0.0600 
    224 H224       -7.4166  -23.9098  -55.3297 H         1 UNK         0.0600 
    225 H225       -3.9785  -24.5269  -53.0744 H         1 UNK         0.3000 
    226 H226       -2.6686  -25.3308  -55.6305 H         1 UNK         0.0600 
    227 H227       -3.3438  -27.1469  -54.0628 H         1 UNK         0.0600 
    228 H228       -1.6014  -27.0723  -54.2667 H         1 UNK         0.0600 
    229 H229       -2.3372  -26.4452  -52.8019 H         1 UNK         0.0600 
    230 H230       -2.4655  -22.8071  -53.5140 H         1 UNK         0.3000 
    231 H231        0.4967  -22.5010  -53.6927 H         1 UNK         0.0600 
    232 H232       -1.5398  -20.9235  -52.0281 H         1 UNK         0.0600 
    233 H233        0.2088  -20.6974  -52.0288 H         1 UNK         0.0600 
    234 H234       -0.4660  -22.1742  -51.4120 H         1 UNK         0.0600 
    235 H235        0.0913  -19.5682  -53.5491 H         1 UNK         0.3000 
    236 H236        0.4165  -18.9251  -56.2340 H         1 UNK         0.0600 
    237 H237        1.3107  -17.6028  -54.3193 H         1 UNK         0.0600 
    238 H238        0.3914  -16.5733  -55.4046 H         1 UNK         0.0600 
    239 H239       -0.3225  -17.0948  -53.8861 H         1 UNK         0.0600 
    240 H240       -2.6007  -19.1796  -54.4923 H         1 UNK         0.3000 
    241 H241       -4.1168  -17.7619  -56.6126 H         1 UNK         0.0600 
    242 H242       -2.9162  -20.8666  -56.4006 H         1 UNK         0.3800 
    243 H243       -4.2721  -21.7112  -57.0973 H         1 UNK         0.3800 
    244 H244       -6.0098  -17.7431  -55.1320 H         1 UNK         0.0800 
    245 H245       -5.2581  -18.8237  -53.9978 H         1 UNK         0.0800 
    246 H246       -4.6483  -17.3002  -51.5470 H         1 UNK         0.0800 
    247 H247       -3.6368  -18.3904  -52.4699 H         1 UNK         0.0800 
@<TRIPOS>BOND
     1    1    2 1    
     2    1  127 1    
     3    1  128 1    
     4    1  129 1    
     5    2    3 2    
     6    2    4 am   BACKBONE|DICT|INTERRES
     7    4    5 1    
     8    4  130 1    
     9    5    6 1    
    10    5   65 1    
    11    5  131 1    
    12    6    7 1    
    13    6  132 1    
    14    6  133 1    
    15    7    8 1    
    16    8    9 1    
    17    8  134 1    
    18    8  135 1    
    19    9   10 ar   
    20    9   14 ar   
    21   10   11 ar   
    22   10  136 1    
    23   11   12 ar   
    24   11  126 1    
    25   12   13 ar   
    26   12  137 1    
    27   13   14 ar   
    28   13   15 1    
    29   14  138 1    
    30   15   16 1    
    31   15  139 1    
    32   15  140 1    
    33   16   17 1    
    34   17   18 1    
    35   17  141 1    
    36   17  142 1    
    37   18   19 1    
    38   18   67 1    
    39   18  143 1    
    40   19   20 am   BACKBONE|DICT|INTERRES
    41   19  144 1    
    42   20   21 2    
    43   20   22 1    
    44   22   23 1    
    45   22   24 1    
    46   22  145 1    
    47   23  146 1    
    48   23  147 1    
    49   23  148 1    
    50   24   25 am   BACKBONE|DICT|INTERRES
    51   24  149 1    
    52   25   26 2    
    53   25   27 1    
    54   27   28 1    
    55   27   29 1    
    56   27  150 1    
    57   28  151 1    
    58   28  152 1    
    59   28  153 1    
    60   29   30 am   BACKBONE|DICT|INTERRES
    61   29  154 1    
    62   30   31 2    
    63   30   32 1    
    64   32   33 1    
    65   32   34 1    
    66   32  155 1    
    67   33  156 1    
    68   33  157 1    
    69   33  158 1    
    70   34   35 am   BACKBONE|DICT|INTERRES
    71   34  159 1    
    72   35   36 2    
    73   35   37 1    
    74   37   38 1    
    75   37   39 1    
    76   37  160 1    
    77   38  161 1    
    78   38  162 1    
    79   38  163 1    
    80   39   40 am   BACKBONE|DICT|INTERRES
    81   39  164 1    
    82   40   41 2    
    83   40   42 1    
    84   42   43 1    
    85   42   44 1    
    86   42  165 1    
    87   43  166 1    
    88   43  167 1    
    89   43  168 1    
    90   44   45 am   BACKBONE|DICT|INTERRES
    91   44  169 1    
    92   45   46 2    
    93   45   47 1    
    94   47   48 1    
    95   47   49 1    
    96   47  170 1    
    97   48  171 1    
    98   48  172 1    
    99   48  173 1    
   100   49   50 am   BACKBONE|DICT|INTERRES
   101   49  174 1    
   102   50   51 2    
   103   50   52 1    
   104   52   53 1    
   105   52   54 1    
   106   52  175 1    
   107   53  176 1    
   108   53  177 1    
   109   53  178 1    
   110   54   55 am   BACKBONE|DICT|INTERRES
   111   54  179 1    
   112   55   56 2    
   113   55   57 1    
   114   57   58 1    
   115   57   59 1    
   116   57  180 1    
   117   58  181 1    
   118   58  182 1    
   119   58  183 1    
   120   59   60 am   BACKBONE|DICT|INTERRES
   121   59  184 1    
   122   60   61 2    
   123   60   62 1    
   124   62   63 1    
   125   62   64 1    
   126   62  185 1    
   127   63  186 1    
   128   63  187 1    
   129   63  188 1    
   130   64   65 am   BACKBONE|DICT|INTERRES
   131   64  189 1    
   132   65   66 2    
   133   67   68 2    
   134   67   69 am   BACKBONE|DICT|INTERRES
   135   69   70 1    
   136   69  190 1    
   137   70   71 1    
   138   70   72 1    
   139   70  191 1    
   140   71  192 1    
   141   71  193 1    
   142   71  194 1    
   143   72   73 2    
   144   72   74 am   BACKBONE|DICT|INTERRES
   145   74   75 1    
   146   74  195 1    
   147   75   76 1    
   148   75   77 1    
   149   75  196 1    
   150   76  197 1    
   151   76  198 1    
   152   76  199 1    
   153   77   78 2    
   154   77   79 am   BACKBONE|DICT|INTERRES
   155   79   80 1    
   156   79  200 1    
   157   80   81 1    
   158   80   82 1    
   159   80  201 1    
   160   81  202 1    
   161   81  203 1    
   162   81  204 1    
   163   82   83 2    
   164   82   84 am   BACKBONE|DICT|INTERRES
   165   84   85 1    
   166   84  205 1    
   167   85   86 1    
   168   85   87 1    
   169   85  206 1    
   170   86  207 1    
   171   86  208 1    
   172   86  209 1    
   173   87   88 2    
   174   87   89 am   BACKBONE|DICT|INTERRES
   175   89   90 1    
   176   89  210 1    
   177   90   91 1    
   178   90   92 1    
   179   90  211 1    
   180   91  212 1    
   181   91  213 1    
   182   91  214 1    
   183   92   93 2    
   184   92   94 am   BACKBONE|DICT|INTERRES
   185   94   95 1    
   186   94  215 1    
   187   95   96 1    
   188   95   97 1    
   189   95  216 1    
   190   96  217 1    
   191   96  218 1    
   192   96  219 1    
   193   97   98 2    
   194   97   99 am   BACKBONE|DICT|INTERRES
   195   99  100 1    
   196   99  220 1    
   197  100  101 1    
   198  100  102 1    
   199  100  221 1    
   200  101  222 1    
   201  101  223 1    
   202  101  224 1    
   203  102  103 2    
   204  102  104 am   BACKBONE|DICT|INTERRES
   205  104  105 1    
   206  104  225 1    
   207  105  106 1    
   208  105  107 1    
   209  105  226 1    
   210  106  227 1    
   211  106  228 1    
   212  106  229 1    
   213  107  108 2    
   214  107  109 am   BACKBONE|DICT|INTERRES
   215  109  110 1    
   216  109  230 1    
   217  110  111 1    
   218  110  112 1    
   219  110  231 1    
   220  111  232 1    
   221  111  233 1    
   222  111  234 1    
   223  112  113 2    
   224  112  114 am   BACKBONE|DICT|INTERRES
   225  114  115 1    
   226  114  235 1    
   227  115  116 1    
   228  115  117 1    
   229  115  236 1    
   230  116  237 1    
   231  116  238 1    
   232  116  239 1    
   233  117  118 2    
   234  117  119 am   BACKBONE|DICT|INTERRES
   235  119  120 1    
   236  119  240 1    
   237  120  121 1    
   238  120  124 1    
   239  120  241 1    
   240  121  122 am   BACKBONE|DICT|INTERRES
   241  121  123 2    
   242  122  242 1    
   243  122  243 1    
   244  124  125 1    
   245  124  244 1    
   246  124  245 1    
   247  125  126 1    
   248  126  246 1    
   249  126  247 1    
@<TRIPOS>SUBSTRUCTURE
     1 UNK         1 GROUP             0       ****    0 ROOT    
