@<TRIPOS>MOLECULE
3R540
247   249    1
SMALL
USER_CHARGES


@<TRIPOS>ATOM
      1 CA         -2.6585  -18.9671  -43.9238 C.3       0 UNK        -0.1800 
      2 C          -2.0807  -18.2752  -45.1495 C.2       0 UNK         0.5000 
      3 O          -2.8286  -17.9481  -46.0693 O.2       0 UNK        -0.5000 
      4 N          -0.7611  -18.0483  -45.1688 N.am      1 UNK        -0.5000 
      5 CA         -0.0502  -17.2969  -46.2070 C.3       1 UNK         0.1400 
      6 C6          1.4831  -17.5232  -46.1185 C.3       23 UNK        -0.0398 
      7 S7          2.5199  -16.3655  -47.0868 S.3       23 UNK        -0.2404 
      8 C8          2.7653  -17.2730  -48.6439 C.3       23 UNK        -0.0205 
      9 C9          1.4878  -17.3802  -49.4654 C.ar      23 UNK        -0.0193 
     10 C10         0.9605  -16.2548  -50.1047 C.ar      23 UNK        -0.1150 
     11 C11        -0.1872  -16.3574  -50.8960 C.ar      23 UNK        -0.0193 
     12 C12        -0.8053  -17.6003  -51.0532 C.ar      23 UNK        -0.1150 
     13 C13        -0.2782  -18.7355  -50.4331 C.ar      23 UNK        -0.0193 
     14 C14         0.8585  -18.6157  -49.6314 C.ar      23 UNK        -0.1150 
     15 C15        -0.8910  -20.1009  -50.6910 C.3       23 UNK        -0.0205 
     16 S16        -2.4965  -20.3267  -49.8673 S.3       23 UNK        -0.2404 
     17 C17        -2.0166  -20.4841  -48.1206 C.3       23 UNK        -0.0398 
     18 CA         -1.4936  -21.9031  -47.7762 C.3       11 UNK         0.1400 
     19 N          -0.0278  -21.9646  -47.7803 N.am      11 UNK        -0.5000 
     20 C           0.7094  -23.0715  -47.6135 C.2       10 UNK         0.5000 
     21 O           0.2260  -24.1948  -47.4727 O.2       10 UNK        -0.5000 
     22 CA          2.2386  -22.8918  -47.5384 C.3       10 UNK         0.1400 
     23 CB          2.7686  -21.7788  -48.4639 C.3       10 UNK        -0.1800 
     24 N           2.7474  -22.6836  -46.1766 N.am      10 UNK        -0.5000 
     25 C           2.3420  -21.7839  -45.2679 C.2       9 UNK         0.5000 
     26 O           1.3563  -21.0513  -45.3964 O.2       9 UNK        -0.5000 
     27 CA          3.2166  -21.6600  -44.0137 C.3       9 UNK         0.1400 
     28 CB          4.4546  -20.7921  -44.2988 C.3       9 UNK        -0.1800 
     29 N           2.4348  -21.0501  -42.9468 N.am      9 UNK        -0.5000 
     30 C           2.6045  -21.2468  -41.6378 C.2       8 UNK         0.5000 
     31 O           3.5098  -21.9386  -41.1676 O.2       8 UNK        -0.5000 
     32 CA          1.5912  -20.5484  -40.7051 C.3       8 UNK         0.1400 
     33 CB          1.7648  -20.9565  -39.2309 C.3       8 UNK        -0.1800 
     34 N           1.6476  -19.0889  -40.7930 N.am      8 UNK        -0.5000 
     35 C           1.1633  -18.3393  -41.7901 C.2       7 UNK         0.5000 
     36 O           0.6673  -18.7971  -42.8232 O.2       7 UNK        -0.5000 
     37 CA          1.2718  -16.8167  -41.6011 C.3       7 UNK         0.1400 
     38 CB          2.5967  -16.2943  -42.1678 C.3       7 UNK        -0.1800 
     39 N           0.1499  -16.0996  -42.2128 N.am      7 UNK        -0.5000 
     40 C          -1.1046  -16.1515  -41.7439 C.2       6 UNK         0.5000 
     41 O          -1.4259  -16.8014  -40.7469 O.2       6 UNK        -0.5000 
     42 CA         -2.1535  -15.2961  -42.4747 C.3       6 UNK         0.1400 
     43 CB         -3.5216  -15.2996  -41.7549 C.3       6 UNK        -0.1800 
     44 N          -1.6349  -13.9382  -42.6258 N.am      6 UNK        -0.5000 
     45 C          -2.1734  -12.9601  -43.3593 C.2       5 UNK         0.5000 
     46 O          -3.2236  -13.0719  -43.9918 O.2       5 UNK        -0.5000 
     47 CA         -1.4076  -11.6261  -43.4084 C.3       5 UNK         0.1400 
     48 CB         -1.3838  -10.9233  -42.0364 C.3       5 UNK        -0.1800 
     49 N          -0.0664  -11.7410  -43.9903 N.am      5 UNK        -0.5000 
     50 C           1.0232  -12.3553  -43.5049 C.2       4 UNK         0.5000 
     51 O           1.0576  -12.9435  -42.4228 O.2       4 UNK        -0.5000 
     52 CA          2.2671  -12.3085  -44.4124 C.3       4 UNK         0.1400 
     53 CB          3.3775  -13.2876  -44.0012 C.3       4 UNK        -0.1800 
     54 N           1.8669  -12.6029  -45.7836 N.am      4 UNK        -0.5000 
     55 C           2.0780  -11.8200  -46.8477 C.2       3 UNK         0.5000 
     56 O           2.7249  -10.7728  -46.8112 O.2       3 UNK        -0.5000 
     57 CA          1.4317  -12.2640  -48.1757 C.3       3 UNK         0.1400 
     58 CB          2.4854  -12.8663  -49.1167 C.3       3 UNK        -0.1800 
     59 N           0.3294  -13.2162  -47.9960 N.am      3 UNK        -0.5000 
     60 C          -0.8521  -12.9105  -47.4390 C.2       2 UNK         0.5000 
     61 O          -1.1492  -11.7789  -47.0550 O.2       2 UNK        -0.5000 
     62 CA         -1.8596  -14.0583  -47.2483 C.3       2 UNK         0.1400 
     63 CB         -2.8885  -14.0656  -48.3878 C.3       2 UNK        -0.1800 
     64 N          -1.2500  -15.3850  -47.1509 N.am      2 UNK        -0.5000 
     65 C          -0.4714  -15.8128  -46.1478 C.2       1 UNK         0.5000 
     66 O          -0.0953  -15.1068  -45.2087 O.2       1 UNK        -0.5000 
     67 C          -2.1098  -22.4161  -46.4586 C.2       11 UNK         0.5000 
     68 O          -3.2081  -22.9695  -46.4960 O.2       11 UNK        -0.5000 
     69 N          -1.3926  -22.2706  -45.3351 N.am      12 UNK        -0.5000 
     70 CA         -1.7953  -22.8164  -44.0377 C.3       12 UNK         0.1400 
     71 CB         -0.8742  -22.2576  -42.9472 C.3       12 UNK        -0.1800 
     72 C          -1.7801  -24.3569  -44.0059 C.2       12 UNK         0.5000 
     73 O          -2.6554  -24.9590  -43.3845 O.2       12 UNK        -0.5000 
     74 N          -0.7983  -24.9635  -44.6873 N.am      13 UNK        -0.5000 
     75 CA         -0.6499  -26.4140  -44.8086 C.3       13 UNK         0.1400 
     76 CB          0.8167  -26.7512  -45.1197 C.3       13 UNK        -0.1800 
     77 C          -1.5858  -26.9926  -45.8835 C.2       13 UNK         0.5000 
     78 O          -2.1475  -28.0705  -45.6875 O.2       13 UNK        -0.5000 
     79 N          -1.7542  -26.2533  -46.9885 N.am      14 UNK        -0.5000 
     80 CA         -2.6266  -26.6042  -48.1110 C.3       14 UNK         0.1400 
     81 CB         -2.2008  -25.7849  -49.3401 C.3       14 UNK        -0.1800 
     82 C          -4.1275  -26.3917  -47.8267 C.2       14 UNK         0.5000 
     83 O          -4.9485  -26.7994  -48.6471 O.2       14 UNK        -0.5000 
     84 N          -4.4628  -25.7278  -46.7099 N.am      15 UNK        -0.5000 
     85 CA         -5.8100  -25.3193  -46.2925 C.3       15 UNK         0.1400 
     86 CB         -6.6781  -26.5475  -45.9485 C.3       15 UNK        -0.1800 
     87 C          -6.4668  -24.3726  -47.3200 C.2       15 UNK         0.5000 
     88 O          -7.6234  -24.5599  -47.7004 O.2       15 UNK        -0.5000 
     89 N          -5.6748  -23.3898  -47.7708 N.am      16 UNK        -0.5000 
     90 CA         -5.9725  -22.3524  -48.7634 C.3       16 UNK         0.1400 
     91 CB         -7.1428  -21.4602  -48.3037 C.3       16 UNK        -0.1800 
     92 C          -6.1631  -22.8607  -50.2089 C.2       16 UNK         0.5000 
     93 O          -6.4679  -22.0531  -51.0858 O.2       16 UNK        -0.5000 
     94 N          -5.9388  -24.1573  -50.4739 N.am      17 UNK        -0.5000 
     95 CA         -6.0437  -24.7496  -51.8144 C.3       17 UNK         0.1400 
     96 CB         -6.0006  -26.2801  -51.7017 C.3       17 UNK        -0.1800 
     97 C          -4.9554  -24.2537  -52.7886 C.2       17 UNK         0.5000 
     98 O          -5.1677  -24.2648  -54.0012 O.2       17 UNK        -0.5000 
     99 N          -3.8189  -23.8098  -52.2368 N.am      18 UNK        -0.5000 
    100 CA        -2.6780  -23.2612  -52.9683 C.3       18 UNK         0.1400 
    101 CB        -1.4159  -23.4516  -52.1097 C.3       18 UNK        -0.1800 
    102 C         -2.8513  -21.7822  -53.3735 C.2       18 UNK         0.5000 
    103 O         -1.9718  -21.2483  -54.0505 O.2       18 UNK        -0.5000 
    104 N         -3.9529  -21.1309  -52.9613 N.am      19 UNK        -0.5000 
    105 CA        -4.2086  -19.6925  -53.1308 C.3       19 UNK         0.1400 
    106 CB        -5.5107  -19.3113  -52.4141 C.3       19 UNK        -0.1800 
    107 C         -4.2281  -19.1927  -54.5881 C.2       19 UNK         0.5000 
    108 O         -4.0376  -17.9973  -54.8174 O.2       19 UNK        -0.5000 
    109 N         -4.3836  -20.1125  -55.5505 N.am      20 UNK        -0.5000 
    110 CA        -4.2236  -19.8883  -56.9900 C.3       20 UNK         0.1400 
    111 CB        -4.5442  -21.1961  -57.7296 C.3       20 UNK        -0.1800 
    112 C         -2.8284  -19.3631  -57.3998 C.2       20 UNK         0.5000 
    113 O         -2.6999  -18.7890  -58.4815 O.2       20 UNK        -0.5000 
    114 N         -1.8198  -19.5359  -56.5300 N.am      21 UNK        -0.5000 
    115 CA        -0.4905  -18.9348  -56.6535 C.3       21 UNK         0.1400 
    116 CB         0.4242  -19.5160  -55.5640 C.3       21 UNK        -0.1800 
    117 C         -0.5047  -17.3933  -56.5709 C.2       21 UNK         0.5000 
    118 O          0.3409  -16.7541  -57.1989 O.2       21 UNK        -0.5000 
    119 N         -1.4597  -16.8315  -55.8178 N.am      22 UNK        -0.5000 
    120 CA        -1.7017  -15.3844  -55.7010 C.3       22 UNK         0.1400 
    121 C         -2.9743  -14.9439  -56.4736 C.2       22 UNK         0.5000 
    122 N         -4.0344  -15.7421  -56.5097 N.am      22 UNK        -0.7600 
    123 O         -2.9985  -13.8629  -57.0556 O.2       22 UNK        -0.5000 
    124 C124       -1.7919  -14.9310  -54.2228 C.3       23 UNK        -0.0398 
    125 S125       -0.2004  -15.1004  -53.3463 S.3       23 UNK        -0.2404 
    126 C126       -0.7433  -15.1373  -51.6093 C.3       23 UNK        -0.0205 
    127 H127       -3.5159  -18.4083  -43.5488 H         1 UNK         0.0600 
    128 H128       -1.9316  -19.0420  -43.1164 H         1 UNK         0.0600 
    129 H129       -2.9929  -19.9709  -44.1832 H         1 UNK         0.0600 
    130 H130       -0.2007  -18.3405  -44.3695 H         1 UNK         0.3000 
    131 H131       -0.3693  -17.6900  -47.1729 H         1 UNK         0.0600 
    132 H132        1.7211  -18.5471  -46.4082 H         1 UNK         0.0800 
    133 H133        1.8030  -17.4371  -45.0811 H         1 UNK         0.0800 
    134 H134        3.1787  -18.2593  -48.4279 H         1 UNK         0.0800 
    135 H135        3.5205  -16.7521  -49.2342 H         1 UNK         0.0800 
    136 H136        1.4595  -15.3042  -50.0043 H         1 UNK         0.1150 
    137 H137       -1.6781  -17.6892  -51.6843 H         1 UNK         0.1150 
    138 H138        1.2728  -19.4930  -49.1654 H         1 UNK         0.1150 
    139 H139       -1.0277  -20.2115  -51.7658 H         1 UNK         0.0800 
    140 H140       -0.2101  -20.8997  -50.3956 H         1 UNK         0.0800 
    141 H141       -2.9151  -20.2335  -47.5528 H         1 UNK         0.0800 
    142 H142       -1.2910  -19.7139  -47.8630 H         1 UNK         0.0800 
    143 H143       -1.8348  -22.5985  -48.5438 H         1 UNK         0.0600 
    144 H144        0.4579  -21.0812  -47.7830 H         1 UNK         0.3000 
    145 H145        2.6632  -23.8336  -47.8897 H         1 UNK         0.0600 
    146 H146        2.2917  -21.8065  -49.4448 H         1 UNK         0.0600 
    147 H147        2.6174  -20.7897  -48.0341 H         1 UNK         0.0600 
    148 H148        3.8401  -21.8946  -48.6265 H         1 UNK         0.0600 
    149 H149        3.5477  -23.2536  -45.9404 H         1 UNK         0.3000 
    150 H150        3.5284  -22.6622  -43.7121 H         1 UNK         0.0600 
    151 H151        5.0603  -21.2183  -45.0994 H         1 UNK         0.0600 
    152 H152        5.0924  -20.7121  -43.4183 H         1 UNK         0.0600 
    153 H153        4.1733  -19.7820  -44.6003 H         1 UNK         0.0600 
    154 H154        1.6761  -20.4490  -43.2607 H         1 UNK         0.3000 
    155 H155        0.5949  -20.8681  -41.0118 H         1 UNK         0.0600 
    156 H156        2.7342  -20.6477  -38.8376 H         1 UNK         0.0600 
    157 H157        1.6906  -22.0384  -39.1127 H         1 UNK         0.0600 
    158 H158        0.9914  -20.5111  -38.6048 H         1 UNK         0.0600 
    159 H159        2.0754  -18.6228  -40.0062 H         1 UNK         0.3000 
    160 H160        1.2589  -16.6030  -40.5301 H         1 UNK         0.0600 
    161 H161        2.6535  -16.4200  -43.2475 H         1 UNK         0.0600 
    162 H162        3.4466  -16.8213  -41.7325 H         1 UNK         0.0600 
    163 H163        2.7233  -15.2370  -41.9377 H         1 UNK         0.0600 
    164 H164        0.3370  -15.5762  -43.0600 H         1 UNK         0.3000 
    165 H165       -2.2834  -15.7254  -43.4694 H         1 UNK         0.0600 
    166 H166       -4.2854  -14.7746  -42.3271 H         1 UNK         0.0600 
    167 H167       -3.8856  -16.3177  -41.6106 H         1 UNK         0.0600 
    168 H168       -3.4569  -14.8295  -40.7730 H         1 UNK         0.0600 
    169 H169       -0.7283  -13.7576  -42.2019 H         1 UNK         0.3000 
    170 H170       -1.9609  -10.9771  -44.0893 H         1 UNK         0.0600 
    171 H171       -2.3973  -10.7660  -41.6657 H         1 UNK         0.0600 
    172 H172       -0.8505  -11.5024  -41.2825 H         1 UNK         0.0600 
    173 H173       -0.9078   -9.9452  -42.1047 H         1 UNK         0.0600 
    174 H174        0.0122  -11.3501  -44.9199 H         1 UNK         0.3000 
    175 H175        2.6633  -11.2944  -44.3319 H         1 UNK         0.0600 
    176 H176        3.0646  -14.3198  -44.1498 H         1 UNK         0.0600 
    177 H177        4.2755  -13.1286  -44.5982 H         1 UNK         0.0600 
    178 H178        3.6575  -13.1608  -42.9549 H         1 UNK         0.0600 
    179 H179        1.2979  -13.4336  -45.8973 H         1 UNK         0.3000 
    180 H180        1.0287  -11.3677  -48.6520 H         1 UNK         0.0600 
    181 H181        2.0644  -13.0679  -50.1015 H         1 UNK         0.0600 
    182 H182        2.8973  -13.7951  -48.7213 H         1 UNK         0.0600 
    183 H183        3.3184  -12.1772  -49.2618 H         1 UNK         0.0600 
    184 H184        0.5033  -14.1757  -48.2555 H         1 UNK         0.3000 
    185 H185       -2.3921  -13.8732  -46.3156 H         1 UNK         0.0600 
    186 H186       -3.6552  -14.8229  -48.2225 H         1 UNK         0.0600 
    187 H187       -3.3957  -13.1027  -48.4626 H         1 UNK         0.0600 
    188 H188       -2.4201  -14.2653  -49.3508 H         1 UNK         0.0600 
    189 H189       -1.5277  -16.0500  -47.8585 H         1 UNK         0.3000 
    190 H190       -0.4924  -21.8019  -45.3821 H         1 UNK         0.3000 
    191 H191       -2.8147  -22.4840  -43.8308 H         1 UNK         0.0600 
    192 H192       -1.2254  -22.5452  -41.9556 H         1 UNK         0.0600 
    193 H193       -0.8362  -21.1696  -42.9791 H         1 UNK         0.0600 
    194 H194        0.1429  -22.6333  -43.0563 H         1 UNK         0.0600 
    195 H195       -0.1596  -24.3989  -45.2298 H         1 UNK         0.3000 
    196 H196       -0.9065  -26.8781  -43.8537 H         1 UNK         0.0600 
    197 H197        1.1413  -26.3208  -46.0676 H         1 UNK         0.0600 
    198 H198        1.4802  -26.3796  -44.3387 H         1 UNK         0.0600 
    199 H199        0.9623  -27.8302  -45.1835 H         1 UNK         0.0600 
    200 H200       -1.1918  -25.4135  -47.0959 H         1 UNK         0.3000 
    201 H201       -2.4841  -27.6621  -48.3405 H         1 UNK         0.0600 
    202 H202       -1.1403  -25.9160  -49.5567 H         1 UNK         0.0600 
    203 H203       -2.3841  -24.7215  -49.1941 H         1 UNK         0.0600 
    204 H204       -2.7529  -26.0939  -50.2284 H         1 UNK         0.0600 
    205 H205       -3.7070  -25.3860  -46.1325 H         1 UNK         0.3000 
    206 H206       -5.6839  -24.7381  -45.3778 H         1 UNK         0.0600 
    207 H207       -6.1852  -27.1834  -45.2132 H         1 UNK         0.0600 
    208 H208       -7.6346  -26.2411  -45.5238 H         1 UNK         0.0600 
    209 H209       -6.8919  -27.1554  -46.8280 H         1 UNK         0.0600 
    210 H210       -4.7453  -23.3279  -47.3567 H         1 UNK         0.3000 
    211 H211       -5.0830  -21.7221  -48.7938 H         1 UNK         0.0600 
    212 H212       -7.2555  -20.5951  -48.9583 H         1 UNK         0.0600 
    213 H213       -6.9771  -21.0814  -47.2952 H         1 UNK         0.0600 
    214 H214       -8.0913  -21.9976  -48.3106 H         1 UNK         0.0600 
    215 H215       -5.7197  -24.7857  -49.7121 H         1 UNK         0.3000 
    216 H216       -7.0126  -24.4675  -52.2317 H         1 UNK         0.0600 
    217 H217       -5.0342  -26.6297  -51.3373 H         1 UNK         0.0600 
    218 H218       -6.1715  -26.7472  -52.6724 H         1 UNK         0.0600 
    219 H219       -6.7696  -26.6496  -51.0228 H         1 UNK         0.0600 
    220 H220       -3.7446  -23.8280  -51.2315 H         1 UNK         0.3000 
    221 H221       -2.5448  -23.8282  -53.8920 H         1 UNK         0.0600 
    222 H222       -1.2135  -24.5092  -51.9413 H         1 UNK         0.0600 
    223 H223       -1.5132  -22.9725  -51.1358 H         1 UNK         0.0600 
    224 H224       -0.5356  -23.0308  -52.5975 H         1 UNK         0.0600 
    225 H225       -4.6406  -21.6392  -52.4206 H         1 UNK         0.3000 
    226 H226       -3.3911  -19.1642  -52.6375 H         1 UNK         0.0600 
    227 H227       -6.3652  -19.8549  -52.8186 H         1 UNK         0.0600 
    228 H228       -5.4478  -19.5250  -51.3469 H         1 UNK         0.0600 
    229 H229       -5.7194  -18.2455  -52.5160 H         1 UNK         0.0600 
    230 H230       -4.5238  -21.0691  -55.2598 H         1 UNK         0.3000 
    231 H231       -4.9537  -19.1338  -57.2893 H         1 UNK         0.0600 
    232 H232       -3.8585  -21.9955  -57.4459 H         1 UNK         0.0600 
    233 H233       -4.4671  -21.0646  -58.8098 H         1 UNK         0.0600 
    234 H234       -5.5593  -21.5320  -57.5167 H         1 UNK         0.0600 
    235 H235       -1.9940  -20.0620  -55.6790 H         1 UNK         0.3000 
    236 H236       -0.0850  -19.2129  -57.6283 H         1 UNK         0.0600 
    237 H237        0.0594  -19.2764  -54.5639 H         1 UNK         0.0600 
    238 H238        0.4930  -20.6011  -55.6432 H         1 UNK         0.0600 
    239 H239        1.4360  -19.1178  -55.6487 H         1 UNK         0.0600 
    240 H240       -2.1454  -17.4291  -55.3734 H         1 UNK         0.3000 
    241 H241       -0.8722  -14.8374  -56.1535 H         1 UNK         0.0600 
    242 H242       -4.8538  -15.4507  -57.0181 H         1 UNK         0.3800 
    243 H243       -4.0592  -16.6016  -55.9660 H         1 UNK         0.3800 
    244 H244       -2.5606  -15.5076  -53.7051 H         1 UNK         0.0800 
    245 H245       -2.0909  -13.8832  -54.1548 H         1 UNK         0.0800 
    246 H246       -0.4141  -14.2215  -51.1157 H         1 UNK         0.0800 
    247 H247       -1.8317  -15.1438  -51.5426 H         1 UNK         0.0800 
@<TRIPOS>BOND
     1    1    2 1    
     2    1  127 1    
     3    1  128 1    
     4    1  129 1    
     5    2    3 2    
     6    2    4 am   BACKBONE|DICT|INTERRES
     7    4    5 1    
     8    4  130 1    
     9    5    6 1    
    10    5   65 1    
    11    5  131 1    
    12    6    7 1    
    13    6  132 1    
    14    6  133 1    
    15    7    8 1    
    16    8    9 1    
    17    8  134 1    
    18    8  135 1    
    19    9   10 ar   
    20    9   14 ar   
    21   10   11 ar   
    22   10  136 1    
    23   11   12 ar   
    24   11  126 1    
    25   12   13 ar   
    26   12  137 1    
    27   13   14 ar   
    28   13   15 1    
    29   14  138 1    
    30   15   16 1    
    31   15  139 1    
    32   15  140 1    
    33   16   17 1    
    34   17   18 1    
    35   17  141 1    
    36   17  142 1    
    37   18   19 1    
    38   18   67 1    
    39   18  143 1    
    40   19   20 am   BACKBONE|DICT|INTERRES
    41   19  144 1    
    42   20   21 2    
    43   20   22 1    
    44   22   23 1    
    45   22   24 1    
    46   22  145 1    
    47   23  146 1    
    48   23  147 1    
    49   23  148 1    
    50   24   25 am   BACKBONE|DICT|INTERRES
    51   24  149 1    
    52   25   26 2    
    53   25   27 1    
    54   27   28 1    
    55   27   29 1    
    56   27  150 1    
    57   28  151 1    
    58   28  152 1    
    59   28  153 1    
    60   29   30 am   BACKBONE|DICT|INTERRES
    61   29  154 1    
    62   30   31 2    
    63   30   32 1    
    64   32   33 1    
    65   32   34 1    
    66   32  155 1    
    67   33  156 1    
    68   33  157 1    
    69   33  158 1    
    70   34   35 am   BACKBONE|DICT|INTERRES
    71   34  159 1    
    72   35   36 2    
    73   35   37 1    
    74   37   38 1    
    75   37   39 1    
    76   37  160 1    
    77   38  161 1    
    78   38  162 1    
    79   38  163 1    
    80   39   40 am   BACKBONE|DICT|INTERRES
    81   39  164 1    
    82   40   41 2    
    83   40   42 1    
    84   42   43 1    
    85   42   44 1    
    86   42  165 1    
    87   43  166 1    
    88   43  167 1    
    89   43  168 1    
    90   44   45 am   BACKBONE|DICT|INTERRES
    91   44  169 1    
    92   45   46 2    
    93   45   47 1    
    94   47   48 1    
    95   47   49 1    
    96   47  170 1    
    97   48  171 1    
    98   48  172 1    
    99   48  173 1    
   100   49   50 am   BACKBONE|DICT|INTERRES
   101   49  174 1    
   102   50   51 2    
   103   50   52 1    
   104   52   53 1    
   105   52   54 1    
   106   52  175 1    
   107   53  176 1    
   108   53  177 1    
   109   53  178 1    
   110   54   55 am   BACKBONE|DICT|INTERRES
   111   54  179 1    
   112   55   56 2    
   113   55   57 1    
   114   57   58 1    
   115   57   59 1    
   116   57  180 1    
   117   58  181 1    
   118   58  182 1    
   119   58  183 1    
   120   59   60 am   BACKBONE|DICT|INTERRES
   121   59  184 1    
   122   60   61 2    
   123   60   62 1    
   124   62   63 1    
   125   62   64 1    
   126   62  185 1    
   127   63  186 1    
   128   63  187 1    
   129   63  188 1    
   130   64   65 am   BACKBONE|DICT|INTERRES
   131   64  189 1    
   132   65   66 2    
   133   67   68 2    
   134   67   69 am   BACKBONE|DICT|INTERRES
   135   69   70 1    
   136   69  190 1    
   137   70   71 1    
   138   70   72 1    
   139   70  191 1    
   140   71  192 1    
   141   71  193 1    
   142   71  194 1    
   143   72   73 2    
   144   72   74 am   BACKBONE|DICT|INTERRES
   145   74   75 1    
   146   74  195 1    
   147   75   76 1    
   148   75   77 1    
   149   75  196 1    
   150   76  197 1    
   151   76  198 1    
   152   76  199 1    
   153   77   78 2    
   154   77   79 am   BACKBONE|DICT|INTERRES
   155   79   80 1    
   156   79  200 1    
   157   80   81 1    
   158   80   82 1    
   159   80  201 1    
   160   81  202 1    
   161   81  203 1    
   162   81  204 1    
   163   82   83 2    
   164   82   84 am   BACKBONE|DICT|INTERRES
   165   84   85 1    
   166   84  205 1    
   167   85   86 1    
   168   85   87 1    
   169   85  206 1    
   170   86  207 1    
   171   86  208 1    
   172   86  209 1    
   173   87   88 2    
   174   87   89 am   BACKBONE|DICT|INTERRES
   175   89   90 1    
   176   89  210 1    
   177   90   91 1    
   178   90   92 1    
   179   90  211 1    
   180   91  212 1    
   181   91  213 1    
   182   91  214 1    
   183   92   93 2    
   184   92   94 am   BACKBONE|DICT|INTERRES
   185   94   95 1    
   186   94  215 1    
   187   95   96 1    
   188   95   97 1    
   189   95  216 1    
   190   96  217 1    
   191   96  218 1    
   192   96  219 1    
   193   97   98 2    
   194   97   99 am   BACKBONE|DICT|INTERRES
   195   99  100 1    
   196   99  220 1    
   197  100  101 1    
   198  100  102 1    
   199  100  221 1    
   200  101  222 1    
   201  101  223 1    
   202  101  224 1    
   203  102  103 2    
   204  102  104 am   BACKBONE|DICT|INTERRES
   205  104  105 1    
   206  104  225 1    
   207  105  106 1    
   208  105  107 1    
   209  105  226 1    
   210  106  227 1    
   211  106  228 1    
   212  106  229 1    
   213  107  108 2    
   214  107  109 am   BACKBONE|DICT|INTERRES
   215  109  110 1    
   216  109  230 1    
   217  110  111 1    
   218  110  112 1    
   219  110  231 1    
   220  111  232 1    
   221  111  233 1    
   222  111  234 1    
   223  112  113 2    
   224  112  114 am   BACKBONE|DICT|INTERRES
   225  114  115 1    
   226  114  235 1    
   227  115  116 1    
   228  115  117 1    
   229  115  236 1    
   230  116  237 1    
   231  116  238 1    
   232  116  239 1    
   233  117  118 2    
   234  117  119 am   BACKBONE|DICT|INTERRES
   235  119  120 1    
   236  119  240 1    
   237  120  121 1    
   238  120  124 1    
   239  120  241 1    
   240  121  122 am   BACKBONE|DICT|INTERRES
   241  121  123 2    
   242  122  242 1    
   243  122  243 1    
   244  124  125 1    
   245  124  244 1    
   246  124  245 1    
   247  125  126 1    
   248  126  246 1    
   249  126  247 1    
@<TRIPOS>SUBSTRUCTURE
     1 UNK         1 GROUP             0       ****    0 ROOT    
