@<TRIPOS>MOLECULE
3R540
247   249    1
SMALL
USER_CHARGES


@<TRIPOS>ATOM
      1 CA          4.6602  -10.4879  -48.1859 C.3       0 UNK        -0.1800 
      2 C           3.5664  -11.5034  -47.8933 C.2       0 UNK         0.5000 
      3 O           2.8969  -11.4002  -46.8639 O.2       0 UNK        -0.5000 
      4 N           3.3683  -12.4734  -48.7966 N.am      1 UNK        -0.5000 
      5 CA          2.3775  -13.5563  -48.7165 C.3       1 UNK         0.1400 
      6 C6          2.7910  -14.7456  -49.6208 C.3       23 UNK        -0.0398 
      7 S7          1.9878  -16.3130  -49.1437 S.3       23 UNK        -0.2404 
      8 C8          1.0947  -16.7070  -50.6783 C.3       23 UNK        -0.0205 
      9 C9          0.1857  -17.9064  -50.4861 C.ar      23 UNK        -0.0193 
     10 C10        -1.1525  -17.7223  -50.1373 C.ar      23 UNK        -0.1150 
     11 C11        -1.9948  -18.8196  -49.9457 C.ar      23 UNK        -0.0193 
     12 C12        -1.4855  -20.1134  -50.0990 C.ar      23 UNK        -0.1150 
     13 C13        -0.1425  -20.3109  -50.4400 C.ar      23 UNK        -0.0193 
     14 C14         0.6828  -19.2006  -50.6456 C.ar      23 UNK        -0.1150 
     15 C15         0.4171  -21.7230  -50.5754 C.3       23 UNK        -0.0205 
     16 S16         1.9554  -21.9905  -49.6205 S.3       23 UNK        -0.2404 
     17 C17         1.4565  -21.5221  -47.9241 C.3       23 UNK        -0.0398 
     18 CA          1.0531  -22.7197  -47.0331 C.3       11 UNK         0.1400 
     19 N           0.8722  -22.3209  -45.6369 N.am      11 UNK        -0.5000 
     20 C           0.6165  -23.1562  -44.6199 C.2       10 UNK         0.5000 
     21 O           0.5816  -24.3814  -44.7290 O.2       10 UNK        -0.5000 
     22 CA          0.2839  -22.5104  -43.2639 C.3       10 UNK         0.1400 
     23 CB          1.5648  -22.0897  -42.5288 C.3       10 UNK        -0.1800 
     24 N          -0.6170  -21.3636  -43.3981 N.am      10 UNK        -0.5000 
     25 C          -1.8700  -21.4396  -43.8714 C.2       9 UNK         0.5000 
     26 O          -2.4133  -22.4961  -44.1951 O.2       9 UNK        -0.5000 
     27 CA         -2.6333  -20.1145  -44.0488 C.3       9 UNK         0.1400 
     28 CB         -3.2032  -19.6309  -42.7072 C.3       9 UNK        -0.1800 
     29 N          -1.8132  -19.0601  -44.6475 N.am      9 UNK        -0.5000 
     30 C          -1.3058  -19.1036  -45.8881 C.2       8 UNK         0.5000 
     31 O          -1.5104  -20.0297  -46.6719 O.2       8 UNK        -0.5000 
     32 CA         -0.3656  -17.9521  -46.2981 C.3       8 UNK         0.1400 
     33 CB         -1.1538  -16.6852  -46.6620 C.3       8 UNK        -0.1800 
     34 N           0.6056  -17.6292  -45.2528 N.am      8 UNK        -0.5000 
     35 C           1.5320  -18.4776  -44.7858 C.2       7 UNK         0.5000 
     36 O           1.7115  -19.6113  -45.2282 O.2       7 UNK        -0.5000 
     37 CA          2.3573  -17.9979  -43.5814 C.3       7 UNK         0.1400 
     38 CB          3.5219  -17.1042  -44.0340 C.3       7 UNK        -0.1800 
     39 N           1.5269  -17.2880  -42.6071 N.am      7 UNK        -0.5000 
     40 C           0.6074  -17.8806  -41.8308 C.2       6 UNK         0.5000 
     41 O           0.3900  -19.0916  -41.8344 O.2       6 UNK        -0.5000 
     42 CA         -0.2390  -16.9645  -40.9277 C.3       6 UNK         0.1400 
     43 CB          0.5075  -16.6497  -39.6230 C.3       6 UNK        -0.1800 
     44 N          -0.6136  -15.7136  -41.5873 N.am      6 UNK        -0.5000 
     45 C          -1.4318  -15.6305  -42.6459 C.2       5 UNK         0.5000 
     46 O          -1.9984  -16.5999  -43.1476 O.2       5 UNK        -0.5000 
     47 CA         -1.6057  -14.2392  -43.2821 C.3       5 UNK         0.1400 
     48 CB         -2.7751  -13.4865  -42.6319 C.3       5 UNK        -0.1800 
     49 N          -0.4002  -13.4111  -43.2113 N.am      5 UNK        -0.5000 
     50 C           0.7832  -13.7175  -43.7573 C.2       4 UNK         0.5000 
     51 O           0.9947  -14.7635  -44.3742 O.2       4 UNK        -0.5000 
     52 CA          1.8952  -12.6629  -43.5927 C.3       4 UNK         0.1400 
     53 CB          3.2702  -13.1773  -44.0542 C.3       4 UNK        -0.1800 
     54 N           1.5635  -11.4546  -44.3435 N.am      4 UNK        -0.5000 
     55 C           0.6914  -10.5108  -43.9612 C.2       3 UNK         0.5000 
     56 O           0.1300  -10.5038  -42.8646 O.2       3 UNK        -0.5000 
     57 CA          0.3458   -9.4363  -45.0072 C.3       3 UNK         0.1400 
     58 CB          1.4533   -8.3745  -45.0879 C.3       3 UNK        -0.1800 
     59 N           0.1458  -10.0311  -46.3290 N.am      3 UNK        -0.5000 
     60 C          -0.9140  -10.7771  -46.6802 C.2       2 UNK         0.5000 
     61 O          -1.9039  -10.9465  -45.9687 O.2       2 UNK        -0.5000 
     62 CA         -0.8117  -11.5021  -48.0288 C.3       2 UNK         0.1400 
     63 CB         -1.0172  -10.5258  -49.2027 C.3       2 UNK        -0.1800 
     64 N           0.4950  -12.1463  -48.0907 N.am      2 UNK        -0.5000 
     65 C           0.9411  -13.0357  -48.9782 C.2       1 UNK         0.5000 
     66 O           0.2928  -13.4117  -49.9551 O.2       1 UNK        -0.5000 
     67 C          -0.1966  -23.4392  -47.5736 C.2       11 UNK         0.5000 
     68 O          -0.0663  -24.5390  -48.1081 O.2       11 UNK        -0.5000 
     69 N          -1.3790  -22.8315  -47.3946 N.am      12 UNK        -0.5000 
     70 CA         -2.6642  -23.3861  -47.8216 C.3       12 UNK         0.1400 
     71 CB         -3.7889  -22.3850  -47.5265 C.3       12 UNK        -0.1800 
     72 C          -2.9751  -24.7514  -47.1864 C.2       12 UNK         0.5000 
     73 O          -3.4425  -25.6488  -47.8861 O.2       12 UNK        -0.5000 
     74 N          -2.6746  -24.8950  -45.8888 N.am      13 UNK        -0.5000 
     75 CA         -2.8020  -26.1460  -45.1443 C.3       13 UNK         0.1400 
     76 CB         -2.6191  -25.8684  -43.6444 C.3       13 UNK        -0.1800 
     77 C          -1.8202  -27.2313  -45.6256 C.2       13 UNK         0.5000 
     78 O          -2.2244  -28.3841  -45.7801 O.2       13 UNK        -0.5000 
     79 N          -0.5570  -26.8476  -45.8569 N.am      14 UNK        -0.5000 
     80 CA          0.5126  -27.7412  -46.3027 C.3       14 UNK         0.1400 
     81 CB          1.8715  -27.0484  -46.1165 C.3       14 UNK        -0.1800 
     82 C           0.3390  -28.2122  -47.7573 C.2       14 UNK         0.5000 
     83 O           0.4867  -29.4040  -48.0315 O.2       14 UNK        -0.5000 
     84 N           0.0358  -27.2729  -48.6623 N.am      15 UNK        -0.5000 
     85 CA         -0.1433  -27.5285  -50.0921 C.3       15 UNK         0.1400 
     86 CB          0.0264  -26.2093  -50.8635 C.3       15 UNK        -0.1800 
     87 C          -1.5053  -28.1610  -50.4257 C.2       15 UNK         0.5000 
     88 O          -1.6246  -28.8079  -51.4667 O.2       15 UNK        -0.5000 
     89 N          -2.5047  -27.9361  -49.5583 N.am      16 UNK        -0.5000 
     90 CA         -3.9200  -28.2907  -49.7185 C.3       16 UNK         0.1400 
     91 CB         -4.1102  -29.8214  -49.7644 C.3       16 UNK        -0.1800 
     92 C          -4.5864  -27.5583  -50.9053 C.2       16 UNK         0.5000 
     93 O          -5.5400  -28.0740  -51.4920 O.2       16 UNK        -0.5000 
     94 N          -4.0713  -26.3690  -51.2405 N.am      17 UNK        -0.5000 
     95 CA         -4.4878  -25.5353  -52.3606 C.3       17 UNK         0.1400 
     96 CB         -3.9529  -26.1206  -53.6813 C.3       17 UNK        -0.1800 
     97 C          -3.9609  -24.1091  -52.1506 C.2       17 UNK         0.5000 
     98 O          -2.9616  -23.9150  -51.4541 O.2       17 UNK        -0.5000 
     99 N          -4.6398  -23.1431  -52.7754 N.am      18 UNK        -0.5000 
    100 CA        -4.2546  -21.7344  -52.8140 C.3       18 UNK         0.1400 
    101 CB        -5.4985  -20.9167  -53.1959 C.3       18 UNK        -0.1800 
    102 C         -3.1291  -21.4821  -53.8340 C.2       18 UNK         0.5000 
    103 O         -3.0245  -22.2104  -54.8245 O.2       18 UNK        -0.5000 
    104 N         -2.3524  -20.4174  -53.6074 N.am      19 UNK        -0.5000 
    105 CA        -1.3442  -19.9048  -54.5407 C.3       19 UNK         0.1400 
    106 CB         0.0374  -20.4981  -54.2131 C.3       19 UNK        -0.1800 
    107 C         -1.3472  -18.3637  -54.5607 C.2       19 UNK         0.5000 
    108 O         -0.3264  -17.7460  -54.8674 O.2       19 UNK        -0.5000 
    109 N         -2.5020  -17.7709  -54.2412 N.am      20 UNK        -0.5000 
    110 CA        -2.7812  -16.3402  -54.2161 C.3       20 UNK         0.1400 
    111 CB        -2.1389  -15.6894  -52.9730 C.3       20 UNK        -0.1800 
    112 C         -4.3102  -16.1670  -54.2466 C.2       20 UNK         0.5000 
    113 O         -5.0318  -17.1318  -54.5229 O.2       20 UNK        -0.5000 
    114 N         -4.7934  -14.9585  -53.9318 N.am      21 UNK        -0.5000 
    115 CA        -6.2121  -14.6213  -53.7776 C.3       21 UNK         0.1400 
    116 CB        -6.3712  -13.0944  -53.8917 C.3       21 UNK        -0.1800 
    117 C         -6.7941  -15.1857  -52.4607 C.2       21 UNK         0.5000 
    118 O         -7.2112  -14.4272  -51.5832 O.2       21 UNK        -0.5000 
    119 N         -6.7742  -16.5149  -52.3415 N.am      22 UNK        -0.5000 
    120 CA        -7.1484  -17.2909  -51.1508 C.3       22 UNK         0.1400 
    121 C         -7.9272  -18.5979  -51.4775 C.2       22 UNK         0.5000 
    122 N         -8.3450  -18.8306  -52.7167 N.am      22 UNK        -0.7600 
    123 O         -8.1864  -19.4053  -50.5895 O.2       22 UNK        -0.5000 
    124 C124       -5.9381  -17.5120  -50.2013 C.3       23 UNK        -0.0398 
    125 S125       -4.4802  -18.2684  -51.0041 S.3       23 UNK        -0.2404 
    126 C126       -3.4439  -18.5895  -49.5505 C.3       23 UNK        -0.0205 
    127 H127        4.2356   -9.4854  -48.2370 H         1 UNK         0.0600 
    128 H128        5.1640  -10.6941  -49.1304 H         1 UNK         0.0600 
    129 H129        5.4057  -10.5033  -47.3910 H         1 UNK         0.0600 
    130 H130        3.9320  -12.4705  -49.6348 H         1 UNK         0.3000 
    131 H131        2.3912  -13.9189  -47.6855 H         1 UNK         0.0600 
    132 H132        3.8650  -14.9165  -49.5338 H         1 UNK         0.0800 
    133 H133        2.6145  -14.5211  -50.6742 H         1 UNK         0.0800 
    134 H134        0.5069  -15.8444  -50.9940 H         1 UNK         0.0800 
    135 H135        1.8100  -16.9041  -51.4782 H         1 UNK         0.0800 
    136 H136       -1.5377  -16.7209  -50.0070 H         1 UNK         0.1150 
    137 H137       -2.1300  -20.9658  -49.9378 H         1 UNK         0.1150 
    138 H138        1.7209  -19.3444  -50.9100 H         1 UNK         0.1150 
    139 H139       -0.3263  -22.4632  -50.2765 H         1 UNK         0.0800 
    140 H140        0.6252  -21.9193  -51.6270 H         1 UNK         0.0800 
    141 H141        0.6662  -20.7727  -47.9514 H         1 UNK         0.0800 
    142 H142        2.3142  -21.0177  -47.4777 H         1 UNK         0.0800 
    143 H143        1.8749  -23.4387  -47.0489 H         1 UNK         0.0600 
    144 H144        0.9313  -21.3241  -45.4445 H         1 UNK         0.3000 
    145 H145       -0.2237  -23.2617  -42.6556 H         1 UNK         0.0600 
    146 H146        1.3400  -21.7110  -41.5317 H         1 UNK         0.0600 
    147 H147        2.2424  -22.9360  -42.4099 H         1 UNK         0.0600 
    148 H148        2.1031  -21.3110  -43.0691 H         1 UNK         0.0600 
    149 H149       -0.2553  -20.4634  -43.0982 H         1 UNK         0.3000 
    150 H150       -3.4712  -20.3045  -44.7225 H         1 UNK         0.0600 
    151 H151       -3.8266  -20.3988  -42.2475 H         1 UNK         0.0600 
    152 H152       -3.8239  -18.7448  -42.8402 H         1 UNK         0.0600 
    153 H153       -2.4121  -19.3815  -41.9997 H         1 UNK         0.0600 
    154 H154       -1.6474  -18.2359  -44.0765 H         1 UNK         0.3000 
    155 H155        0.1880  -18.2736  -47.1831 H         1 UNK         0.0600 
    156 H156       -0.4894  -15.8947  -47.0123 H         1 UNK         0.0600 
    157 H157       -1.8680  -16.8852  -47.4584 H         1 UNK         0.0600 
    158 H158       -1.7159  -16.3000  -45.8126 H         1 UNK         0.0600 
    159 H159        0.5609  -16.6972  -44.8541 H         1 UNK         0.3000 
    160 H160        2.7797  -18.8772  -43.0906 H         1 UNK         0.0600 
    161 H161        3.1751  -16.2332  -44.5897 H         1 UNK         0.0600 
    162 H162        4.1988  -17.6555  -44.6878 H         1 UNK         0.0600 
    163 H163        4.1058  -16.7523  -43.1836 H         1 UNK         0.0600 
    164 H164        1.5972  -16.2811  -42.6001 H         1 UNK         0.3000 
    165 H165       -1.1556  -17.5017  -40.6751 H         1 UNK         0.0600 
    166 H166       -0.1144  -16.0662  -38.9440 H         1 UNK         0.0600 
    167 H167        0.7839  -17.5671  -39.1013 H         1 UNK         0.0600 
    168 H168        1.4240  -16.0876  -39.8067 H         1 UNK         0.0600 
    169 H169       -0.1929  -14.8656  -41.2375 H         1 UNK         0.3000 
    170 H170       -1.8409  -14.3855  -44.3378 H         1 UNK         0.0600 
    171 H171       -3.6955  -14.0692  -42.6900 H         1 UNK         0.0600 
    172 H172       -2.5837  -13.2765  -41.5789 H         1 UNK         0.0600 
    173 H173       -2.9598  -12.5373  -43.1359 H         1 UNK         0.0600 
    174 H174       -0.4934  -12.5023  -42.7712 H         1 UNK         0.3000 
    175 H175        1.9696  -12.4159  -42.5317 H         1 UNK         0.0600 
    176 H176        3.5834  -14.0358  -43.4596 H         1 UNK         0.0600 
    177 H177        3.2585  -13.4868  -45.1000 H         1 UNK         0.0600 
    178 H178        4.0359  -12.4095  -43.9431 H         1 UNK         0.0600 
    179 H179        1.9980  -11.3753  -45.2596 H         1 UNK         0.3000 
    180 H180       -0.5802   -8.9460  -44.6992 H         1 UNK         0.0600 
    181 H181        2.4022   -8.8030  -45.4141 H         1 UNK         0.0600 
    182 H182        1.6193   -7.9099  -44.1152 H         1 UNK         0.0600 
    183 H183        1.1869   -7.5805  -45.7858 H         1 UNK         0.0600 
    184 H184        0.9130   -9.9362  -46.9789 H         1 UNK         0.3000 
    185 H185       -1.5827  -12.2745  -48.0633 H         1 UNK         0.0600 
    186 H186       -1.9646   -9.9944  -49.1052 H         1 UNK         0.0600 
    187 H187       -0.2237   -9.7793  -49.2512 H         1 UNK         0.0600 
    188 H188       -1.0405  -11.0498  -50.1579 H         1 UNK         0.0600 
    189 H189        1.1431  -11.8905  -47.3519 H         1 UNK         0.3000 
    190 H190       -1.4017  -21.9066  -46.9716 H         1 UNK         0.3000 
    191 H191       -2.6095  -23.5283  -48.9012 H         1 UNK         0.0600 
    192 H192       -3.9012  -22.2059  -46.4572 H         1 UNK         0.0600 
    193 H193       -4.7451  -22.7498  -47.9031 H         1 UNK         0.0600 
    194 H194       -3.5939  -21.4278  -48.0037 H         1 UNK         0.0600 
    195 H195       -2.3388  -24.0862  -45.3739 H         1 UNK         0.3000 
    196 H196       -3.8152  -26.5239  -45.2965 H         1 UNK         0.0600 
    197 H197       -2.7287  -26.7833  -43.0609 H         1 UNK         0.0600 
    198 H198       -3.3636  -25.1592  -43.2821 H         1 UNK         0.0600 
    199 H199       -1.6334  -25.4554  -43.4278 H         1 UNK         0.0600 
    200 H200       -0.2933  -25.8842  -45.6712 H         1 UNK         0.3000 
    201 H201        0.4991  -28.6271  -45.6643 H         1 UNK         0.0600 
    202 H202        2.0466  -26.8019  -45.0692 H         1 UNK         0.0600 
    203 H203        1.9343  -26.1237  -46.6915 H         1 UNK         0.0600 
    204 H204        2.6888  -27.6942  -46.4398 H         1 UNK         0.0600 
    205 H205       -0.0447  -26.3010  -48.3628 H         1 UNK         0.3000 
    206 H206        0.6353  -28.2186  -50.4238 H         1 UNK         0.0600 
    207 H207        0.9996  -25.7584  -50.6680 H         1 UNK         0.0600 
    208 H208       -0.0483  -26.3716  -51.9394 H         1 UNK         0.0600 
    209 H209       -0.7387  -25.4815  -50.5895 H         1 UNK         0.0600 
    210 H210       -2.3059  -27.3561  -48.7525 H         1 UNK         0.3000 
    211 H211       -4.4261  -27.9317  -48.8218 H         1 UNK         0.0600 
    212 H212       -3.7114  -30.2548  -50.6817 H         1 UNK         0.0600 
    213 H213       -5.1674  -30.0843  -49.7139 H         1 UNK         0.0600 
    214 H214       -3.6164  -30.3045  -48.9212 H         1 UNK         0.0600 
    215 H215       -3.3238  -25.9762  -50.6817 H         1 UNK         0.3000 
    216 H216       -5.5789  -25.5013  -52.3887 H         1 UNK         0.0600 
    217 H217       -2.8655  -26.2069  -53.6668 H         1 UNK         0.0600 
    218 H218       -4.2210  -25.4892  -54.5293 H         1 UNK         0.0600 
    219 H219       -4.3636  -27.1116  -53.8748 H         1 UNK         0.0600 
    220 H220       -5.4195  -23.4006  -53.3624 H         1 UNK         0.3000 
    221 H221       -3.9143  -21.4250  -51.8232 H         1 UNK         0.0600 
    222 H222       -6.2710  -21.0032  -52.4320 H         1 UNK         0.0600 
    223 H223       -5.9248  -21.2482  -54.1435 H         1 UNK         0.0600 
    224 H224       -5.2655  -19.8576  -53.3047 H         1 UNK         0.0600 
    225 H225       -2.4883  -19.8691  -52.7679 H         1 UNK         0.3000 
    226 H226       -1.6068  -20.2090  -55.5560 H         1 UNK         0.0600 
    227 H227        0.7650  -20.2399  -54.9832 H         1 UNK         0.0600 
    228 H228        0.4189  -20.1191  -53.2670 H         1 UNK         0.0600 
    229 H229        0.0002  -21.5859  -54.1542 H         1 UNK         0.0600 
    230 H230       -3.3263  -18.3394  -54.0920 H         1 UNK         0.3000 
    231 H231       -2.3737  -15.8845  -55.1203 H         1 UNK         0.0600 
    232 H232       -2.6142  -16.0326  -52.0542 H         1 UNK         0.0600 
    233 H233       -2.2231  -14.6030  -53.0022 H         1 UNK         0.0600 
    234 H234       -1.0763  -15.9202  -52.9043 H         1 UNK         0.0600 
    235 H235       -4.1396  -14.2291  -53.6879 H         1 UNK         0.3000 
    236 H236       -6.7713  -15.0739  -54.5992 H         1 UNK         0.0600 
    237 H237       -6.0093  -12.7315  -54.8539 H         1 UNK         0.0600 
    238 H238       -7.4192  -12.8032  -53.8105 H         1 UNK         0.0600 
    239 H239       -5.8221  -12.5713  -53.1078 H         1 UNK         0.0600 
    240 H240       -6.3403  -17.0447  -53.0917 H         1 UNK         0.3000 
    241 H241       -7.8793  -16.7030  -50.5928 H         1 UNK         0.0600 
    242 H242       -8.8602  -19.6744  -52.9113 H         1 UNK         0.3800 
    243 H243       -8.1867  -18.1625  -53.4535 H         1 UNK         0.3800 
    244 H244       -6.2267  -18.1150  -49.3387 H         1 UNK         0.0800 
    245 H245       -5.6267  -16.5490  -49.7947 H         1 UNK         0.0800 
    246 H246       -3.5065  -17.7416  -48.8681 H         1 UNK         0.0800 
    247 H247       -3.8402  -19.4467  -49.0089 H         1 UNK         0.0800 
@<TRIPOS>BOND
     1    1    2 1    
     2    1  127 1    
     3    1  128 1    
     4    1  129 1    
     5    2    3 2    
     6    2    4 am   BACKBONE|DICT|INTERRES
     7    4    5 1    
     8    4  130 1    
     9    5    6 1    
    10    5   65 1    
    11    5  131 1    
    12    6    7 1    
    13    6  132 1    
    14    6  133 1    
    15    7    8 1    
    16    8    9 1    
    17    8  134 1    
    18    8  135 1    
    19    9   10 ar   
    20    9   14 ar   
    21   10   11 ar   
    22   10  136 1    
    23   11   12 ar   
    24   11  126 1    
    25   12   13 ar   
    26   12  137 1    
    27   13   14 ar   
    28   13   15 1    
    29   14  138 1    
    30   15   16 1    
    31   15  139 1    
    32   15  140 1    
    33   16   17 1    
    34   17   18 1    
    35   17  141 1    
    36   17  142 1    
    37   18   19 1    
    38   18   67 1    
    39   18  143 1    
    40   19   20 am   BACKBONE|DICT|INTERRES
    41   19  144 1    
    42   20   21 2    
    43   20   22 1    
    44   22   23 1    
    45   22   24 1    
    46   22  145 1    
    47   23  146 1    
    48   23  147 1    
    49   23  148 1    
    50   24   25 am   BACKBONE|DICT|INTERRES
    51   24  149 1    
    52   25   26 2    
    53   25   27 1    
    54   27   28 1    
    55   27   29 1    
    56   27  150 1    
    57   28  151 1    
    58   28  152 1    
    59   28  153 1    
    60   29   30 am   BACKBONE|DICT|INTERRES
    61   29  154 1    
    62   30   31 2    
    63   30   32 1    
    64   32   33 1    
    65   32   34 1    
    66   32  155 1    
    67   33  156 1    
    68   33  157 1    
    69   33  158 1    
    70   34   35 am   BACKBONE|DICT|INTERRES
    71   34  159 1    
    72   35   36 2    
    73   35   37 1    
    74   37   38 1    
    75   37   39 1    
    76   37  160 1    
    77   38  161 1    
    78   38  162 1    
    79   38  163 1    
    80   39   40 am   BACKBONE|DICT|INTERRES
    81   39  164 1    
    82   40   41 2    
    83   40   42 1    
    84   42   43 1    
    85   42   44 1    
    86   42  165 1    
    87   43  166 1    
    88   43  167 1    
    89   43  168 1    
    90   44   45 am   BACKBONE|DICT|INTERRES
    91   44  169 1    
    92   45   46 2    
    93   45   47 1    
    94   47   48 1    
    95   47   49 1    
    96   47  170 1    
    97   48  171 1    
    98   48  172 1    
    99   48  173 1    
   100   49   50 am   BACKBONE|DICT|INTERRES
   101   49  174 1    
   102   50   51 2    
   103   50   52 1    
   104   52   53 1    
   105   52   54 1    
   106   52  175 1    
   107   53  176 1    
   108   53  177 1    
   109   53  178 1    
   110   54   55 am   BACKBONE|DICT|INTERRES
   111   54  179 1    
   112   55   56 2    
   113   55   57 1    
   114   57   58 1    
   115   57   59 1    
   116   57  180 1    
   117   58  181 1    
   118   58  182 1    
   119   58  183 1    
   120   59   60 am   BACKBONE|DICT|INTERRES
   121   59  184 1    
   122   60   61 2    
   123   60   62 1    
   124   62   63 1    
   125   62   64 1    
   126   62  185 1    
   127   63  186 1    
   128   63  187 1    
   129   63  188 1    
   130   64   65 am   BACKBONE|DICT|INTERRES
   131   64  189 1    
   132   65   66 2    
   133   67   68 2    
   134   67   69 am   BACKBONE|DICT|INTERRES
   135   69   70 1    
   136   69  190 1    
   137   70   71 1    
   138   70   72 1    
   139   70  191 1    
   140   71  192 1    
   141   71  193 1    
   142   71  194 1    
   143   72   73 2    
   144   72   74 am   BACKBONE|DICT|INTERRES
   145   74   75 1    
   146   74  195 1    
   147   75   76 1    
   148   75   77 1    
   149   75  196 1    
   150   76  197 1    
   151   76  198 1    
   152   76  199 1    
   153   77   78 2    
   154   77   79 am   BACKBONE|DICT|INTERRES
   155   79   80 1    
   156   79  200 1    
   157   80   81 1    
   158   80   82 1    
   159   80  201 1    
   160   81  202 1    
   161   81  203 1    
   162   81  204 1    
   163   82   83 2    
   164   82   84 am   BACKBONE|DICT|INTERRES
   165   84   85 1    
   166   84  205 1    
   167   85   86 1    
   168   85   87 1    
   169   85  206 1    
   170   86  207 1    
   171   86  208 1    
   172   86  209 1    
   173   87   88 2    
   174   87   89 am   BACKBONE|DICT|INTERRES
   175   89   90 1    
   176   89  210 1    
   177   90   91 1    
   178   90   92 1    
   179   90  211 1    
   180   91  212 1    
   181   91  213 1    
   182   91  214 1    
   183   92   93 2    
   184   92   94 am   BACKBONE|DICT|INTERRES
   185   94   95 1    
   186   94  215 1    
   187   95   96 1    
   188   95   97 1    
   189   95  216 1    
   190   96  217 1    
   191   96  218 1    
   192   96  219 1    
   193   97   98 2    
   194   97   99 am   BACKBONE|DICT|INTERRES
   195   99  100 1    
   196   99  220 1    
   197  100  101 1    
   198  100  102 1    
   199  100  221 1    
   200  101  222 1    
   201  101  223 1    
   202  101  224 1    
   203  102  103 2    
   204  102  104 am   BACKBONE|DICT|INTERRES
   205  104  105 1    
   206  104  225 1    
   207  105  106 1    
   208  105  107 1    
   209  105  226 1    
   210  106  227 1    
   211  106  228 1    
   212  106  229 1    
   213  107  108 2    
   214  107  109 am   BACKBONE|DICT|INTERRES
   215  109  110 1    
   216  109  230 1    
   217  110  111 1    
   218  110  112 1    
   219  110  231 1    
   220  111  232 1    
   221  111  233 1    
   222  111  234 1    
   223  112  113 2    
   224  112  114 am   BACKBONE|DICT|INTERRES
   225  114  115 1    
   226  114  235 1    
   227  115  116 1    
   228  115  117 1    
   229  115  236 1    
   230  116  237 1    
   231  116  238 1    
   232  116  239 1    
   233  117  118 2    
   234  117  119 am   BACKBONE|DICT|INTERRES
   235  119  120 1    
   236  119  240 1    
   237  120  121 1    
   238  120  124 1    
   239  120  241 1    
   240  121  122 am   BACKBONE|DICT|INTERRES
   241  121  123 2    
   242  122  242 1    
   243  122  243 1    
   244  124  125 1    
   245  124  244 1    
   246  124  245 1    
   247  125  126 1    
   248  126  246 1    
   249  126  247 1    
@<TRIPOS>SUBSTRUCTURE
     1 UNK         1 GROUP             0       ****    0 ROOT    
