@<TRIPOS>MOLECULE
3R540
247   249    1
SMALL
USER_CHARGES


@<TRIPOS>ATOM
      1 CA         -4.4248  -15.3002  -49.3391 C.3       0 UNK        -0.1800 
      2 C          -2.9190  -15.0831  -49.3996 C.2       0 UNK         0.5000 
      3 O          -2.2904  -15.3853  -50.4123 O.2       0 UNK        -0.5000 
      4 N          -2.3449  -14.5523  -48.3183 N.am      1 UNK        -0.5000 
      5 CA         -0.9341  -14.2045  -48.1672 C.3       1 UNK         0.1400 
      6 C6         -0.0180  -15.4535  -48.0278 C.3       23 UNK        -0.0398 
      7 S7          1.7278  -15.1171  -48.4485 S.3       23 UNK        -0.2404 
      8 C8          1.7680  -15.4927  -50.2300 C.3       23 UNK        -0.0205 
      9 C9          1.6475  -16.9832  -50.5083 C.ar      23 UNK        -0.0193 
     10 C10         0.4927  -17.4986  -51.1031 C.ar      23 UNK        -0.1150 
     11 C11         0.3798  -18.8662  -51.3613 C.ar      23 UNK        -0.0193 
     12 C12         1.4337  -19.7184  -51.0265 C.ar      23 UNK        -0.1150 
     13 C13         2.5948  -19.2183  -50.4304 C.ar      23 UNK        -0.0193 
     14 C14         2.6962  -17.8470  -50.1789 C.ar      23 UNK        -0.1150 
     15 C15         3.7490  -20.1457  -50.0672 C.3       23 UNK        -0.0205 
     16 S16         3.2210  -21.6842  -49.2417 S.3       23 UNK        -0.2404 
     17 C17         2.4570  -21.0440  -47.7142 C.3       23 UNK        -0.0398 
     18 CA          1.1942  -21.8401  -47.3045 C.3       11 UNK         0.1400 
     19 N           0.9575  -21.7755  -45.8596 N.am      11 UNK        -0.5000 
     20 C           0.0955  -22.5596  -45.1979 C.2       10 UNK         0.5000 
     21 O          -0.5883  -23.4281  -45.7369 O.2       10 UNK        -0.5000 
     22 CA         -0.0571  -22.3155  -43.6872 C.3       10 UNK         0.1400 
     23 CB          1.0890  -22.9817  -42.9118 C.3       10 UNK        -0.1800 
     24 N          -0.1303  -20.8957  -43.3434 N.am      10 UNK        -0.5000 
     25 C          -1.1033  -20.0643  -43.7436 C.2       9 UNK         0.5000 
     26 O          -2.0582  -20.4113  -44.4378 O.2       9 UNK        -0.5000 
     27 CA         -0.9587  -18.5847  -43.3438 C.3       9 UNK         0.1400 
     28 CB         -1.3202  -18.3796  -41.8651 C.3       9 UNK        -0.1800 
     29 N           0.3851  -18.0666  -43.5997 N.am      9 UNK        -0.5000 
     30 C           0.9624  -18.0162  -44.8094 C.2       8 UNK         0.5000 
     31 O           0.4053  -18.3489  -45.8560 O.2       8 UNK        -0.5000 
     32 CA          2.4305  -17.5639  -44.8419 C.3       8 UNK         0.1400 
     33 CB          2.5336  -16.0348  -44.7343 C.3       8 UNK        -0.1800 
     34 N           3.2155  -18.1898  -43.7763 N.am      8 UNK        -0.5000 
     35 C           3.4904  -19.5010  -43.7113 C.2       7 UNK         0.5000 
     36 O           3.1271  -20.3178  -44.5557 O.2       7 UNK        -0.5000 
     37 CA          4.2616  -19.9892  -42.4724 C.3       7 UNK         0.1400 
     38 CB          5.7671  -19.7305  -42.6325 C.3       7 UNK        -0.1800 
     39 N           3.7887  -19.3660  -41.2369 N.am      7 UNK        -0.5000 
     40 C           2.5643  -19.5394  -40.7190 C.2       6 UNK         0.5000 
     41 O           1.7119  -20.2784  -41.2086 O.2       6 UNK        -0.5000 
     42 CA          2.2179  -18.7065  -39.4720 C.3       6 UNK         0.1400 
     43 CB          2.6312  -19.4500  -38.1934 C.3       6 UNK        -0.1800 
     44 N           2.8284  -17.3743  -39.4807 N.am      6 UNK        -0.5000 
     45 C           2.5718  -16.4314  -40.3958 C.2       5 UNK         0.5000 
     46 O           1.8157  -16.5939  -41.3582 O.2       5 UNK        -0.5000 
     47 CA          3.3114  -15.0958  -40.2330 C.3       5 UNK         0.1400 
     48 CB          4.3860  -14.9341  -41.3194 C.3       5 UNK        -0.1800 
     49 N           2.3474  -14.0091  -40.3439 N.am      5 UNK        -0.5000 
     50 C           1.6186  -13.5343  -39.3258 C.2       4 UNK         0.5000 
     51 O           1.8035  -13.8378  -38.1464 O.2       4 UNK        -0.5000 
     52 CA          0.4681  -12.5808  -39.6975 C.3       4 UNK         0.1400 
     53 CB          0.9546  -11.1239  -39.7149 C.3       4 UNK        -0.1800 
     54 N          -0.1258  -12.9030  -40.9962 N.am      4 UNK        -0.5000 
     55 C          -0.8314  -14.0050  -41.2764 C.2       3 UNK         0.5000 
     56 O          -1.1227  -14.8502  -40.4303 O.2       3 UNK        -0.5000 
     57 CA         -1.2863  -14.2205  -42.7363 C.3       3 UNK         0.1400 
     58 CB         -2.7442  -13.7634  -42.9259 C.3       3 UNK        -0.1800 
     59 N          -0.4257  -13.6488  -43.7853 N.am      3 UNK        -0.5000 
     60 C          -0.1369  -12.3645  -44.0488 C.2       2 UNK         0.5000 
     61 O          -0.4699  -11.4185  -43.3351 O.2       2 UNK        -0.5000 
     62 CA          0.6610  -12.0890  -45.3383 C.3       2 UNK         0.1400 
     63 CB          2.1695  -12.1109  -45.0471 C.3       2 UNK        -0.1800 
     64 N           0.3668  -13.0189  -46.4346 N.am      2 UNK        -0.5000 
     65 C          -0.8352  -13.1953  -47.0017 C.2       1 UNK         0.5000 
     66 O          -1.8490  -12.5916  -46.6374 O.2       1 UNK        -0.5000 
     67 C          -0.0574  -21.4399  -48.1184 C.2       11 UNK         0.5000 
     68 O          -0.3697  -22.0983  -49.1119 O.2       11 UNK        -0.5000 
     69 N          -0.7904  -20.4168  -47.6517 N.am      12 UNK        -0.5000 
     70 CA         -2.0853  -20.0230  -48.2069 C.3       12 UNK         0.1400 
     71 CB         -2.5274  -18.6779  -47.6136 C.3       12 UNK        -0.1800 
     72 C          -3.1640  -21.0999  -47.9936 C.2       12 UNK         0.5000 
     73 O          -3.8745  -21.4394  -48.9413 O.2       12 UNK        -0.5000 
     74 N          -3.2530  -21.6388  -46.7687 N.am      13 UNK        -0.5000 
     75 CA         -4.1912  -22.6964  -46.3828 C.3       13 UNK         0.1400 
     76 CB         -4.1070  -22.9422  -44.8698 C.3       13 UNK        -0.1800 
     77 C          -3.9820  -24.0085  -47.1598 C.2       13 UNK         0.5000 
     78 O          -4.9628  -24.6252  -47.5762 O.2       13 UNK        -0.5000 
     79 N          -2.7158  -24.3798  -47.3967 N.am      14 UNK        -0.5000 
     80 CA         -2.3094  -25.5307  -48.2099 C.3       14 UNK         0.1400 
     81 CB         -0.7874  -25.7108  -48.1063 C.3       14 UNK        -0.1800 
     82 C          -2.7389  -25.4259  -49.6874 C.2       14 UNK         0.5000 
     83 O          -2.9375  -26.4535  -50.3356 O.2       14 UNK        -0.5000 
     84 N          -2.9133  -24.1923  -50.1769 N.am      15 UNK        -0.5000 
     85 CA         -3.4362  -23.8645  -51.5017 C.3       15 UNK         0.1400 
     86 CB         -2.6779  -22.6368  -52.0263 C.3       15 UNK        -0.1800 
     87 C          -4.9605  -23.6209  -51.4843 C.2       15 UNK         0.5000 
     88 O          -5.4742  -22.9819  -52.4028 O.2       15 UNK        -0.5000 
     89 N          -5.6539  -24.1049  -50.4416 N.am      16 UNK        -0.5000 
     90 CA         -7.0975  -24.0009  -50.2040 C.3       16 UNK         0.1400 
     91 CB         -7.8874  -24.8003  -51.2612 C.3       16 UNK        -0.1800 
     92 C          -7.5677  -22.5396  -50.0596 C.2       16 UNK         0.5000 
     93 O          -8.5617  -22.1429  -50.6687 O.2       16 UNK        -0.5000 
     94 N          -6.8185  -21.7716  -49.2550 N.am      17 UNK        -0.5000 
     95 CA         -6.9509  -20.3294  -49.0231 C.3       17 UNK         0.1400 
     96 CB         -8.3223  -19.9670  -48.4147 C.3       17 UNK        -0.1800 
     97 C          -6.5958  -19.5229  -50.2877 C.2       17 UNK         0.5000 
     98 O          -7.3326  -18.6157  -50.6781 O.2       17 UNK        -0.5000 
     99 N          -5.4541  -19.8870  -50.8913 N.am      18 UNK        -0.5000 
    100 CA        -4.8521  -19.2976  -52.0911 C.3       18 UNK         0.1400 
    101 CB        -4.3606  -17.8676  -51.7942 C.3       18 UNK        -0.1800 
    102 C         -5.7641  -19.3683  -53.3330 C.2       18 UNK         0.5000 
    103 O         -5.8690  -18.3963  -54.0842 O.2       18 UNK        -0.5000 
    104 N         -6.3919  -20.5298  -53.5556 N.am      19 UNK        -0.5000 
    105 CA        -7.2897  -20.8066  -54.6793 C.3       19 UNK         0.1400 
    106 CB        -8.2593  -21.9299  -54.2737 C.3       19 UNK        -0.1800 
    107 C         -6.5062  -21.1359  -55.9681 C.2       19 UNK         0.5000 
    108 O         -6.7141  -22.1900  -56.5699 O.2       19 UNK        -0.5000 
    109 N         -5.5805  -20.2408  -56.3409 N.am      20 UNK        -0.5000 
    110 CA        -4.6791  -20.2551  -57.5032 C.3       20 UNK         0.1400 
    111 CB        -5.4830  -20.2434  -58.8180 C.3       20 UNK        -0.1800 
    112 C         -3.6124  -21.3729  -57.5171 C.2       20 UNK         0.5000 
    113 O         -2.6688  -21.2822  -58.3038 O.2       20 UNK        -0.5000 
    114 N         -3.7454  -22.3869  -56.6518 N.am      21 UNK        -0.5000 
    115 CA        -2.8944  -23.5784  -56.5790 C.3       21 UNK         0.1400 
    116 CB        -3.4913  -24.5503  -55.5497 C.3       21 UNK        -0.1800 
    117 C         -1.4096  -23.2967  -56.2723 C.2       21 UNK         0.5000 
    118 O         -0.5537  -24.0841  -56.6780 O.2       21 UNK        -0.5000 
    119 N         -1.1288  -22.1795  -55.5903 N.am      22 UNK        -0.5000 
    120 CA         0.2278  -21.6577  -55.3600 C.3       22 UNK         0.1400 
    121 C          0.8163  -20.8290  -56.5426 C.2       22 UNK         0.5000 
    122 N          0.0923  -20.5913  -57.6306 N.am      22 UNK        -0.7600 
    123 O          1.9691  -20.4099  -56.4834 O.2       22 UNK        -0.5000 
    124 C124        0.3434  -20.9190  -54.0019 C.3       23 UNK        -0.0398 
    125 S125       -0.8379  -19.5424  -53.7768 S.3       23 UNK        -0.2404 
    126 C126       -0.8956  -19.4316  -51.9604 C.3       23 UNK        -0.0205 
    127 H127       -4.8900  -14.9833  -50.2724 H         1 UNK         0.0600 
    128 H128       -4.8802  -14.7337  -48.5266 H         1 UNK         0.0600 
    129 H129       -4.6489  -16.3551  -49.1844 H         1 UNK         0.0600 
    130 H130       -2.9154  -14.2447  -47.5399 H         1 UNK         0.3000 
    131 H131       -0.6441  -13.6575  -49.0667 H         1 UNK         0.0600 
    132 H132       -0.0742  -15.8675  -47.0203 H         1 UNK         0.0800 
    133 H133       -0.3640  -16.2526  -48.6818 H         1 UNK         0.0800 
    134 H134        0.9763  -14.9365  -50.7349 H         1 UNK         0.0800 
    135 H135        2.7092  -15.1295  -50.6449 H         1 UNK         0.0800 
    136 H136       -0.3233  -16.8375  -51.3586 H         1 UNK         0.1150 
    137 H137        1.3429  -20.7783  -51.2162 H         1 UNK         0.1150 
    138 H138        3.5895  -17.4462  -49.7206 H         1 UNK         0.1150 
    139 H139        4.2851  -20.4049  -50.9808 H         1 UNK         0.0800 
    140 H140        4.4658  -19.6351  -49.4221 H         1 UNK         0.0800 
    141 H141        2.2428  -19.9764  -47.7903 H         1 UNK         0.0800 
    142 H142        3.2243  -21.1399  -46.9470 H         1 UNK         0.0800 
    143 H143        1.3840  -22.8935  -47.5237 H         1 UNK         0.0600 
    144 H144        1.5197  -21.1104  -45.3364 H         1 UNK         0.3000 
    145 H145       -0.9924  -22.7804  -43.3698 H         1 UNK         0.0600 
    146 H146        0.9348  -22.9010  -41.8357 H         1 UNK         0.0600 
    147 H147        1.1584  -24.0435  -43.1513 H         1 UNK         0.0600 
    148 H148        2.0520  -22.5272  -43.1465 H         1 UNK         0.0600 
    149 H149        0.6021  -20.5409  -42.7340 H         1 UNK         0.3000 
    150 H150       -1.6577  -18.0048  -43.9500 H         1 UNK         0.0600 
    151 H151       -2.3435  -18.7004  -41.6667 H         1 UNK         0.0600 
    152 H152       -1.2465  -17.3313  -41.5793 H         1 UNK         0.0600 
    153 H153       -0.6652  -18.9480  -41.2052 H         1 UNK         0.0600 
    154 H154        0.9166  -17.7512  -42.7944 H         1 UNK         0.3000 
    155 H155        2.8533  -17.8681  -45.8020 H         1 UNK         0.0600 
    156 H156        2.1243  -15.6619  -43.7959 H         1 UNK         0.0600 
    157 H157        3.5693  -15.7031  -44.8066 H         1 UNK         0.0600 
    158 H158        1.9833  -15.5516  -45.5399 H         1 UNK         0.0600 
    159 H159        3.4975  -17.5964  -43.0109 H         1 UNK         0.3000 
    160 H160        4.1074  -21.0670  -42.3876 H         1 UNK         0.0600 
    161 H161        5.9909  -18.6646  -42.6920 H         1 UNK         0.0600 
    162 H162        6.1481  -20.1975  -43.5417 H         1 UNK         0.0600 
    163 H163        6.3292  -20.1454  -41.7956 H         1 UNK         0.0600 
    164 H164        4.4253  -18.7406  -40.7658 H         1 UNK         0.3000 
    165 H165        1.1340  -18.5752  -39.4552 H         1 UNK         0.0600 
    166 H166        2.3124  -18.9093  -37.3020 H         1 UNK         0.0600 
    167 H167        2.1734  -20.4394  -38.1524 H         1 UNK         0.0600 
    168 H168        3.7119  -19.5856  -38.1364 H         1 UNK         0.0600 
    169 H169        3.4609  -17.1644  -38.7219 H         1 UNK         0.3000 
    170 H170        3.8003  -15.0621  -39.2570 H         1 UNK         0.0600 
    171 H171        3.9560  -14.9331  -42.3210 H         1 UNK         0.0600 
    172 H172        4.9328  -13.9997  -41.1925 H         1 UNK         0.0600 
    173 H173        5.1141  -15.7449  -41.2740 H         1 UNK         0.0600 
    174 H174        2.0774  -13.7452  -41.2794 H         1 UNK         0.3000 
    175 H175       -0.3068  -12.6772  -38.9342 H         1 UNK         0.0600 
    176 H176        0.1322  -10.4365  -39.9137 H         1 UNK         0.0600 
    177 H177        1.7175  -10.9632  -40.4778 H         1 UNK         0.0600 
    178 H178        1.3865  -10.8446  -38.7529 H         1 UNK         0.0600 
    179 H179       -0.0161  -12.2218  -41.7428 H         1 UNK         0.3000 
    180 H180       -1.2597  -15.2981  -42.9032 H         1 UNK         0.0600 
    181 H181       -2.8560  -12.6902  -42.7686 H         1 UNK         0.0600 
    182 H182       -3.4065  -14.2674  -42.2209 H         1 UNK         0.0600 
    183 H183       -3.1016  -13.9937  -43.9297 H         1 UNK         0.0600 
    184 H184       -0.0605  -14.3255  -44.4381 H         1 UNK         0.3000 
    185 H185        0.3936  -11.0864  -45.6784 H         1 UNK         0.0600 
    186 H186        2.4261  -11.3981  -44.2621 H         1 UNK         0.0600 
    187 H187        2.5047  -13.0945  -44.7176 H         1 UNK         0.0600 
    188 H188        2.7463  -11.8388  -45.9312 H         1 UNK         0.0600 
    189 H189        1.1515  -13.5318  -46.8156 H         1 UNK         0.3000 
    190 H190       -0.4561  -19.8909  -46.8501 H         1 UNK         0.3000 
    191 H191       -1.9632  -19.8882  -49.2824 H         1 UNK         0.0600 
    192 H192       -1.8022  -17.8966  -47.8347 H         1 UNK         0.0600 
    193 H193       -3.4840  -18.3620  -48.0313 H         1 UNK         0.0600 
    194 H194       -2.6397  -18.7289  -46.5303 H         1 UNK         0.0600 
    195 H195       -2.6576  -21.2746  -46.0289 H         1 UNK         0.3000 
    196 H196       -5.1977  -22.3385  -46.6080 H         1 UNK         0.0600 
    197 H197       -4.8154  -23.7106  -44.5580 H         1 UNK         0.0600 
    198 H198       -4.3425  -22.0371  -44.3099 H         1 UNK         0.0600 
    199 H199       -3.1120  -23.2716  -44.5705 H         1 UNK         0.0600 
    200 H200       -1.9649  -23.8490  -46.9612 H         1 UNK         0.3000 
    201 H201       -2.7887  -26.4182  -47.7920 H         1 UNK         0.0600 
    202 H202       -0.4802  -25.8840  -47.0749 H         1 UNK         0.0600 
    203 H203       -0.2542  -24.8323  -48.4716 H         1 UNK         0.0600 
    204 H204       -0.4522  -26.5673  -48.6927 H         1 UNK         0.0600 
    205 H205       -2.7365  -23.4052  -49.5655 H         1 UNK         0.3000 
    206 H206       -3.2515  -24.6939  -52.1867 H         1 UNK         0.0600 
    207 H207       -1.6043  -22.8223  -52.0502 H         1 UNK         0.0600 
    208 H208       -2.9846  -22.3682  -53.0373 H         1 UNK         0.0600 
    209 H209       -2.8566  -21.7737  -51.3876 H         1 UNK         0.0600 
    210 H210       -5.1353  -24.5604  -49.7000 H         1 UNK         0.3000 
    211 H211       -7.2818  -24.4725  -49.2377 H         1 UNK         0.0600 
    212 H212       -7.7790  -24.3754  -52.2584 H         1 UNK         0.0600 
    213 H213       -8.9522  -24.8128  -51.0260 H         1 UNK         0.0600 
    214 H214       -7.5524  -25.8366  -51.3013 H         1 UNK         0.0600 
    215 H215       -5.9781  -22.1859  -48.8731 H         1 UNK         0.3000 
    216 H216       -6.1962  -20.0713  -48.2789 H         1 UNK         0.0600 
    217 H217       -8.3451  -18.9201  -48.1104 H         1 UNK         0.0600 
    218 H218       -8.5318  -20.5669  -47.5293 H         1 UNK         0.0600 
    219 H219       -9.1384  -20.1147  -49.1222 H         1 UNK         0.0600 
    220 H220       -4.9271  -20.6371  -50.4563 H         1 UNK         0.3000 
    221 H221       -3.9772  -19.9029  -52.3272 H         1 UNK         0.0600 
    222 H222       -5.1913  -17.1789  -51.6390 H         1 UNK         0.0600 
    223 H223       -3.7358  -17.8441  -50.9021 H         1 UNK         0.0600 
    224 H224       -3.7632  -17.4780  -52.6193 H         1 UNK         0.0600 
    225 H225       -6.1892  -21.3216  -52.9492 H         1 UNK         0.3000 
    226 H226       -7.8864  -19.9152  -54.8835 H         1 UNK         0.0600 
    227 H227       -8.8156  -21.6653  -53.3746 H         1 UNK         0.0600 
    228 H228       -8.9888  -22.1229  -55.0612 H         1 UNK         0.0600 
    229 H229       -7.7300  -22.8626  -54.0788 H         1 UNK         0.0600 
    230 H230       -5.4926  -19.4254  -55.7413 H         1 UNK         0.3000 
    231 H231       -4.1243  -19.3172  -57.4516 H         1 UNK         0.0600 
    232 H232       -6.0402  -21.1692  -58.9629 H         1 UNK         0.0600 
    233 H233       -4.8230  -20.1247  -59.6782 H         1 UNK         0.0600 
    234 H234       -6.1931  -19.4166  -58.8391 H         1 UNK         0.0600 
    235 H235       -4.5866  -22.4019  -56.0912 H         1 UNK         0.3000 
    236 H236       -2.9295  -24.0607  -57.5579 H         1 UNK         0.0600 
    237 H237       -4.4930  -24.8660  -55.8422 H         1 UNK         0.0600 
    238 H238       -2.8818  -25.4502  -55.4564 H         1 UNK         0.0600 
    239 H239       -3.5620  -24.0956  -54.5629 H         1 UNK         0.0600 
    240 H240       -1.8876  -21.5757  -55.3113 H         1 UNK         0.3000 
    241 H241        0.8958  -22.5175  -55.2814 H         1 UNK         0.0600 
    242 H242       -0.8576  -20.9360  -57.7283 H         1 UNK         0.3800 
    243 H243        0.5014  -20.0609  -58.3830 H         1 UNK         0.3800 
    244 H244        0.1851  -21.6428  -53.2023 H         1 UNK         0.0800 
    245 H245        1.3553  -20.5379  -53.8539 H         1 UNK         0.0800 
    246 H246       -1.7375  -18.8050  -51.6727 H         1 UNK         0.0800 
    247 H247       -1.0849  -20.4141  -51.5326 H         1 UNK         0.0800 
@<TRIPOS>BOND
     1    1    2 1    
     2    1  127 1    
     3    1  128 1    
     4    1  129 1    
     5    2    3 2    
     6    2    4 am   BACKBONE|DICT|INTERRES
     7    4    5 1    
     8    4  130 1    
     9    5    6 1    
    10    5   65 1    
    11    5  131 1    
    12    6    7 1    
    13    6  132 1    
    14    6  133 1    
    15    7    8 1    
    16    8    9 1    
    17    8  134 1    
    18    8  135 1    
    19    9   10 ar   
    20    9   14 ar   
    21   10   11 ar   
    22   10  136 1    
    23   11   12 ar   
    24   11  126 1    
    25   12   13 ar   
    26   12  137 1    
    27   13   14 ar   
    28   13   15 1    
    29   14  138 1    
    30   15   16 1    
    31   15  139 1    
    32   15  140 1    
    33   16   17 1    
    34   17   18 1    
    35   17  141 1    
    36   17  142 1    
    37   18   19 1    
    38   18   67 1    
    39   18  143 1    
    40   19   20 am   BACKBONE|DICT|INTERRES
    41   19  144 1    
    42   20   21 2    
    43   20   22 1    
    44   22   23 1    
    45   22   24 1    
    46   22  145 1    
    47   23  146 1    
    48   23  147 1    
    49   23  148 1    
    50   24   25 am   BACKBONE|DICT|INTERRES
    51   24  149 1    
    52   25   26 2    
    53   25   27 1    
    54   27   28 1    
    55   27   29 1    
    56   27  150 1    
    57   28  151 1    
    58   28  152 1    
    59   28  153 1    
    60   29   30 am   BACKBONE|DICT|INTERRES
    61   29  154 1    
    62   30   31 2    
    63   30   32 1    
    64   32   33 1    
    65   32   34 1    
    66   32  155 1    
    67   33  156 1    
    68   33  157 1    
    69   33  158 1    
    70   34   35 am   BACKBONE|DICT|INTERRES
    71   34  159 1    
    72   35   36 2    
    73   35   37 1    
    74   37   38 1    
    75   37   39 1    
    76   37  160 1    
    77   38  161 1    
    78   38  162 1    
    79   38  163 1    
    80   39   40 am   BACKBONE|DICT|INTERRES
    81   39  164 1    
    82   40   41 2    
    83   40   42 1    
    84   42   43 1    
    85   42   44 1    
    86   42  165 1    
    87   43  166 1    
    88   43  167 1    
    89   43  168 1    
    90   44   45 am   BACKBONE|DICT|INTERRES
    91   44  169 1    
    92   45   46 2    
    93   45   47 1    
    94   47   48 1    
    95   47   49 1    
    96   47  170 1    
    97   48  171 1    
    98   48  172 1    
    99   48  173 1    
   100   49   50 am   BACKBONE|DICT|INTERRES
   101   49  174 1    
   102   50   51 2    
   103   50   52 1    
   104   52   53 1    
   105   52   54 1    
   106   52  175 1    
   107   53  176 1    
   108   53  177 1    
   109   53  178 1    
   110   54   55 am   BACKBONE|DICT|INTERRES
   111   54  179 1    
   112   55   56 2    
   113   55   57 1    
   114   57   58 1    
   115   57   59 1    
   116   57  180 1    
   117   58  181 1    
   118   58  182 1    
   119   58  183 1    
   120   59   60 am   BACKBONE|DICT|INTERRES
   121   59  184 1    
   122   60   61 2    
   123   60   62 1    
   124   62   63 1    
   125   62   64 1    
   126   62  185 1    
   127   63  186 1    
   128   63  187 1    
   129   63  188 1    
   130   64   65 am   BACKBONE|DICT|INTERRES
   131   64  189 1    
   132   65   66 2    
   133   67   68 2    
   134   67   69 am   BACKBONE|DICT|INTERRES
   135   69   70 1    
   136   69  190 1    
   137   70   71 1    
   138   70   72 1    
   139   70  191 1    
   140   71  192 1    
   141   71  193 1    
   142   71  194 1    
   143   72   73 2    
   144   72   74 am   BACKBONE|DICT|INTERRES
   145   74   75 1    
   146   74  195 1    
   147   75   76 1    
   148   75   77 1    
   149   75  196 1    
   150   76  197 1    
   151   76  198 1    
   152   76  199 1    
   153   77   78 2    
   154   77   79 am   BACKBONE|DICT|INTERRES
   155   79   80 1    
   156   79  200 1    
   157   80   81 1    
   158   80   82 1    
   159   80  201 1    
   160   81  202 1    
   161   81  203 1    
   162   81  204 1    
   163   82   83 2    
   164   82   84 am   BACKBONE|DICT|INTERRES
   165   84   85 1    
   166   84  205 1    
   167   85   86 1    
   168   85   87 1    
   169   85  206 1    
   170   86  207 1    
   171   86  208 1    
   172   86  209 1    
   173   87   88 2    
   174   87   89 am   BACKBONE|DICT|INTERRES
   175   89   90 1    
   176   89  210 1    
   177   90   91 1    
   178   90   92 1    
   179   90  211 1    
   180   91  212 1    
   181   91  213 1    
   182   91  214 1    
   183   92   93 2    
   184   92   94 am   BACKBONE|DICT|INTERRES
   185   94   95 1    
   186   94  215 1    
   187   95   96 1    
   188   95   97 1    
   189   95  216 1    
   190   96  217 1    
   191   96  218 1    
   192   96  219 1    
   193   97   98 2    
   194   97   99 am   BACKBONE|DICT|INTERRES
   195   99  100 1    
   196   99  220 1    
   197  100  101 1    
   198  100  102 1    
   199  100  221 1    
   200  101  222 1    
   201  101  223 1    
   202  101  224 1    
   203  102  103 2    
   204  102  104 am   BACKBONE|DICT|INTERRES
   205  104  105 1    
   206  104  225 1    
   207  105  106 1    
   208  105  107 1    
   209  105  226 1    
   210  106  227 1    
   211  106  228 1    
   212  106  229 1    
   213  107  108 2    
   214  107  109 am   BACKBONE|DICT|INTERRES
   215  109  110 1    
   216  109  230 1    
   217  110  111 1    
   218  110  112 1    
   219  110  231 1    
   220  111  232 1    
   221  111  233 1    
   222  111  234 1    
   223  112  113 2    
   224  112  114 am   BACKBONE|DICT|INTERRES
   225  114  115 1    
   226  114  235 1    
   227  115  116 1    
   228  115  117 1    
   229  115  236 1    
   230  116  237 1    
   231  116  238 1    
   232  116  239 1    
   233  117  118 2    
   234  117  119 am   BACKBONE|DICT|INTERRES
   235  119  120 1    
   236  119  240 1    
   237  120  121 1    
   238  120  124 1    
   239  120  241 1    
   240  121  122 am   BACKBONE|DICT|INTERRES
   241  121  123 2    
   242  122  242 1    
   243  122  243 1    
   244  124  125 1    
   245  124  244 1    
   246  124  245 1    
   247  125  126 1    
   248  126  246 1    
   249  126  247 1    
@<TRIPOS>SUBSTRUCTURE
     1 UNK         1 GROUP             0       ****    0 ROOT    
