@<TRIPOS>MOLECULE
3R540
247   249    1
SMALL
USER_CHARGES


@<TRIPOS>ATOM
      1 CA         -4.8548   -7.1293  -46.9252 C.3       0 UNK        -0.1800 
      2 C          -3.9962   -8.3718  -46.7359 C.2       0 UNK         0.5000 
      3 O          -3.3654   -8.5284  -45.6895 O.2       0 UNK        -0.5000 
      4 N          -3.9657   -9.2549  -47.7418 N.am      1 UNK        -0.5000 
      5 CA         -3.2389  -10.5256  -47.7239 C.3       1 UNK         0.1400 
      6 C6         -2.9085  -11.0090  -49.1602 C.3       23 UNK        -0.0398 
      7 S7         -1.6789  -12.3625  -49.1961 S.3       23 UNK        -0.2404 
      8 C8         -2.6790  -13.7123  -49.8964 C.3       23 UNK        -0.0205 
      9 C9         -1.8970  -15.0138  -49.9679 C.ar      23 UNK        -0.0193 
     10 C10        -1.0950  -15.2936  -51.0767 C.ar      23 UNK        -0.1150 
     11 C11        -0.4054  -16.5064  -51.1673 C.ar      23 UNK        -0.0193 
     12 C12        -0.5067  -17.4348  -50.1271 C.ar      23 UNK        -0.1150 
     13 C13        -1.2941  -17.1599  -49.0055 C.ar      23 UNK        -0.0193 
     14 C14        -1.9980  -15.9539  -48.9396 C.ar      23 UNK        -0.1150 
     15 C15        -1.3846  -18.1596  -47.8641 C.3       23 UNK        -0.0205 
     16 S16        -2.9475  -19.0810  -47.9086 S.3       23 UNK        -0.2404 
     17 C17        -2.8563  -20.0070  -46.3400 C.3       23 UNK        -0.0398 
     18 CA         -2.6287  -21.5251  -46.5697 C.3       11 UNK         0.1400 
     19 N          -1.2242  -21.9224  -46.4269 N.am      11 UNK        -0.5000 
     20 C          -0.7350  -23.1333  -46.7321 C.2       10 UNK         0.5000 
     21 O          -1.4073  -24.0333  -47.2272 O.2       10 UNK        -0.5000 
     22 CA          0.7281  -23.4170  -46.3570 C.3       10 UNK         0.1400 
     23 CB          1.7023  -22.8272  -47.3865 C.3       10 UNK        -0.1800 
     24 N           1.0436  -22.9161  -45.0215 N.am      10 UNK        -0.5000 
     25 C           0.5638  -23.4457  -43.8877 C.2       9 UNK         0.5000 
     26 O          -0.1586  -24.4422  -43.8526 O.2       9 UNK        -0.5000 
     27 CA          0.9252  -22.7195  -42.5784 C.3       9 UNK         0.1400 
     28 CB          2.2506  -23.2521  -42.0146 C.3       9 UNK        -0.1800 
     29 N           1.0201  -21.2678  -42.7456 N.am      9 UNK        -0.5000 
     30 C          -0.0246  -20.4661  -42.9950 C.2       8 UNK         0.5000 
     31 O          -1.1867  -20.8630  -43.0868 O.2       8 UNK        -0.5000 
     32 CA          0.2992  -18.9817  -43.2530 C.3       8 UNK         0.1400 
     33 CB          0.5279  -18.2336  -41.9313 C.3       8 UNK        -0.1800 
     34 N           1.4553  -18.7816  -44.1352 N.am      8 UNK        -0.5000 
     35 C           1.5490  -19.2587  -45.3847 C.2       7 UNK         0.5000 
     36 O           0.6664  -19.9367  -45.9055 O.2       7 UNK        -0.5000 
     37 CA          2.8114  -18.9401  -46.2031 C.3       7 UNK         0.1400 
     38 CB          2.4291  -18.2426  -47.5167 C.3       7 UNK        -0.1800 
     39 N           3.7651  -18.1016  -45.4748 N.am      7 UNK        -0.5000 
     40 C           4.8310  -18.5656  -44.8074 C.2       6 UNK         0.5000 
     41 O           5.0664  -19.7674  -44.6726 O.2       6 UNK        -0.5000 
     42 CA          5.7799  -17.5302  -44.1591 C.3       6 UNK         0.1400 
     43 CB          7.2577  -17.9713  -44.2147 C.3       6 UNK        -0.1800 
     44 N           5.6244  -16.1597  -44.6647 N.am      6 UNK        -0.5000 
     45 C           5.8557  -15.7074  -45.9065 C.2       5 UNK         0.5000 
     46 O           6.2735  -16.3987  -46.8371 O.2       5 UNK        -0.5000 
     47 CA          5.5120  -14.2230  -46.1491 C.3       5 UNK         0.1400 
     48 CB          6.6727  -13.4895  -46.8412 C.3       5 UNK        -0.1800 
     49 N           4.2897  -14.0318  -46.9370 N.am      5 UNK        -0.5000 
     50 C           3.0891  -14.5688  -46.6799 C.2       4 UNK         0.5000 
     51 O           2.8726  -15.3503  -45.7480 O.2       4 UNK        -0.5000 
     52 CA          1.9385  -14.1563  -47.6213 C.3       4 UNK         0.1400 
     53 CB          2.1094  -14.7501  -49.0286 C.3       4 UNK        -0.1800 
     54 N           0.6506  -14.5834  -47.0754 N.am      4 UNK        -0.5000 
     55 C           0.0074  -13.9368  -46.0980 C.2       3 UNK         0.5000 
     56 O           0.3259  -12.8180  -45.6837 O.2       3 UNK        -0.5000 
     57 CA         -1.1734  -14.6687  -45.4494 C.3       3 UNK         0.1400 
     58 CB         -0.7138  -15.4811  -44.2268 C.3       3 UNK        -0.1800 
     59 N          -2.1503  -13.6625  -45.0667 N.am      3 UNK        -0.5000 
     60 C          -3.4487  -13.8566  -44.8139 C.2       2 UNK         0.5000 
     61 O          -3.9840  -14.9634  -44.7526 O.2       2 UNK        -0.5000 
     62 CA         -4.2954  -12.5784  -44.6521 C.3       2 UNK         0.1400 
     63 CB         -4.2315  -12.0577  -43.2083 C.3       2 UNK        -0.1800 
     64 N          -3.8461  -11.5276  -45.5698 N.am      2 UNK        -0.5000 
     65 C          -4.0230  -11.5668  -46.8969 C.2       1 UNK         0.5000 
     66 O          -4.7716  -12.3685  -47.4582 O.2       1 UNK        -0.5000 
     67 C          -3.5565  -22.3681  -45.6750 C.2       11 UNK         0.5000 
     68 O          -4.6315  -22.7513  -46.1335 O.2       11 UNK        -0.5000 
     69 N          -3.1287  -22.6763  -44.4425 N.am      12 UNK        -0.5000 
     70 CA         -3.8585  -23.5557  -43.5263 C.3       12 UNK         0.1400 
     71 CB         -3.1846  -23.5483  -42.1461 C.3       12 UNK        -0.1800 
     72 C          -4.0012  -24.9921  -44.0681 C.2       12 UNK         0.5000 
     73 O          -5.0835  -25.5708  -43.9697 O.2       12 UNK        -0.5000 
     74 N          -2.9244  -25.5227  -44.6644 N.am      13 UNK        -0.5000 
     75 CA         -2.9007  -26.8334  -45.3156 C.3       13 UNK         0.1400 
     76 CB         -1.4427  -27.2517  -45.5604 C.3       13 UNK        -0.1800 
     77 C          -3.7072  -26.8649  -46.6292 C.2       13 UNK         0.5000 
     78 O          -4.4320  -27.8294  -46.8758 O.2       13 UNK        -0.5000 
     79 N          -3.5722  -25.8099  -47.4433 N.am      14 UNK        -0.5000 
     80 CA         -4.2118  -25.6602  -48.7529 C.3       14 UNK         0.1400 
     81 CB         -3.4207  -24.6242  -49.5688 C.3       14 UNK        -0.1800 
     82 C          -5.6989  -25.2586  -48.6891 C.2       14 UNK         0.5000 
     83 O          -6.3522  -25.2417  -49.7319 O.2       14 UNK        -0.5000 
     84 N          -6.1985  -24.9113  -47.4942 N.am      15 UNK        -0.5000 
     85 CA         -7.5391  -24.3852  -47.2116 C.3       15 UNK         0.1400 
     86 CB         -8.6295  -25.4331  -47.5187 C.3       15 UNK        -0.1800 
     87 C          -7.7796  -23.0240  -47.8996 C.2       15 UNK         0.5000 
     88 O          -8.8057  -22.8184  -48.5499 O.2       15 UNK        -0.5000 
     89 N          -6.7963  -22.1277  -47.7389 N.am      16 UNK        -0.5000 
     90 CA         -6.7224  -20.7493  -48.2345 C.3       16 UNK         0.1400 
     91 CB         -7.8630  -19.8889  -47.6530 C.3       16 UNK        -0.1800 
     92 C          -6.6018  -20.6186  -49.7678 C.2       16 UNK         0.5000 
     93 O          -6.7961  -19.5230  -50.2979 O.2       16 UNK        -0.5000 
     94 N          -6.2586  -21.7123  -50.4623 N.am      17 UNK        -0.5000 
     95 CA         -5.9802  -21.7249  -51.8961 C.3       17 UNK         0.1400 
     96 CB         -6.1538  -23.1513  -52.4429 C.3       17 UNK        -0.1800 
     97 C          -4.5701  -21.1700  -52.1628 C.2       17 UNK         0.5000 
     98 O          -3.5976  -21.9285  -52.1611 O.2       17 UNK        -0.5000 
     99 N          -4.4848  -19.8496  -52.3771 N.am      18 UNK        -0.5000 
    100 CA        -3.2496  -19.0945  -52.6162 C.3       18 UNK         0.1400 
    101 CB        -3.5925  -17.6173  -52.8550 C.3       18 UNK        -0.1800 
    102 C         -2.3935  -19.6457  -53.7719 C.2       18 UNK         0.5000 
    103 O         -1.1680  -19.6774  -53.6620 O.2       18 UNK        -0.5000 
    104 N         -3.0539  -20.1353  -54.8301 N.am      19 UNK        -0.5000 
    105 CA        -2.4309  -20.7732  -55.9928 C.3       19 UNK         0.1400 
    106 CB        -3.5218  -21.1025  -57.0230 C.3       19 UNK        -0.1800 
    107 C         -1.6091  -22.0356  -55.6567 C.2       19 UNK         0.5000 
    108 O         -0.6570  -22.3390  -56.3764 O.2       19 UNK        -0.5000 
    109 N         -1.9767  -22.7328  -54.5735 N.am      20 UNK        -0.5000 
    110 CA        -1.2360  -23.8702  -54.0339 C.3       20 UNK         0.1400 
    111 CB        -2.2327  -24.9238  -53.5257 C.3       20 UNK        -0.1800 
    112 C         -0.2857  -23.4345  -52.9050 C.2       20 UNK         0.5000 
    113 O          0.8248  -23.9595  -52.8171 O.2       20 UNK        -0.5000 
    114 N         -0.7387  -22.5022  -52.0544 N.am      21 UNK        -0.5000 
    115 CA        -0.0264  -22.0614  -50.8556 C.3       21 UNK         0.1400 
    116 CB        -0.9885  -21.2884  -49.9495 C.3       21 UNK        -0.1800 
    117 C          1.2408  -21.2308  -51.1309 C.2       21 UNK         0.5000 
    118 O          2.2203  -21.3846  -50.4012 O.2       21 UNK        -0.5000 
    119 N          1.2180  -20.3745  -52.1604 N.am      22 UNK        -0.5000 
    120 CA         2.3859  -19.5800  -52.5852 C.3       22 UNK         0.1400 
    121 C          2.4396  -19.2728  -54.1097 C.2       22 UNK         0.5000 
    122 N          1.3545  -19.4046  -54.8634 N.am      22 UNK        -0.7600 
    123 O          3.5021  -18.9419  -54.6291 O.2       22 UNK        -0.5000 
    124 C124        2.6796  -18.3644  -51.6409 C.3       23 UNK        -0.0398 
    125 S125        2.1925  -16.6810  -52.1816 S.3       23 UNK        -0.2404 
    126 C126        0.3963  -16.8291  -52.4177 C.3       23 UNK        -0.0205 
    127 H127       -4.2393   -6.2330  -46.8488 H         1 UNK         0.0600 
    128 H128       -5.6230   -7.0835  -46.1533 H         1 UNK         0.0600 
    129 H129       -5.3483   -7.1212  -47.8973 H         1 UNK         0.0600 
    130 H130       -4.5275   -9.0830  -48.5638 H         1 UNK         0.3000 
    131 H131       -2.2835  -10.3577  -47.2207 H         1 UNK         0.0600 
    132 H132       -2.4800  -10.1835  -49.7303 H         1 UNK         0.0800 
    133 H133       -3.8132  -11.2980  -49.6979 H         1 UNK         0.0800 
    134 H134       -3.0189  -13.4306  -50.8942 H         1 UNK         0.0800 
    135 H135       -3.5775  -13.8543  -49.2949 H         1 UNK         0.0800 
    136 H136       -1.0242  -14.5724  -51.8786 H         1 UNK         0.1150 
    137 H137        0.0199  -18.3746  -50.1957 H         1 UNK         0.1150 
    138 H138       -2.6392  -15.7513  -48.0943 H         1 UNK         0.1150 
    139 H139       -0.5586  -18.8676  -47.9165 H         1 UNK         0.0800 
    140 H140       -1.2892  -17.6404  -46.9101 H         1 UNK         0.0800 
    141 H141       -3.8005  -19.8096  -45.8281 H         1 UNK         0.0800 
    142 H142       -2.0883  -19.5881  -45.6882 H         1 UNK         0.0800 
    143 H143       -2.9216  -21.7700  -47.5920 H         1 UNK         0.0600 
    144 H144       -0.5815  -21.2165  -46.0724 H         1 UNK         0.3000 
    145 H145        0.8674  -24.5003  -46.3503 H         1 UNK         0.0600 
    146 H146        2.7386  -22.9800  -47.0856 H         1 UNK         0.0600 
    147 H147        1.5752  -23.3122  -48.3540 H         1 UNK         0.0600 
    148 H148        1.5508  -21.7587  -47.5370 H         1 UNK         0.0600 
    149 H149        1.5825  -22.0652  -44.9695 H         1 UNK         0.3000 
    150 H150        0.1364  -22.9293  -41.8530 H         1 UNK         0.0600 
    151 H151        2.2036  -24.3312  -41.8616 H         1 UNK         0.0600 
    152 H152        2.4795  -22.7982  -41.0502 H         1 UNK         0.0600 
    153 H153        3.0854  -23.0517  -42.6874 H         1 UNK         0.0600 
    154 H154        1.9427  -20.8605  -42.7013 H         1 UNK         0.3000 
    155 H155       -0.5702  -18.5426  -43.7462 H         1 UNK         0.0600 
    156 H156        1.4059  -18.6065  -41.4025 H         1 UNK         0.0600 
    157 H157       -0.3292  -18.3464  -41.2661 H         1 UNK         0.0600 
    158 H158        0.6676  -17.1659  -42.1000 H         1 UNK         0.0600 
    159 H159        2.2162  -18.2226  -43.7794 H         1 UNK         0.3000 
    160 H160        3.2779  -19.8929  -46.4613 H         1 UNK         0.0600 
    161 H161        1.7921  -17.3782  -47.3336 H         1 UNK         0.0600 
    162 H162        1.8806  -18.9212  -48.1711 H         1 UNK         0.0600 
    163 H163        3.3109  -17.9081  -48.0637 H         1 UNK         0.0600 
    164 H164        3.6057  -17.0977  -45.5203 H         1 UNK         0.3000 
    165 H165        5.4937  -17.4911  -43.1073 H         1 UNK         0.0600 
    166 H166        7.6008  -18.1125  -45.2399 H         1 UNK         0.0600 
    167 H167        7.9075  -17.2352  -43.7413 H         1 UNK         0.0600 
    168 H168        7.4057  -18.9157  -43.6897 H         1 UNK         0.0600 
    169 H169        5.2346  -15.5070  -43.9986 H         1 UNK         0.3000 
    170 H170        5.3499  -13.7435  -45.1816 H         1 UNK         0.0600 
    171 H171        6.8468  -13.8700  -47.8486 H         1 UNK         0.0600 
    172 H172        6.4764  -12.4197  -46.9158 H         1 UNK         0.0600 
    173 H173        7.6004  -13.6100  -46.2802 H         1 UNK         0.0600 
    174 H174        4.3791  -13.4232  -47.7374 H         1 UNK         0.3000 
    175 H175        1.9475  -13.0677  -47.7086 H         1 UNK         0.0600 
    176 H176        2.0692  -15.8380  -49.0282 H         1 UNK         0.0600 
    177 H177        1.3254  -14.3931  -49.6964 H         1 UNK         0.0600 
    178 H178        3.0620  -14.4594  -49.4721 H         1 UNK         0.0600 
    179 H179        0.3297  -15.4948  -47.3623 H         1 UNK         0.3000 
    180 H180       -1.6235  -15.3409  -46.1773 H         1 UNK         0.0600 
    181 H181        0.0666  -16.1895  -44.5065 H         1 UNK         0.0600 
    182 H182       -0.3062  -14.8365  -43.4473 H         1 UNK         0.0600 
    183 H183       -1.5352  -16.0529  -43.7954 H         1 UNK         0.0600 
    184 H184       -1.7904  -12.7173  -45.1056 H         1 UNK         0.3000 
    185 H185       -5.3337  -12.8268  -44.8824 H         1 UNK         0.0600 
    186 H186       -4.8663  -11.1811  -43.0776 H         1 UNK         0.0600 
    187 H187       -4.5768  -12.8169  -42.5053 H         1 UNK         0.0600 
    188 H188       -3.2157  -11.7823  -42.9219 H         1 UNK         0.0600 
    189 H189       -3.2992  -10.7713  -45.1778 H         1 UNK         0.3000 
    190 H190       -2.2635  -22.2703  -44.1020 H         1 UNK         0.3000 
    191 H191       -4.8642  -23.1466  -43.4094 H         1 UNK         0.0600 
    192 H192       -3.7498  -24.1514  -41.4346 H         1 UNK         0.0600 
    193 H193       -3.1253  -22.5378  -41.7414 H         1 UNK         0.0600 
    194 H194       -2.1739  -23.9526  -42.1859 H         1 UNK         0.0600 
    195 H195       -2.0596  -24.9938  -44.6708 H         1 UNK         0.3000 
    196 H196       -3.3484  -27.5592  -44.6335 H         1 UNK         0.0600 
    197 H197       -0.9271  -26.5533  -46.2203 H         1 UNK         0.0600 
    198 H198       -0.8847  -27.2988  -44.6250 H         1 UNK         0.0600 
    199 H199       -1.3913  -28.2389  -46.0212 H         1 UNK         0.0600 
    200 H200       -2.8980  -25.0883  -47.1951 H         1 UNK         0.3000 
    201 H201       -4.1559  -26.6174  -49.2752 H         1 UNK         0.0600 
    202 H202       -3.8093  -24.5412  -50.5818 H         1 UNK         0.0600 
    203 H203       -3.4743  -23.6338  -49.1165 H         1 UNK         0.0600 
    204 H204       -2.3694  -24.9000  -49.6531 H         1 UNK         0.0600 
    205 H205       -5.5552  -24.9035  -46.7136 H         1 UNK         0.3000 
    206 H206       -7.5667  -24.1919  -46.1381 H         1 UNK         0.0600 
    207 H207       -8.4261  -26.3739  -47.0073 H         1 UNK         0.0600 
    208 H208       -9.6070  -25.0855  -47.1825 H         1 UNK         0.0600 
    209 H209       -8.7088  -25.6414  -48.5859 H         1 UNK         0.0600 
    210 H210       -5.9960  -22.4200  -47.1771 H         1 UNK         0.3000 
    211 H211       -5.7879  -20.3518  -47.8372 H         1 UNK         0.0600 
    212 H212       -7.7111  -18.8328  -47.8785 H         1 UNK         0.0600 
    213 H213       -7.9134  -19.9819  -46.5681 H         1 UNK         0.0600 
    214 H214       -8.8334  -20.1722  -48.0611 H         1 UNK         0.0600 
    215 H215       -6.1237  -22.5810  -49.9655 H         1 UNK         0.3000 
    216 H216       -6.7061  -21.0900  -52.4087 H         1 UNK         0.0600 
    217 H217       -5.4705  -23.8569  -51.9732 H         1 UNK         0.0600 
    218 H218       -5.9660  -23.1820  -53.5168 H         1 UNK         0.0600 
    219 H219       -7.1684  -23.5144  -52.2782 H         1 UNK         0.0600 
    220 H220       -5.3313  -19.3030  -52.2943 H         1 UNK         0.3000 
    221 H221       -2.6512  -19.1494  -51.7075 H         1 UNK         0.0600 
    222 H222       -4.0670  -17.1776  -51.9773 H         1 UNK         0.0600 
    223 H223       -4.2659  -17.4906  -53.7033 H         1 UNK         0.0600 
    224 H224       -2.6938  -17.0342  -53.0597 H         1 UNK         0.0600 
    225 H225       -4.0617  -20.0822  -54.8290 H         1 UNK         0.3000 
    226 H226       -1.7459  -20.0486  -56.4380 H         1 UNK         0.0600 
    227 H227       -4.2557  -21.8023  -56.6211 H         1 UNK         0.0600 
    228 H228       -4.0512  -20.2036  -57.3394 H         1 UNK         0.0600 
    229 H229       -3.0914  -21.5557  -57.9171 H         1 UNK         0.0600 
    230 H230       -2.7465  -22.3925  -54.0099 H         1 UNK         0.3000 
    231 H231       -0.6331  -24.3341  -54.8175 H         1 UNK         0.0600 
    232 H232       -2.8925  -24.5183  -52.7592 H         1 UNK         0.0600 
    233 H233       -1.7126  -25.7797  -53.0938 H         1 UNK         0.0600 
    234 H234       -2.8566  -25.2972  -54.3377 H         1 UNK         0.0600 
    235 H235       -1.6884  -22.1612  -52.1674 H         1 UNK         0.3000 
    236 H236        0.2820  -22.9589  -50.3163 H         1 UNK         0.0600 
    237 H237       -0.5016  -21.0106  -49.0151 H         1 UNK         0.0600 
    238 H238       -1.3356  -20.3721  -50.4205 H         1 UNK         0.0600 
    239 H239       -1.8626  -21.8883  -49.7007 H         1 UNK         0.0600 
    240 H240        0.3740  -20.2866  -52.7172 H         1 UNK         0.3000 
    241 H241        3.2361  -20.2553  -52.4647 H         1 UNK         0.0600 
    242 H242        1.4281  -19.2206  -55.8507 H         1 UNK         0.3800 
    243 H243        0.4425  -19.6019  -54.4616 H         1 UNK         0.3800 
    244 H244        3.7584  -18.3143  -51.4882 H         1 UNK         0.0800 
    245 H245        2.2761  -18.5366  -50.6439 H         1 UNK         0.0800 
    246 H246        0.1025  -16.1670  -53.2334 H         1 UNK         0.0800 
    247 H247        0.1513  -17.8312  -52.7501 H         1 UNK         0.0800 
@<TRIPOS>BOND
     1    1    2 1    
     2    1  127 1    
     3    1  128 1    
     4    1  129 1    
     5    2    3 2    
     6    2    4 am   BACKBONE|DICT|INTERRES
     7    4    5 1    
     8    4  130 1    
     9    5    6 1    
    10    5   65 1    
    11    5  131 1    
    12    6    7 1    
    13    6  132 1    
    14    6  133 1    
    15    7    8 1    
    16    8    9 1    
    17    8  134 1    
    18    8  135 1    
    19    9   10 ar   
    20    9   14 ar   
    21   10   11 ar   
    22   10  136 1    
    23   11   12 ar   
    24   11  126 1    
    25   12   13 ar   
    26   12  137 1    
    27   13   14 ar   
    28   13   15 1    
    29   14  138 1    
    30   15   16 1    
    31   15  139 1    
    32   15  140 1    
    33   16   17 1    
    34   17   18 1    
    35   17  141 1    
    36   17  142 1    
    37   18   19 1    
    38   18   67 1    
    39   18  143 1    
    40   19   20 am   BACKBONE|DICT|INTERRES
    41   19  144 1    
    42   20   21 2    
    43   20   22 1    
    44   22   23 1    
    45   22   24 1    
    46   22  145 1    
    47   23  146 1    
    48   23  147 1    
    49   23  148 1    
    50   24   25 am   BACKBONE|DICT|INTERRES
    51   24  149 1    
    52   25   26 2    
    53   25   27 1    
    54   27   28 1    
    55   27   29 1    
    56   27  150 1    
    57   28  151 1    
    58   28  152 1    
    59   28  153 1    
    60   29   30 am   BACKBONE|DICT|INTERRES
    61   29  154 1    
    62   30   31 2    
    63   30   32 1    
    64   32   33 1    
    65   32   34 1    
    66   32  155 1    
    67   33  156 1    
    68   33  157 1    
    69   33  158 1    
    70   34   35 am   BACKBONE|DICT|INTERRES
    71   34  159 1    
    72   35   36 2    
    73   35   37 1    
    74   37   38 1    
    75   37   39 1    
    76   37  160 1    
    77   38  161 1    
    78   38  162 1    
    79   38  163 1    
    80   39   40 am   BACKBONE|DICT|INTERRES
    81   39  164 1    
    82   40   41 2    
    83   40   42 1    
    84   42   43 1    
    85   42   44 1    
    86   42  165 1    
    87   43  166 1    
    88   43  167 1    
    89   43  168 1    
    90   44   45 am   BACKBONE|DICT|INTERRES
    91   44  169 1    
    92   45   46 2    
    93   45   47 1    
    94   47   48 1    
    95   47   49 1    
    96   47  170 1    
    97   48  171 1    
    98   48  172 1    
    99   48  173 1    
   100   49   50 am   BACKBONE|DICT|INTERRES
   101   49  174 1    
   102   50   51 2    
   103   50   52 1    
   104   52   53 1    
   105   52   54 1    
   106   52  175 1    
   107   53  176 1    
   108   53  177 1    
   109   53  178 1    
   110   54   55 am   BACKBONE|DICT|INTERRES
   111   54  179 1    
   112   55   56 2    
   113   55   57 1    
   114   57   58 1    
   115   57   59 1    
   116   57  180 1    
   117   58  181 1    
   118   58  182 1    
   119   58  183 1    
   120   59   60 am   BACKBONE|DICT|INTERRES
   121   59  184 1    
   122   60   61 2    
   123   60   62 1    
   124   62   63 1    
   125   62   64 1    
   126   62  185 1    
   127   63  186 1    
   128   63  187 1    
   129   63  188 1    
   130   64   65 am   BACKBONE|DICT|INTERRES
   131   64  189 1    
   132   65   66 2    
   133   67   68 2    
   134   67   69 am   BACKBONE|DICT|INTERRES
   135   69   70 1    
   136   69  190 1    
   137   70   71 1    
   138   70   72 1    
   139   70  191 1    
   140   71  192 1    
   141   71  193 1    
   142   71  194 1    
   143   72   73 2    
   144   72   74 am   BACKBONE|DICT|INTERRES
   145   74   75 1    
   146   74  195 1    
   147   75   76 1    
   148   75   77 1    
   149   75  196 1    
   150   76  197 1    
   151   76  198 1    
   152   76  199 1    
   153   77   78 2    
   154   77   79 am   BACKBONE|DICT|INTERRES
   155   79   80 1    
   156   79  200 1    
   157   80   81 1    
   158   80   82 1    
   159   80  201 1    
   160   81  202 1    
   161   81  203 1    
   162   81  204 1    
   163   82   83 2    
   164   82   84 am   BACKBONE|DICT|INTERRES
   165   84   85 1    
   166   84  205 1    
   167   85   86 1    
   168   85   87 1    
   169   85  206 1    
   170   86  207 1    
   171   86  208 1    
   172   86  209 1    
   173   87   88 2    
   174   87   89 am   BACKBONE|DICT|INTERRES
   175   89   90 1    
   176   89  210 1    
   177   90   91 1    
   178   90   92 1    
   179   90  211 1    
   180   91  212 1    
   181   91  213 1    
   182   91  214 1    
   183   92   93 2    
   184   92   94 am   BACKBONE|DICT|INTERRES
   185   94   95 1    
   186   94  215 1    
   187   95   96 1    
   188   95   97 1    
   189   95  216 1    
   190   96  217 1    
   191   96  218 1    
   192   96  219 1    
   193   97   98 2    
   194   97   99 am   BACKBONE|DICT|INTERRES
   195   99  100 1    
   196   99  220 1    
   197  100  101 1    
   198  100  102 1    
   199  100  221 1    
   200  101  222 1    
   201  101  223 1    
   202  101  224 1    
   203  102  103 2    
   204  102  104 am   BACKBONE|DICT|INTERRES
   205  104  105 1    
   206  104  225 1    
   207  105  106 1    
   208  105  107 1    
   209  105  226 1    
   210  106  227 1    
   211  106  228 1    
   212  106  229 1    
   213  107  108 2    
   214  107  109 am   BACKBONE|DICT|INTERRES
   215  109  110 1    
   216  109  230 1    
   217  110  111 1    
   218  110  112 1    
   219  110  231 1    
   220  111  232 1    
   221  111  233 1    
   222  111  234 1    
   223  112  113 2    
   224  112  114 am   BACKBONE|DICT|INTERRES
   225  114  115 1    
   226  114  235 1    
   227  115  116 1    
   228  115  117 1    
   229  115  236 1    
   230  116  237 1    
   231  116  238 1    
   232  116  239 1    
   233  117  118 2    
   234  117  119 am   BACKBONE|DICT|INTERRES
   235  119  120 1    
   236  119  240 1    
   237  120  121 1    
   238  120  124 1    
   239  120  241 1    
   240  121  122 am   BACKBONE|DICT|INTERRES
   241  121  123 2    
   242  122  242 1    
   243  122  243 1    
   244  124  125 1    
   245  124  244 1    
   246  124  245 1    
   247  125  126 1    
   248  126  246 1    
   249  126  247 1    
@<TRIPOS>SUBSTRUCTURE
     1 UNK         1 GROUP             0       ****    0 ROOT    
