@<TRIPOS>MOLECULE
3R540
247   249    1
SMALL
USER_CHARGES


@<TRIPOS>ATOM
      1 CA          3.8565  -16.5633  -46.1914 C.3       0 UNK        -0.1800 
      2 C           3.9362  -15.1781  -46.8106 C.2       0 UNK         0.5000 
      3 O           4.8747  -14.8982  -47.5559 O.2       0 UNK        -0.5000 
      4 N           2.9666  -14.3085  -46.4945 N.am      1 UNK        -0.5000 
      5 CA          2.7872  -12.9349  -46.9929 C.3       1 UNK         0.1400 
      6 C6          2.7079  -12.8030  -48.5386 C.3       23 UNK        -0.0398 
      7 S7          1.2691  -13.6912  -49.2120 S.3       23 UNK        -0.2404 
      8 C8          2.0319  -15.1126  -50.0773 C.3       23 UNK        -0.0205 
      9 C9          1.1006  -16.3169  -50.2285 C.ar      23 UNK        -0.0193 
     10 C10        -0.2889  -16.1646  -50.2903 C.ar      23 UNK        -0.1150 
     11 C11        -1.1315  -17.2731  -50.3569 C.ar      23 UNK        -0.0193 
     12 C12        -0.5786  -18.5543  -50.4148 C.ar      23 UNK        -0.1150 
     13 C13         0.8095  -18.7282  -50.4076 C.ar      23 UNK        -0.0193 
     14 C14         1.6413  -17.6059  -50.3084 C.ar      23 UNK        -0.1150 
     15 C15         1.3985  -20.1314  -50.5206 C.3       23 UNK        -0.0205 
     16 S16         2.4698  -20.6034  -49.1183 S.3       23 UNK        -0.2404 
     17 C17         1.3870  -20.3259  -47.6774 C.3       23 UNK        -0.0398 
     18 CA          0.6799  -21.5901  -47.1315 C.3       11 UNK         0.1400 
     19 N           0.1066  -21.3400  -45.8071 N.am      11 UNK        -0.5000 
     20 C          -0.4763  -22.2470  -45.0128 C.2       10 UNK         0.5000 
     21 O          -0.5339  -23.4462  -45.2763 O.2       10 UNK        -0.5000 
     22 CA         -1.1548  -21.7186  -43.7334 C.3       10 UNK         0.1400 
     23 CB         -0.1386  -21.5739  -42.5917 C.3       10 UNK        -0.1800 
     24 N          -1.8493  -20.4459  -43.9472 N.am      10 UNK        -0.5000 
     25 C          -2.9106  -20.2933  -44.7535 C.2       9 UNK         0.5000 
     26 O          -3.4504  -21.2260  -45.3493 O.2       9 UNK        -0.5000 
     27 CA         -3.4165  -18.8544  -44.9779 C.3       9 UNK         0.1400 
     28 CB         -4.3150  -18.3923  -43.8214 C.3       9 UNK        -0.1800 
     29 N          -2.3200  -17.9022  -45.1654 N.am      9 UNK        -0.5000 
     30 C          -1.4744  -17.9297  -46.2052 C.2       8 UNK         0.5000 
     31 O          -1.5871  -18.7148  -47.1462 O.2       8 UNK        -0.5000 
     32 CA         -0.2722  -16.9655  -46.1518 C.3       8 UNK         0.1400 
     33 CB         -0.6665  -15.5699  -46.6546 C.3       8 UNK        -0.1800 
     34 N           0.3045  -16.8676  -44.8062 N.am      8 UNK        -0.5000 
     35 C           0.9060  -17.8836  -44.1684 C.2       7 UNK         0.5000 
     36 O           1.1079  -18.9778  -44.6858 O.2       7 UNK        -0.5000 
     37 CA          1.3125  -17.6705  -42.6993 C.3       7 UNK         0.1400 
     38 CB          2.7285  -17.0895  -42.5834 C.3       7 UNK        -0.1800 
     39 N           0.3656  -16.8169  -41.9883 N.am      7 UNK        -0.5000 
     40 C          -0.8799  -17.1880  -41.6603 C.2       6 UNK         0.5000 
     41 O          -1.3334  -18.3137  -41.8666 O.2       6 UNK        -0.5000 
     42 CA         -1.7798  -16.0933  -41.0574 C.3       6 UNK         0.1400 
     43 CB         -1.5662  -15.9910  -39.5401 C.3       6 UNK        -0.1800 
     44 N          -1.5369  -14.7852  -41.6723 N.am      6 UNK        -0.5000 
     45 C          -1.8076  -14.4924  -42.9531 C.2       5 UNK         0.5000 
     46 O          -2.3754  -15.2723  -43.7165 O.2       5 UNK        -0.5000 
     47 CA         -1.3061  -13.1327  -43.4804 C.3       5 UNK         0.1400 
     48 CB         -2.3784  -12.0507  -43.2889 C.3       5 UNK        -0.1800 
     49 N          -0.0638  -12.7095  -42.8266 N.am      5 UNK        -0.5000 
     50 C           1.1310  -13.2796  -43.0295 C.2       4 UNK         0.5000 
     51 O           1.3421  -14.1509  -43.8803 O.2       4 UNK        -0.5000 
     52 CA          2.2477  -12.8629  -42.0603 C.3       4 UNK         0.1400 
     53 CB          1.9941  -13.5056  -40.6778 C.3       4 UNK        -0.1800 
     54 N           3.5385  -13.2872  -42.5980 N.am      4 UNK        -0.5000 
     55 C           4.7417  -13.0318  -42.0660 C.2       3 UNK         0.5000 
     56 O           4.9194  -12.3582  -41.0506 O.2       3 UNK        -0.5000 
     57 CA          5.9572  -13.6114  -42.8106 C.3       3 UNK         0.1400 
     58 CB          5.9355  -15.1491  -42.8217 C.3       3 UNK        -0.1800 
     59 N           6.0215  -13.1175  -44.1823 N.am      3 UNK        -0.5000 
     60 C           6.3876  -11.8769  -44.5353 C.2       2 UNK         0.5000 
     61 O           6.8110  -11.0314  -43.7466 O.2       2 UNK        -0.5000 
     62 CA          6.2339  -11.5200  -46.0256 C.3       2 UNK         0.1400 
     63 CB          7.5188  -11.8508  -46.7995 C.3       2 UNK        -0.1800 
     64 N           5.1082  -12.2254  -46.6389 N.am      2 UNK        -0.5000 
     65 C           3.8189  -11.9627  -46.3930 C.2       1 UNK         0.5000 
     66 O           3.4343  -11.0241  -45.6947 O.2       1 UNK        -0.5000 
     67 C          -0.3818  -22.1345  -48.1096 C.2       11 UNK         0.5000 
     68 O          -0.1319  -23.1425  -48.7699 O.2       11 UNK        -0.5000 
     69 N          -1.5642  -21.5010  -48.1491 N.am      12 UNK        -0.5000 
     70 CA         -2.7076  -21.9584  -48.9416 C.3       12 UNK         0.1400 
     71 CB         -3.8268  -20.9100  -48.9139 C.3       12 UNK        -0.1800 
     72 C          -3.2396  -23.3319  -48.4982 C.2       12 UNK         0.5000 
     73 O          -3.5616  -24.1562  -49.3537 O.2       12 UNK        -0.5000 
     74 N          -3.2890  -23.5710  -47.1804 N.am      13 UNK        -0.5000 
     75 CA         -3.6605  -24.8592  -46.5935 C.3       13 UNK         0.1400 
     76 CB         -3.8314  -24.7133  -45.0742 C.3       13 UNK        -0.1800 
     77 C          -2.6553  -25.9744  -46.9390 C.2       13 UNK         0.5000 
     78 O          -3.0745  -27.0646  -47.3272 O.2       13 UNK        -0.5000 
     79 N          -1.3527  -25.6701  -46.8471 N.am      14 UNK        -0.5000 
     80 CA         -0.2507  -26.5607  -47.2230 C.3       14 UNK         0.1400 
     81 CB          1.0832  -25.9421  -46.7783 C.3       14 UNK        -0.1800 
     82 C          -0.2250  -26.8876  -48.7288 C.2       14 UNK         0.5000 
     83 O           0.0845  -28.0201  -49.1000 O.2       14 UNK        -0.5000 
     84 N          -0.5925  -25.9060  -49.5635 N.am      15 UNK        -0.5000 
     85 CA         -0.7776  -26.0492  -51.0098 C.3       15 UNK         0.1400 
     86 CB         -0.7882  -24.6502  -51.6490 C.3       15 UNK        -0.1800 
     87 C          -2.0535  -26.8281  -51.3986 C.2       15 UNK         0.5000 
     88 O          -2.2108  -27.1615  -52.5736 O.2       15 UNK        -0.5000 
     89 N          -2.9354  -27.0940  -50.4218 N.am      16 UNK        -0.5000 
     90 CA         -4.2500  -27.7299  -50.5474 C.3       16 UNK         0.1400 
     91 CB         -4.1201  -29.1932  -51.0199 C.3       16 UNK        -0.1800 
     92 C          -5.2259  -26.8921  -51.3987 C.2       16 UNK         0.5000 
     93 O          -5.9942  -27.4463  -52.1872 O.2       16 UNK        -0.5000 
     94 N          -5.1714  -25.5656  -51.2078 N.am      17 UNK        -0.5000 
     95 CA         -5.9170  -24.5272  -51.9157 C.3       17 UNK         0.1400 
     96 CB         -7.4199  -24.5884  -51.5627 C.3       17 UNK        -0.1800 
     97 C          -5.6099  -24.5432  -53.4267 C.2       17 UNK         0.5000 
     98 O          -4.4899  -24.1964  -53.8092 O.2       17 UNK        -0.5000 
     99 N          -6.5977  -24.9278  -54.2490 N.am      18 UNK        -0.5000 
    100 CA        -6.5771  -24.9579  -55.7131 C.3       18 UNK         0.1400 
    101 CB        -5.5820  -26.0203  -56.2326 C.3       18 UNK        -0.1800 
    102 C         -6.3505  -23.5476  -56.2915 C.2       18 UNK         0.5000 
    103 O         -7.3009  -22.7669  -56.3597 O.2       18 UNK        -0.5000 
    104 N         -5.1065  -23.2402  -56.6790 N.am      19 UNK        -0.5000 
    105 CA        -4.6843  -21.9182  -57.1405 C.3       19 UNK         0.1400 
    106 CB        -3.3512  -22.0564  -57.8919 C.3       19 UNK        -0.1800 
    107 C         -4.5544  -20.8932  -55.9957 C.2       19 UNK         0.5000 
    108 O         -4.6878  -19.6948  -56.2477 O.2       19 UNK        -0.5000 
    109 N         -4.2909  -21.3696  -54.7719 N.am      20 UNK        -0.5000 
    110 CA        -4.1833  -20.5510  -53.5672 C.3       20 UNK         0.1400 
    111 CB        -3.0727  -21.1302  -52.6766 C.3       20 UNK        -0.1800 
    112 C         -5.5192  -20.5246  -52.8062 C.2       20 UNK         0.5000 
    113 O         -6.3404  -21.4304  -52.9586 O.2       20 UNK        -0.5000 
    114 N         -5.6901  -19.5034  -51.9635 N.am      21 UNK        -0.5000 
    115 CA        -6.8192  -19.3308  -51.0522 C.3       21 UNK         0.1400 
    116 CB        -8.1525  -19.0590  -51.7817 C.3       21 UNK        -0.1800 
    117 C         -6.4958  -18.2729  -49.9813 C.2       21 UNK         0.5000 
    118 O         -6.6026  -18.5942  -48.8000 O.2       21 UNK        -0.5000 
    119 N         -6.0561  -17.0497  -50.3172 N.am      22 UNK        -0.5000 
    120 CA        -6.0140  -16.3845  -51.6364 C.3       22 UNK         0.1400 
    121 C         -7.1254  -15.3051  -51.8045 C.2       22 UNK         0.5000 
    122 N         -8.0405  -15.1343  -50.8577 N.am      22 UNK        -0.7600 
    123 O         -7.1750  -14.6223  -52.8236 O.2       22 UNK        -0.5000 
    124 C124       -4.6091  -15.7980  -51.9275 C.3       23 UNK        -0.0398 
    125 S125       -3.3134  -17.0811  -52.0335 S.3       23 UNK        -0.2404 
    126 C126       -2.6359  -17.0665  -50.3457 C.3       23 UNK        -0.0205 
    127 H127        3.1010  -16.6022  -45.4117 H         1 UNK         0.0600 
    128 H128        4.8143  -16.8388  -45.7503 H         1 UNK         0.0600 
    129 H129        3.6015  -17.3013  -46.9522 H         1 UNK         0.0600 
    130 H130        2.2614  -14.5895  -45.8235 H         1 UNK         0.3000 
    131 H131        1.8202  -12.6192  -46.5962 H         1 UNK         0.0600 
    132 H132        2.5946  -11.7549  -48.8214 H         1 UNK         0.0800 
    133 H133        3.6224  -13.1445  -49.0245 H         1 UNK         0.0800 
    134 H134        2.3620  -14.7914  -51.0657 H         1 UNK         0.0800 
    135 H135        2.9257  -15.4210  -49.5351 H         1 UNK         0.0800 
    136 H136       -0.7313  -15.1799  -50.2595 H         1 UNK         0.1150 
    137 H137       -1.2309  -19.4134  -50.4696 H         1 UNK         0.1150 
    138 H138        2.7137  -17.7407  -50.2854 H         1 UNK         0.1150 
    139 H139        0.6072  -20.8753  -50.6239 H         1 UNK         0.0800 
    140 H140        1.9846  -20.1886  -51.4387 H         1 UNK         0.0800 
    141 H141        0.6692  -19.5393  -47.8955 H         1 UNK         0.0800 
    142 H142        2.0356  -19.9170  -46.9027 H         1 UNK         0.0800 
    143 H143        1.4347  -22.3686  -47.0027 H         1 UNK         0.0600 
    144 H144        0.1896  -20.3878  -45.4609 H         1 UNK         0.3000 
    145 H145       -1.9013  -22.4536  -43.4263 H         1 UNK         0.0600 
    146 H146       -0.6158  -21.2134  -41.6802 H         1 UNK         0.0600 
    147 H147        0.3233  -22.5345  -42.3604 H         1 UNK         0.0600 
    148 H148        0.6623  -20.8815  -42.8477 H         1 UNK         0.0600 
    149 H149       -1.4955  -19.6380  -43.4466 H         1 UNK         0.3000 
    150 H150       -4.0168  -18.8543  -45.8905 H         1 UNK         0.0600 
    151 H151       -5.1678  -19.0614  -43.7011 H         1 UNK         0.0600 
    152 H152       -4.7083  -17.3921  -44.0044 H         1 UNK         0.0600 
    153 H153       -3.7793  -18.3714  -42.8729 H         1 UNK         0.0600 
    154 H154       -2.2011  -17.1849  -44.4584 H         1 UNK         0.3000 
    155 H155        0.5004  -17.3532  -46.8190 H         1 UNK         0.0600 
    156 H156       -1.4925  -15.1453  -46.0881 H         1 UNK         0.0600 
    157 H157       -0.9884  -15.6121  -47.6938 H         1 UNK         0.0600 
    158 H158        0.1697  -14.8747  -46.6003 H         1 UNK         0.0600 
    159 H159        0.2133  -15.9797  -44.3306 H         1 UNK         0.3000 
    160 H160        1.3168  -18.6480  -42.2133 H         1 UNK         0.0600 
    161 H161        2.7984  -16.1000  -43.0297 H         1 UNK         0.0600 
    162 H162        3.4544  -17.7293  -43.0868 H         1 UNK         0.0600 
    163 H163        3.0374  -17.0077  -41.5413 H         1 UNK         0.0600 
    164 H164        0.6521  -15.8682  -41.8075 H         1 UNK         0.3000 
    165 H165       -2.8191  -16.3737  -41.2422 H         1 UNK         0.0600 
    166 H166       -2.2454  -15.2638  -39.0949 H         1 UNK         0.0600 
    167 H167       -1.7548  -16.9496  -39.0548 H         1 UNK         0.0600 
    168 H168       -0.5462  -15.6931  -39.2937 H         1 UNK         0.0600 
    169 H169       -1.0951  -14.0845  -41.0971 H         1 UNK         0.3000 
    170 H170       -1.1145  -13.2378  -44.5502 H         1 UNK         0.0600 
    171 H171       -3.3080  -12.3312  -43.7862 H         1 UNK         0.0600 
    172 H172       -2.6059  -11.8881  -42.2347 H         1 UNK         0.0600 
    173 H173       -2.0582  -11.0994  -43.7144 H         1 UNK         0.0600 
    174 H174       -0.1508  -11.9902  -42.1228 H         1 UNK         0.3000 
    175 H175        2.2438  -11.7747  -41.9736 H         1 UNK         0.0600 
    176 H176        2.0857  -14.5913  -40.7162 H         1 UNK         0.0600 
    177 H177        2.6972  -13.1429  -39.9290 H         1 UNK         0.0600 
    178 H178        0.9979  -13.2714  -40.3014 H         1 UNK         0.0600 
    179 H179        3.4663  -13.8209  -43.4531 H         1 UNK         0.3000 
    180 H180        6.8577  -13.2930  -42.2806 H         1 UNK         0.0600 
    181 H181        5.1242  -15.5420  -43.4337 H         1 UNK         0.0600 
    182 H182        5.8121  -15.5475  -41.8137 H         1 UNK         0.0600 
    183 H183        6.8696  -15.5494  -43.2160 H         1 UNK         0.0600 
    184 H184        5.7008  -13.7390  -44.9084 H         1 UNK         0.3000 
    185 H185        6.0542  -10.4453  -46.0984 H         1 UNK         0.0600 
    186 H186        7.4385  -11.5477  -47.8436 H         1 UNK         0.0600 
    187 H187        8.3763  -11.3276  -46.3744 H         1 UNK         0.0600 
    188 H188        7.7399  -12.9187  -46.7763 H         1 UNK         0.0600 
    189 H189        5.3210  -13.0562  -47.1845 H         1 UNK         0.3000 
    190 H190       -1.6881  -20.6516  -47.6054 H         1 UNK         0.3000 
    191 H191       -2.3666  -22.0613  -49.9727 H         1 UNK         0.0600 
    192 H192       -4.1839  -20.7208  -47.9016 H         1 UNK         0.0600 
    193 H193       -4.6811  -21.2343  -49.5095 H         1 UNK         0.0600 
    194 H194       -3.4844  -19.9656  -49.3280 H         1 UNK         0.0600 
    195 H195       -3.0623  -22.8186  -46.5379 H         1 UNK         0.3000 
    196 H196       -4.6277  -25.1450  -47.0124 H         1 UNK         0.0600 
    197 H197       -4.1718  -25.6494  -44.6301 H         1 UNK         0.0600 
    198 H198       -4.5708  -23.9496  -44.8322 H         1 UNK         0.0600 
    199 H199       -2.8975  -24.4406  -44.5843 H         1 UNK         0.0600 
    200 H200       -1.0904  -24.7631  -46.4671 H         1 UNK         0.3000 
    201 H201       -0.3855  -27.5006  -46.6839 H         1 UNK         0.0600 
    202 H202        1.1024  -25.7807  -45.7004 H         1 UNK         0.0600 
    203 H203        1.2631  -24.9821  -47.2627 H         1 UNK         0.0600 
    204 H204        1.9198  -26.5971  -47.0246 H         1 UNK         0.0600 
    205 H205       -0.7470  -24.9781  -49.1799 H         1 UNK         0.3000 
    206 H206        0.0751  -26.6003  -51.4112 H         1 UNK         0.0600 
    207 H207        0.1290  -24.1051  -51.4250 H         1 UNK         0.0600 
    208 H208       -0.8710  -24.7144  -52.7346 H         1 UNK         0.0600 
    209 H209       -1.6282  -24.0532  -51.2941 H         1 UNK         0.0600 
    210 H210       -2.7078  -26.7724  -49.4893 H         1 UNK         0.3000 
    211 H211       -4.6717  -27.7498  -49.5417 H         1 UNK         0.0600 
    212 H212       -3.7717  -29.2598  -52.0508 H         1 UNK         0.0600 
    213 H213       -5.0814  -29.7054  -50.9680 H         1 UNK         0.0600 
    214 H214       -3.4228  -29.7487  -50.3927 H         1 UNK         0.0600 
    215 H215       -4.4859  -25.2084  -50.5444 H         1 UNK         0.3000 
    216 H216       -5.5336  -23.5783  -51.5385 H         1 UNK         0.0600 
    217 H217       -7.9667  -23.7782  -52.0471 H         1 UNK         0.0600 
    218 H218       -7.5686  -24.4754  -50.4888 H         1 UNK         0.0600 
    219 H219       -7.8821  -25.5298  -51.8606 H         1 UNK         0.0600 
    220 H220       -7.4788  -25.1806  -53.8253 H         1 UNK         0.3000 
    221 H221       -7.5746  -25.2645  -56.0311 H         1 UNK         0.0600 
    222 H222       -4.5586  -25.8364  -55.9052 H         1 UNK         0.0600 
    223 H223       -5.8612  -27.0138  -55.8817 H         1 UNK         0.0600 
    224 H224       -5.5798  -26.0529  -57.3228 H         1 UNK         0.0600 
    225 H225       -4.3815  -23.9318  -56.5524 H         1 UNK         0.3000 
    226 H226       -5.4316  -21.5394  -57.8411 H         1 UNK         0.0600 
    227 H227       -3.4465  -22.7285  -58.7449 H         1 UNK         0.0600 
    228 H228       -3.0174  -21.0913  -58.2755 H         1 UNK         0.0600 
    229 H229       -2.5627  -22.4430  -57.2449 H         1 UNK         0.0600 
    230 H230       -4.2823  -22.3744  -54.6249 H         1 UNK         0.3000 
    231 H231       -3.9110  -19.5280  -53.8346 H         1 UNK         0.0600 
    232 H232       -2.9164  -20.5043  -51.7986 H         1 UNK         0.0600 
    233 H233       -2.1233  -21.1795  -53.2099 H         1 UNK         0.0600 
    234 H234       -3.3146  -22.1358  -52.3297 H         1 UNK         0.0600 
    235 H235       -4.9551  -18.8125  -51.8719 H         1 UNK         0.3000 
    236 H236       -6.9381  -20.2744  -50.5147 H         1 UNK         0.0600 
    237 H237       -8.0814  -18.2587  -52.5157 H         1 UNK         0.0600 
    238 H238       -8.4997  -19.9489  -52.3063 H         1 UNK         0.0600 
    239 H239       -8.9352  -18.7845  -51.0735 H         1 UNK         0.0600 
    240 H240       -5.8237  -16.4328  -49.5535 H         1 UNK         0.3000 
    241 H241       -6.2200  -17.0887  -52.4370 H         1 UNK         0.0600 
    242 H242       -8.7581  -14.4374  -50.9846 H         1 UNK         0.3800 
    243 H243       -8.0337  -15.6954  -50.0208 H         1 UNK         0.3800 
    244 H244       -4.6064  -15.2788  -52.8876 H         1 UNK         0.0800 
    245 H245       -4.3407  -15.0444  -51.1860 H         1 UNK         0.0800 
    246 H246       -3.1187  -17.8366  -49.7473 H         1 UNK         0.0800 
    247 H247       -2.8672  -16.1239  -49.8487 H         1 UNK         0.0800 
@<TRIPOS>BOND
     1    1    2 1    
     2    1  127 1    
     3    1  128 1    
     4    1  129 1    
     5    2    3 2    
     6    2    4 am   BACKBONE|DICT|INTERRES
     7    4    5 1    
     8    4  130 1    
     9    5    6 1    
    10    5   65 1    
    11    5  131 1    
    12    6    7 1    
    13    6  132 1    
    14    6  133 1    
    15    7    8 1    
    16    8    9 1    
    17    8  134 1    
    18    8  135 1    
    19    9   10 ar   
    20    9   14 ar   
    21   10   11 ar   
    22   10  136 1    
    23   11   12 ar   
    24   11  126 1    
    25   12   13 ar   
    26   12  137 1    
    27   13   14 ar   
    28   13   15 1    
    29   14  138 1    
    30   15   16 1    
    31   15  139 1    
    32   15  140 1    
    33   16   17 1    
    34   17   18 1    
    35   17  141 1    
    36   17  142 1    
    37   18   19 1    
    38   18   67 1    
    39   18  143 1    
    40   19   20 am   BACKBONE|DICT|INTERRES
    41   19  144 1    
    42   20   21 2    
    43   20   22 1    
    44   22   23 1    
    45   22   24 1    
    46   22  145 1    
    47   23  146 1    
    48   23  147 1    
    49   23  148 1    
    50   24   25 am   BACKBONE|DICT|INTERRES
    51   24  149 1    
    52   25   26 2    
    53   25   27 1    
    54   27   28 1    
    55   27   29 1    
    56   27  150 1    
    57   28  151 1    
    58   28  152 1    
    59   28  153 1    
    60   29   30 am   BACKBONE|DICT|INTERRES
    61   29  154 1    
    62   30   31 2    
    63   30   32 1    
    64   32   33 1    
    65   32   34 1    
    66   32  155 1    
    67   33  156 1    
    68   33  157 1    
    69   33  158 1    
    70   34   35 am   BACKBONE|DICT|INTERRES
    71   34  159 1    
    72   35   36 2    
    73   35   37 1    
    74   37   38 1    
    75   37   39 1    
    76   37  160 1    
    77   38  161 1    
    78   38  162 1    
    79   38  163 1    
    80   39   40 am   BACKBONE|DICT|INTERRES
    81   39  164 1    
    82   40   41 2    
    83   40   42 1    
    84   42   43 1    
    85   42   44 1    
    86   42  165 1    
    87   43  166 1    
    88   43  167 1    
    89   43  168 1    
    90   44   45 am   BACKBONE|DICT|INTERRES
    91   44  169 1    
    92   45   46 2    
    93   45   47 1    
    94   47   48 1    
    95   47   49 1    
    96   47  170 1    
    97   48  171 1    
    98   48  172 1    
    99   48  173 1    
   100   49   50 am   BACKBONE|DICT|INTERRES
   101   49  174 1    
   102   50   51 2    
   103   50   52 1    
   104   52   53 1    
   105   52   54 1    
   106   52  175 1    
   107   53  176 1    
   108   53  177 1    
   109   53  178 1    
   110   54   55 am   BACKBONE|DICT|INTERRES
   111   54  179 1    
   112   55   56 2    
   113   55   57 1    
   114   57   58 1    
   115   57   59 1    
   116   57  180 1    
   117   58  181 1    
   118   58  182 1    
   119   58  183 1    
   120   59   60 am   BACKBONE|DICT|INTERRES
   121   59  184 1    
   122   60   61 2    
   123   60   62 1    
   124   62   63 1    
   125   62   64 1    
   126   62  185 1    
   127   63  186 1    
   128   63  187 1    
   129   63  188 1    
   130   64   65 am   BACKBONE|DICT|INTERRES
   131   64  189 1    
   132   65   66 2    
   133   67   68 2    
   134   67   69 am   BACKBONE|DICT|INTERRES
   135   69   70 1    
   136   69  190 1    
   137   70   71 1    
   138   70   72 1    
   139   70  191 1    
   140   71  192 1    
   141   71  193 1    
   142   71  194 1    
   143   72   73 2    
   144   72   74 am   BACKBONE|DICT|INTERRES
   145   74   75 1    
   146   74  195 1    
   147   75   76 1    
   148   75   77 1    
   149   75  196 1    
   150   76  197 1    
   151   76  198 1    
   152   76  199 1    
   153   77   78 2    
   154   77   79 am   BACKBONE|DICT|INTERRES
   155   79   80 1    
   156   79  200 1    
   157   80   81 1    
   158   80   82 1    
   159   80  201 1    
   160   81  202 1    
   161   81  203 1    
   162   81  204 1    
   163   82   83 2    
   164   82   84 am   BACKBONE|DICT|INTERRES
   165   84   85 1    
   166   84  205 1    
   167   85   86 1    
   168   85   87 1    
   169   85  206 1    
   170   86  207 1    
   171   86  208 1    
   172   86  209 1    
   173   87   88 2    
   174   87   89 am   BACKBONE|DICT|INTERRES
   175   89   90 1    
   176   89  210 1    
   177   90   91 1    
   178   90   92 1    
   179   90  211 1    
   180   91  212 1    
   181   91  213 1    
   182   91  214 1    
   183   92   93 2    
   184   92   94 am   BACKBONE|DICT|INTERRES
   185   94   95 1    
   186   94  215 1    
   187   95   96 1    
   188   95   97 1    
   189   95  216 1    
   190   96  217 1    
   191   96  218 1    
   192   96  219 1    
   193   97   98 2    
   194   97   99 am   BACKBONE|DICT|INTERRES
   195   99  100 1    
   196   99  220 1    
   197  100  101 1    
   198  100  102 1    
   199  100  221 1    
   200  101  222 1    
   201  101  223 1    
   202  101  224 1    
   203  102  103 2    
   204  102  104 am   BACKBONE|DICT|INTERRES
   205  104  105 1    
   206  104  225 1    
   207  105  106 1    
   208  105  107 1    
   209  105  226 1    
   210  106  227 1    
   211  106  228 1    
   212  106  229 1    
   213  107  108 2    
   214  107  109 am   BACKBONE|DICT|INTERRES
   215  109  110 1    
   216  109  230 1    
   217  110  111 1    
   218  110  112 1    
   219  110  231 1    
   220  111  232 1    
   221  111  233 1    
   222  111  234 1    
   223  112  113 2    
   224  112  114 am   BACKBONE|DICT|INTERRES
   225  114  115 1    
   226  114  235 1    
   227  115  116 1    
   228  115  117 1    
   229  115  236 1    
   230  116  237 1    
   231  116  238 1    
   232  116  239 1    
   233  117  118 2    
   234  117  119 am   BACKBONE|DICT|INTERRES
   235  119  120 1    
   236  119  240 1    
   237  120  121 1    
   238  120  124 1    
   239  120  241 1    
   240  121  122 am   BACKBONE|DICT|INTERRES
   241  121  123 2    
   242  122  242 1    
   243  122  243 1    
   244  124  125 1    
   245  124  244 1    
   246  124  245 1    
   247  125  126 1    
   248  126  246 1    
   249  126  247 1    
@<TRIPOS>SUBSTRUCTURE
     1 UNK         1 GROUP             0       ****    0 ROOT    
