@<TRIPOS>MOLECULE
3R540
247   249    1
SMALL
USER_CHARGES


@<TRIPOS>ATOM
      1 CA          0.5155  -14.6577  -48.7556 C.3       0 UNK        -0.1800 
      2 C           0.2166  -14.4281  -47.2818 C.2       0 UNK         0.5000 
      3 O          -0.4185  -13.4329  -46.9331 O.2       0 UNK        -0.5000 
      4 N           0.6820  -15.3383  -46.4160 N.am      1 UNK        -0.5000 
      5 CA          0.5048  -15.3320  -44.9582 C.3       1 UNK         0.1400 
      6 C6         -0.9534  -15.6178  -44.5075 C.3       23 UNK        -0.0398 
      7 S7         -1.5800  -17.2110  -45.1383 S.3       23 UNK        -0.2404 
      8 C8         -2.9530  -16.6208  -46.1692 C.3       23 UNK        -0.0205 
      9 C9         -3.7307  -17.7658  -46.7938 C.ar      23 UNK        -0.0193 
     10 C10        -3.5763  -18.0639  -48.1507 C.ar      23 UNK        -0.1150 
     11 C11        -4.3539  -19.0598  -48.7469 C.ar      23 UNK        -0.0193 
     12 C12        -5.2886  -19.7532  -47.9763 C.ar      23 UNK        -0.1150 
     13 C13        -5.4270  -19.4937  -46.6100 C.ar      23 UNK        -0.0193 
     14 C14        -4.6425  -18.4959  -46.0244 C.ar      23 UNK        -0.1150 
     15 C15        -6.4532  -20.2544  -45.7787 C.3       23 UNK        -0.0205 
     16 S16        -5.8288  -21.8599  -45.1762 S.3       23 UNK        -0.2404 
     17 C17        -5.9241  -22.8929  -46.6886 C.3       23 UNK        -0.0398 
     18 CA         -4.5555  -23.4162  -47.2134 C.3       11 UNK         0.1400 
     19 N          -3.4736  -22.4452  -47.0286 N.am      11 UNK        -0.5000 
     20 C          -2.2613  -22.4989  -47.5901 C.2       10 UNK         0.5000 
     21 O          -1.9801  -23.2555  -48.5173 O.2       10 UNK        -0.5000 
     22 CA         -1.1628  -21.5861  -46.9999 C.3       10 UNK         0.1400 
     23 CB         -0.6851  -20.5460  -48.0229 C.3       10 UNK        -0.1800 
     24 N          -1.5183  -20.8941  -45.7544 N.am      10 UNK        -0.5000 
     25 C          -1.7806  -21.4815  -44.5782 C.2       9 UNK         0.5000 
     26 O          -1.8578  -22.7023  -44.4310 O.2       9 UNK        -0.5000 
     27 CA         -1.9464  -20.5300  -43.3781 C.3       9 UNK         0.1400 
     28 CB         -2.3507  -21.2544  -42.0772 C.3       9 UNK        -0.1800 
     29 N          -0.7392  -19.7138  -43.1941 N.am      9 UNK        -0.5000 
     30 C           0.4989  -20.1570  -42.9171 C.2       8 UNK         0.5000 
     31 O           0.7737  -21.3183  -42.6217 O.2       8 UNK        -0.5000 
     32 CA          1.6263  -19.1204  -42.9826 C.3       8 UNK         0.1400 
     33 CB          2.0283  -18.8444  -44.4450 C.3       8 UNK        -0.1800 
     34 N           1.2464  -17.8899  -42.2851 N.am      8 UNK        -0.5000 
     35 C           2.1273  -17.0105  -41.7945 C.2       7 UNK         0.5000 
     36 O           3.3470  -17.0929  -41.9698 O.2       7 UNK        -0.5000 
     37 CA          1.5589  -15.8567  -40.9507 C.3       7 UNK         0.1400 
     38 CB          0.9465  -16.3832  -39.6367 C.3       7 UNK        -0.1800 
     39 N           2.6534  -14.9349  -40.6703 N.am      7 UNK        -0.5000 
     40 C           2.5780  -13.7142  -40.1298 C.2       6 UNK         0.5000 
     41 O           1.5233  -13.1662  -39.8093 O.2       6 UNK        -0.5000 
     42 CA          3.9179  -12.9815  -39.9194 C.3       6 UNK         0.1400 
     43 CB          4.5397  -13.3725  -38.5697 C.3       6 UNK        -0.1800 
     44 N           4.8741  -13.2673  -40.9929 N.am      6 UNK        -0.5000 
     45 C           4.8085  -12.7116  -42.2094 C.2       5 UNK         0.5000 
     46 O           4.0153  -11.8135  -42.4918 O.2       5 UNK        -0.5000 
     47 CA          5.7707  -13.2319  -43.2923 C.3       5 UNK         0.1400 
     48 CB          6.3398  -14.6382  -43.0068 C.3       5 UNK        -0.1800 
     49 N           5.0558  -13.2382  -44.5635 N.am      5 UNK        -0.5000 
     50 C           5.5952  -13.0987  -45.7777 C.2       4 UNK         0.5000 
     51 O           6.8002  -12.9429  -45.9797 O.2       4 UNK        -0.5000 
     52 CA          4.6226  -13.1368  -46.9683 C.3       4 UNK         0.1400 
     53 CB          4.2354  -14.5875  -47.3003 C.3       4 UNK        -0.1800 
     54 N           3.4067  -12.3671  -46.6982 N.am      4 UNK        -0.5000 
     55 C           3.1835  -11.1166  -47.1278 C.2       3 UNK         0.5000 
     56 O           3.9972  -10.4705  -47.7894 O.2       3 UNK        -0.5000 
     57 CA          1.8228  -10.4734  -46.7888 C.3       3 UNK         0.1400 
     58 CB          0.9119  -10.4602  -48.0265 C.3       3 UNK        -0.1800 
     59 N           1.1335  -11.1612  -45.6957 N.am      3 UNK        -0.5000 
     60 C           1.3150  -10.8757  -44.3978 C.2       2 UNK         0.5000 
     61 O           1.9772   -9.9147  -44.0054 O.2       2 UNK        -0.5000 
     62 CA          0.6508  -11.8071  -43.3588 C.3       2 UNK         0.1400 
     63 CB         -0.5869  -11.1355  -42.7447 C.3       2 UNK        -0.1800 
     64 N           0.2598  -13.1165  -43.8879 N.am      2 UNK        -0.5000 
     65 C           1.1056  -14.0495  -44.3463 C.2       1 UNK         0.5000 
     66 O           2.3278  -13.9119  -44.3506 O.2       1 UNK        -0.5000 
     67 C          -4.2323  -24.7950  -46.5944 C.2       11 UNK         0.5000 
     68 O          -4.7279  -25.8032  -47.0991 O.2       11 UNK        -0.5000 
     69 N          -3.4421  -24.8165  -45.5130 N.am      12 UNK        -0.5000 
     70 CA         -3.0667  -26.0208  -44.7732 C.3       12 UNK         0.1400 
     71 CB         -3.4364  -25.8298  -43.2935 C.3       12 UNK        -0.1800 
     72 C          -1.5667  -26.3196  -44.9149 C.2       12 UNK         0.5000 
     73 O          -1.1902  -27.4845  -45.0465 O.2       12 UNK        -0.5000 
     74 N          -0.7350  -25.2696  -44.8879 N.am      13 UNK        -0.5000 
     75 CA          0.7244  -25.3582  -44.9729 C.3       13 UNK         0.1400 
     76 CB          1.3282  -24.0757  -44.3822 C.3       13 UNK        -0.1800 
     77 C           1.2530  -25.5950  -46.4011 C.2       13 UNK         0.5000 
     78 O           2.4355  -25.9018  -46.5604 O.2       13 UNK        -0.5000 
     79 N           0.3899  -25.4419  -47.4097 N.am      14 UNK        -0.5000 
     80 CA          0.6911  -25.6221  -48.8240 C.3       14 UNK         0.1400 
     81 CB          1.2884  -24.3163  -49.3908 C.3       14 UNK        -0.1800 
     82 C          -0.5883  -26.0551  -49.5602 C.2       14 UNK         0.5000 
     83 O          -1.6097  -26.3247  -48.9233 O.2       14 UNK        -0.5000 
     84 N          -0.5094  -26.1011  -50.8944 N.am      15 UNK        -0.5000 
     85 CA         -1.6324  -26.3481  -51.8019 C.3       15 UNK         0.1400 
     86 CB         -1.2120  -27.4115  -52.8317 C.3       15 UNK        -0.1800 
     87 C          -2.0899  -25.0441  -52.4881 C.2       15 UNK         0.5000 
     88 O          -2.7164  -25.0990  -53.5473 O.2       15 UNK        -0.5000 
     89 N          -1.7702  -23.8858  -51.8905 N.am      16 UNK        -0.5000 
     90 CA         -2.0118  -22.5535  -52.4511 C.3       16 UNK         0.1400 
     91 CB         -1.3851  -21.4967  -51.5333 C.3       16 UNK        -0.1800 
     92 C          -3.4983  -22.2384  -52.6857 C.2       16 UNK         0.5000 
     93 O          -3.8198  -21.5256  -53.6350 O.2       16 UNK        -0.5000 
     94 N          -4.3745  -22.7915  -51.8367 N.am      17 UNK        -0.5000 
     95 CA         -5.8270  -22.6645  -51.9571 C.3       17 UNK         0.1400 
     96 CB         -6.4813  -23.0442  -50.6224 C.3       17 UNK        -0.1800 
     97 C          -6.4026  -23.5114  -53.1065 C.2       17 UNK         0.5000 
     98 O          -7.3605  -23.0826  -53.7488 O.2       17 UNK        -0.5000 
     99 N          -5.7954  -24.6788  -53.3660 N.am      18 UNK        -0.5000 
    100 CA        -6.1484  -25.5657  -54.4773 C.3       18 UNK         0.1400 
    101 CB        -5.5914  -26.9734  -54.2135 C.3       18 UNK        -0.1800 
    102 C         -5.6433  -25.0141  -55.8220 C.2       18 UNK         0.5000 
    103 O         -6.3507  -25.1059  -56.8255 O.2       18 UNK        -0.5000 
    104 N         -4.4470  -24.4097  -55.8029 N.am      19 UNK        -0.5000 
    105 CA        -3.8589  -23.6722  -56.9230 C.3       19 UNK         0.1400 
    106 CB        -2.3692  -23.4391  -56.6263 C.3       19 UNK        -0.1800 
    107 C         -4.5622  -22.3266  -57.2024 C.2       19 UNK         0.5000 
    108 O         -4.4060  -21.7820  -58.2956 O.2       19 UNK        -0.5000 
    109 N         -5.3003  -21.8163  -56.2047 N.am      20 UNK        -0.5000 
    110 CA        -5.9894  -20.5233  -56.1535 C.3       20 UNK         0.1400 
    111 CB        -7.1178  -20.4525  -57.2025 C.3       20 UNK        -0.1800 
    112 C         -5.0178  -19.3261  -56.2230 C.2       20 UNK         0.5000 
    113 O         -5.3697  -18.2694  -56.7505 O.2       20 UNK        -0.5000 
    114 N         -3.8126  -19.5034  -55.6639 N.am      21 UNK        -0.5000 
    115 CA        -2.7309  -18.5158  -55.6471 C.3       21 UNK         0.1400 
    116 CB        -1.4459  -19.1937  -55.1491 C.3       21 UNK        -0.1800 
    117 C         -3.0622  -17.2751  -54.7963 C.2       21 UNK         0.5000 
    118 O         -2.6142  -16.1745  -55.1191 O.2       21 UNK        -0.5000 
    119 N         -3.8679  -17.4786  -53.7488 N.am      22 UNK        -0.5000 
    120 CA        -4.4750  -16.4318  -52.9137 C.3       22 UNK         0.1400 
    121 C         -5.7915  -15.8302  -53.4952 C.2       22 UNK         0.5000 
    122 N         -6.2609  -16.2328  -54.6713 N.am      22 UNK        -0.7600 
    123 O         -6.3935  -14.9570  -52.8762 O.2       22 UNK        -0.5000 
    124 C124       -4.6304  -16.8956  -51.4392 C.3       23 UNK        -0.0398 
    125 S125       -5.4167  -18.5379  -51.2523 S.3       23 UNK        -0.2404 
    126 C126       -4.1931  -19.4025  -50.2191 C.3       23 UNK        -0.0205 
    127 H127        1.1555  -13.8619  -49.1364 H         1 UNK         0.0600 
    128 H128       -0.4109  -14.6577  -49.3298 H         1 UNK         0.0600 
    129 H129        1.0193  -15.6099  -48.9234 H         1 UNK         0.0600 
    130 H130        1.2094  -16.1208  -46.7752 H         1 UNK         0.3000 
    131 H131        1.1270  -16.1422  -44.5817 H         1 UNK         0.0600 
    132 H132       -1.0166  -15.6513  -43.4187 H         1 UNK         0.0800 
    133 H133       -1.6224  -14.8176  -44.8274 H         1 UNK         0.0800 
    134 H134       -2.5625  -15.9571  -46.9425 H         1 UNK         0.0800 
    135 H135       -3.6313  -16.0199  -45.5613 H         1 UNK         0.0800 
    136 H136       -2.8626  -17.5109  -48.7445 H         1 UNK         0.1150 
    137 H137       -5.9109  -20.4918  -48.4546 H         1 UNK         0.1150 
    138 H138       -4.7585  -18.2671  -44.9742 H         1 UNK         0.1150 
    139 H139       -7.3669  -20.4049  -46.3555 H         1 UNK         0.0800 
    140 H140       -6.7438  -19.6538  -44.9155 H         1 UNK         0.0800 
    141 H141       -6.4217  -22.3304  -47.4735 H         1 UNK         0.0800 
    142 H142       -6.6142  -23.7152  -46.4887 H         1 UNK         0.0800 
    143 H143       -4.6541  -23.5861  -48.2871 H         1 UNK         0.0600 
    144 H144       -3.6298  -21.7644  -46.2993 H         1 UNK         0.3000 
    145 H145       -0.3158  -22.2359  -46.7722 H         1 UNK         0.0600 
    146 H146       -0.2325  -21.0324  -48.8866 H         1 UNK         0.0600 
    147 H147        0.0721  -19.8873  -47.5969 H         1 UNK         0.0600 
    148 H148       -1.5057  -19.9270  -48.3823 H         1 UNK         0.0600 
    149 H149       -1.4958  -19.8846  -45.7907 H         1 UNK         0.3000 
    150 H150       -2.7555  -19.8439  -43.6340 H         1 UNK         0.0600 
    151 H151       -1.6188  -22.0049  -41.7780 H         1 UNK         0.0600 
    152 H152       -3.3052  -21.7671  -42.2030 H         1 UNK         0.0600 
    153 H153       -2.4652  -20.5499  -41.2537 H         1 UNK         0.0600 
    154 H154       -0.8408  -18.7508  -43.4846 H         1 UNK         0.3000 
    155 H155        2.4870  -19.5545  -42.4683 H         1 UNK         0.0600 
    156 H156        1.1958  -18.4565  -45.0310 H         1 UNK         0.0600 
    157 H157        2.3629  -19.7617  -44.9311 H         1 UNK         0.0600 
    158 H158        2.8488  -18.1297  -44.5089 H         1 UNK         0.0600 
    159 H159        0.2729  -17.8092  -42.0278 H         1 UNK         0.3000 
    160 H160        0.7977  -15.3362  -41.5340 H         1 UNK         0.0600 
    161 H161        1.6907  -16.8977  -39.0275 H         1 UNK         0.0600 
    162 H162        0.1357  -17.0866  -39.8285 H         1 UNK         0.0600 
    163 H163        0.5272  -15.5755  -39.0372 H         1 UNK         0.0600 
    164 H164        3.5550  -15.3002  -40.9528 H         1 UNK         0.3000 
    165 H165        3.7143  -11.9085  -39.8984 H         1 UNK         0.0600 
    166 H166        3.8557  -13.1549  -37.7483 H         1 UNK         0.0600 
    167 H167        4.7767  -14.4363  -38.5262 H         1 UNK         0.0600 
    168 H168        5.4580  -12.8155  -38.3830 H         1 UNK         0.0600 
    169 H169        5.5618  -13.9853  -40.8174 H         1 UNK         0.3000 
    170 H170        6.5963  -12.5198  -43.3487 H         1 UNK         0.0600 
    171 H171        5.5450  -15.3762  -42.8882 H         1 UNK         0.0600 
    172 H172        6.9489  -14.6479  -42.1025 H         1 UNK         0.0600 
    173 H173        6.9817  -14.9748  -43.8210 H         1 UNK         0.0600 
    174 H174        4.0463  -13.3466  -44.4783 H         1 UNK         0.3000 
    175 H175        5.1421  -12.7264  -47.8369 H         1 UNK         0.0600 
    176 H176        5.1204  -15.1859  -47.5202 H         1 UNK         0.0600 
    177 H177        3.7127  -15.0685  -46.4729 H         1 UNK         0.0600 
    178 H178        3.5889  -14.6309  -48.1766 H         1 UNK         0.0600 
    179 H179        2.7266  -12.8017  -46.0881 H         1 UNK         0.3000 
    180 H180        2.0116   -9.4354  -46.5067 H         1 UNK         0.0600 
    181 H181        0.7232  -11.4656  -48.4023 H         1 UNK         0.0600 
    182 H182       -0.0504   -9.9991  -47.8038 H         1 UNK         0.0600 
    183 H183        1.3654   -9.8892  -48.8377 H         1 UNK         0.0600 
    184 H184        0.5367  -11.9407  -45.9556 H         1 UNK         0.3000 
    185 H185        1.3751  -11.9742  -42.5600 H         1 UNK         0.0600 
    186 H186       -0.3311  -10.1690  -42.3083 H         1 UNK         0.0600 
    187 H187       -1.3636  -10.9641  -43.4910 H         1 UNK         0.0600 
    188 H188       -1.0117  -11.7462  -41.9476 H         1 UNK         0.0600 
    189 H189       -0.7332  -13.2737  -43.9741 H         1 UNK         0.3000 
    190 H190       -3.0553  -23.9426  -45.1676 H         1 UNK         0.3000 
    191 H191       -3.6113  -26.8904  -45.1466 H         1 UNK         0.0600 
    192 H192       -4.5090  -25.6767  -43.1741 H         1 UNK         0.0600 
    193 H193       -3.1650  -26.7075  -42.7055 H         1 UNK         0.0600 
    194 H194       -2.9263  -24.9696  -42.8572 H         1 UNK         0.0600 
    195 H195       -1.1206  -24.3404  -44.7359 H         1 UNK         0.3000 
    196 H196        1.0574  -26.1995  -44.3616 H         1 UNK         0.0600 
    197 H197        2.4182  -24.1110  -44.3912 H         1 UNK         0.0600 
    198 H198        1.0182  -23.9401  -43.3460 H         1 UNK         0.0600 
    199 H199        1.0234  -23.1901  -44.9401 H         1 UNK         0.0600 
    200 H200       -0.5869  -25.2692  -47.2085 H         1 UNK         0.3000 
    201 H201        1.4162  -26.4304  -48.9387 H         1 UNK         0.0600 
    202 H202        1.6017  -24.4332  -50.4283 H         1 UNK         0.0600 
    203 H203        2.1707  -24.0100  -48.8286 H         1 UNK         0.0600 
    204 H204        0.5721  -23.4956  -49.3520 H         1 UNK         0.0600 
    205 H205        0.3679  -25.8661  -51.3372 H         1 UNK         0.3000 
    206 H206       -2.4927  -26.7343  -51.2519 H         1 UNK         0.0600 
    207 H207       -0.8874  -28.3284  -52.3396 H         1 UNK         0.0600 
    208 H208       -2.0423  -27.6758  -53.4878 H         1 UNK         0.0600 
    209 H209       -0.3938  -27.0606  -53.4616 H         1 UNK         0.0600 
    210 H210       -1.3115  -23.9206  -50.9910 H         1 UNK         0.3000 
    211 H211       -1.5084  -22.5063  -53.4185 H         1 UNK         0.0600 
    212 H212       -1.4846  -20.4971  -51.9563 H         1 UNK         0.0600 
    213 H213       -0.3215  -21.6814  -51.3824 H         1 UNK         0.0600 
    214 H214       -1.8696  -21.4855  -50.5578 H         1 UNK         0.0600 
    215 H215       -4.0177  -23.3599  -51.0825 H         1 UNK         0.3000 
    216 H216       -6.0661  -21.6190  -52.1651 H         1 UNK         0.0600 
    217 H217       -6.1473  -22.3792  -49.8287 H         1 UNK         0.0600 
    218 H218       -6.2457  -24.0684  -50.3308 H         1 UNK         0.0600 
    219 H219       -7.5672  -22.9586  -50.6801 H         1 UNK         0.0600 
    220 H220       -4.9775  -24.9315  -52.8309 H         1 UNK         0.3000 
    221 H221       -7.2369  -25.6384  -54.5316 H         1 UNK         0.0600 
    222 H222       -4.5026  -26.9786  -54.1633 H         1 UNK         0.0600 
    223 H223       -5.9725  -27.3789  -53.2762 H         1 UNK         0.0600 
    224 H224       -5.8842  -27.6611  -55.0078 H         1 UNK         0.0600 
    225 H225       -3.8961  -24.4586  -54.9504 H         1 UNK         0.3000 
    226 H226       -3.9416  -24.2855  -57.8225 H         1 UNK         0.0600 
    227 H227       -1.8481  -24.3809  -56.4530 H         1 UNK         0.0600 
    228 H228       -1.8763  -22.9425  -57.4629 H         1 UNK         0.0600 
    229 H229       -2.2299  -22.8123  -55.7452 H         1 UNK         0.0600 
    230 H230       -5.3121  -22.3374  -55.3392 H         1 UNK         0.3000 
    231 H231       -6.4549  -20.4728  -55.1681 H         1 UNK         0.0600 
    232 H232       -6.7265  -20.4235  -58.2196 H         1 UNK         0.0600 
    233 H233       -7.7262  -19.5584  -57.0617 H         1 UNK         0.0600 
    234 H234       -7.7831  -21.3123  -57.1224 H         1 UNK         0.0600 
    235 H235       -3.6498  -20.3703  -55.1593 H         1 UNK         0.3000 
    236 H236       -2.5667  -18.1798  -56.6729 H         1 UNK         0.0600 
    237 H237       -1.5605  -19.5696  -54.1328 H         1 UNK         0.0600 
    238 H238       -1.1701  -20.0334  -55.7874 H         1 UNK         0.0600 
    239 H239       -0.6088  -18.4946  -55.1498 H         1 UNK         0.0600 
    240 H240       -4.1904  -18.4184  -53.5671 H         1 UNK         0.3000 
    241 H241       -3.7837  -15.5873  -52.8931 H         1 UNK         0.0600 
    242 H242       -5.7739  -16.9185  -55.2350 H         1 UNK         0.3800 
    243 H243       -7.1086  -15.8182  -55.0249 H         1 UNK         0.3800 
    244 H244       -3.6399  -16.9218  -50.9854 H         1 UNK         0.0800 
    245 H245       -5.1917  -16.1700  -50.8483 H         1 UNK         0.0800 
    246 H246       -4.3262  -20.4759  -50.3460 H         1 UNK         0.0800 
    247 H247       -3.1817  -19.1819  -50.5626 H         1 UNK         0.0800 
@<TRIPOS>BOND
     1    1    2 1    
     2    1  127 1    
     3    1  128 1    
     4    1  129 1    
     5    2    3 2    
     6    2    4 am   BACKBONE|DICT|INTERRES
     7    4    5 1    
     8    4  130 1    
     9    5    6 1    
    10    5   65 1    
    11    5  131 1    
    12    6    7 1    
    13    6  132 1    
    14    6  133 1    
    15    7    8 1    
    16    8    9 1    
    17    8  134 1    
    18    8  135 1    
    19    9   10 ar   
    20    9   14 ar   
    21   10   11 ar   
    22   10  136 1    
    23   11   12 ar   
    24   11  126 1    
    25   12   13 ar   
    26   12  137 1    
    27   13   14 ar   
    28   13   15 1    
    29   14  138 1    
    30   15   16 1    
    31   15  139 1    
    32   15  140 1    
    33   16   17 1    
    34   17   18 1    
    35   17  141 1    
    36   17  142 1    
    37   18   19 1    
    38   18   67 1    
    39   18  143 1    
    40   19   20 am   BACKBONE|DICT|INTERRES
    41   19  144 1    
    42   20   21 2    
    43   20   22 1    
    44   22   23 1    
    45   22   24 1    
    46   22  145 1    
    47   23  146 1    
    48   23  147 1    
    49   23  148 1    
    50   24   25 am   BACKBONE|DICT|INTERRES
    51   24  149 1    
    52   25   26 2    
    53   25   27 1    
    54   27   28 1    
    55   27   29 1    
    56   27  150 1    
    57   28  151 1    
    58   28  152 1    
    59   28  153 1    
    60   29   30 am   BACKBONE|DICT|INTERRES
    61   29  154 1    
    62   30   31 2    
    63   30   32 1    
    64   32   33 1    
    65   32   34 1    
    66   32  155 1    
    67   33  156 1    
    68   33  157 1    
    69   33  158 1    
    70   34   35 am   BACKBONE|DICT|INTERRES
    71   34  159 1    
    72   35   36 2    
    73   35   37 1    
    74   37   38 1    
    75   37   39 1    
    76   37  160 1    
    77   38  161 1    
    78   38  162 1    
    79   38  163 1    
    80   39   40 am   BACKBONE|DICT|INTERRES
    81   39  164 1    
    82   40   41 2    
    83   40   42 1    
    84   42   43 1    
    85   42   44 1    
    86   42  165 1    
    87   43  166 1    
    88   43  167 1    
    89   43  168 1    
    90   44   45 am   BACKBONE|DICT|INTERRES
    91   44  169 1    
    92   45   46 2    
    93   45   47 1    
    94   47   48 1    
    95   47   49 1    
    96   47  170 1    
    97   48  171 1    
    98   48  172 1    
    99   48  173 1    
   100   49   50 am   BACKBONE|DICT|INTERRES
   101   49  174 1    
   102   50   51 2    
   103   50   52 1    
   104   52   53 1    
   105   52   54 1    
   106   52  175 1    
   107   53  176 1    
   108   53  177 1    
   109   53  178 1    
   110   54   55 am   BACKBONE|DICT|INTERRES
   111   54  179 1    
   112   55   56 2    
   113   55   57 1    
   114   57   58 1    
   115   57   59 1    
   116   57  180 1    
   117   58  181 1    
   118   58  182 1    
   119   58  183 1    
   120   59   60 am   BACKBONE|DICT|INTERRES
   121   59  184 1    
   122   60   61 2    
   123   60   62 1    
   124   62   63 1    
   125   62   64 1    
   126   62  185 1    
   127   63  186 1    
   128   63  187 1    
   129   63  188 1    
   130   64   65 am   BACKBONE|DICT|INTERRES
   131   64  189 1    
   132   65   66 2    
   133   67   68 2    
   134   67   69 am   BACKBONE|DICT|INTERRES
   135   69   70 1    
   136   69  190 1    
   137   70   71 1    
   138   70   72 1    
   139   70  191 1    
   140   71  192 1    
   141   71  193 1    
   142   71  194 1    
   143   72   73 2    
   144   72   74 am   BACKBONE|DICT|INTERRES
   145   74   75 1    
   146   74  195 1    
   147   75   76 1    
   148   75   77 1    
   149   75  196 1    
   150   76  197 1    
   151   76  198 1    
   152   76  199 1    
   153   77   78 2    
   154   77   79 am   BACKBONE|DICT|INTERRES
   155   79   80 1    
   156   79  200 1    
   157   80   81 1    
   158   80   82 1    
   159   80  201 1    
   160   81  202 1    
   161   81  203 1    
   162   81  204 1    
   163   82   83 2    
   164   82   84 am   BACKBONE|DICT|INTERRES
   165   84   85 1    
   166   84  205 1    
   167   85   86 1    
   168   85   87 1    
   169   85  206 1    
   170   86  207 1    
   171   86  208 1    
   172   86  209 1    
   173   87   88 2    
   174   87   89 am   BACKBONE|DICT|INTERRES
   175   89   90 1    
   176   89  210 1    
   177   90   91 1    
   178   90   92 1    
   179   90  211 1    
   180   91  212 1    
   181   91  213 1    
   182   91  214 1    
   183   92   93 2    
   184   92   94 am   BACKBONE|DICT|INTERRES
   185   94   95 1    
   186   94  215 1    
   187   95   96 1    
   188   95   97 1    
   189   95  216 1    
   190   96  217 1    
   191   96  218 1    
   192   96  219 1    
   193   97   98 2    
   194   97   99 am   BACKBONE|DICT|INTERRES
   195   99  100 1    
   196   99  220 1    
   197  100  101 1    
   198  100  102 1    
   199  100  221 1    
   200  101  222 1    
   201  101  223 1    
   202  101  224 1    
   203  102  103 2    
   204  102  104 am   BACKBONE|DICT|INTERRES
   205  104  105 1    
   206  104  225 1    
   207  105  106 1    
   208  105  107 1    
   209  105  226 1    
   210  106  227 1    
   211  106  228 1    
   212  106  229 1    
   213  107  108 2    
   214  107  109 am   BACKBONE|DICT|INTERRES
   215  109  110 1    
   216  109  230 1    
   217  110  111 1    
   218  110  112 1    
   219  110  231 1    
   220  111  232 1    
   221  111  233 1    
   222  111  234 1    
   223  112  113 2    
   224  112  114 am   BACKBONE|DICT|INTERRES
   225  114  115 1    
   226  114  235 1    
   227  115  116 1    
   228  115  117 1    
   229  115  236 1    
   230  116  237 1    
   231  116  238 1    
   232  116  239 1    
   233  117  118 2    
   234  117  119 am   BACKBONE|DICT|INTERRES
   235  119  120 1    
   236  119  240 1    
   237  120  121 1    
   238  120  124 1    
   239  120  241 1    
   240  121  122 am   BACKBONE|DICT|INTERRES
   241  121  123 2    
   242  122  242 1    
   243  122  243 1    
   244  124  125 1    
   245  124  244 1    
   246  124  245 1    
   247  125  126 1    
   248  126  246 1    
   249  126  247 1    
@<TRIPOS>SUBSTRUCTURE
     1 UNK         1 GROUP             0       ****    0 ROOT    
