@<TRIPOS>MOLECULE
3R540
247   249    1
SMALL
USER_CHARGES


@<TRIPOS>ATOM
      1 CA         -1.3705  -16.4161  -43.3966 C.3       0 UNK        -0.1800 
      2 C          -2.3385  -15.2829  -43.0914 C.2       0 UNK         0.5000 
      3 O          -2.7203  -15.0963  -41.9363 O.2       0 UNK        -0.5000 
      4 N          -2.7318  -14.5244  -44.1238 N.am      1 UNK        -0.5000 
      5 CA         -3.6536  -13.3807  -44.0301 C.3       1 UNK         0.1400 
      6 C6         -4.1460  -12.9027  -45.4203 C.3       23 UNK        -0.0398 
      7 S7         -4.9997  -14.2170  -46.3556 S.3       23 UNK        -0.2404 
      8 C8         -3.6809  -14.7474  -47.4993 C.3       23 UNK        -0.0205 
      9 C9         -3.7380  -16.2349  -47.8269 C.ar      23 UNK        -0.0193 
     10 C10        -3.5885  -16.6654  -49.1484 C.ar      23 UNK        -0.1150 
     11 C11        -3.5633  -18.0301  -49.4608 C.ar      23 UNK        -0.0193 
     12 C12        -3.7150  -18.9668  -48.4328 C.ar      23 UNK        -0.1150 
     13 C13        -3.8875  -18.5516  -47.1081 C.ar      23 UNK        -0.0193 
     14 C14        -3.8866  -17.1865  -46.8126 C.ar      23 UNK        -0.1150 
     15 C15        -4.0889  -19.5723  -45.9972 C.3       23 UNK        -0.0205 
     16 S16        -2.6938  -19.5610  -44.8291 S.3       23 UNK        -0.2404 
     17 C17        -2.7537  -21.2336  -44.0942 C.3       23 UNK        -0.0398 
     18 CA         -2.5148  -22.3850  -45.1054 C.3       11 UNK         0.1400 
     19 N          -1.4604  -22.0867  -46.0776 N.am      11 UNK        -0.5000 
     20 C          -1.2355  -22.7774  -47.2011 C.2       10 UNK         0.5000 
     21 O          -1.8963  -23.7545  -47.5474 O.2       10 UNK        -0.5000 
     22 CA         -0.0542  -22.3156  -48.0617 C.3       10 UNK         0.1400 
     23 CB         -0.4906  -21.1588  -48.9684 C.3       10 UNK        -0.1800 
     24 N           1.0707  -21.8932  -47.2286 N.am      10 UNK        -0.5000 
     25 C           1.8830  -22.7366  -46.5755 C.2       9 UNK         0.5000 
     26 O           1.8142  -23.9613  -46.6788 O.2       9 UNK        -0.5000 
     27 CA          2.9242  -22.1160  -45.6210 C.3       9 UNK         0.1400 
     28 CB          4.2413  -21.8477  -46.3639 C.3       9 UNK        -0.1800 
     29 N           2.4700  -20.8754  -44.9887 N.am      9 UNK        -0.5000 
     30 C           1.4403  -20.7851  -44.1355 C.2       8 UNK         0.5000 
     31 O           0.7961  -21.7579  -43.7434 O.2       8 UNK        -0.5000 
     32 CA          1.0212  -19.3708  -43.6839 C.3       8 UNK         0.1400 
     33 CB          1.7130  -19.0013  -42.3641 C.3       8 UNK        -0.1800 
     34 N           1.2593  -18.3022  -44.6624 N.am      8 UNK        -0.5000 
     35 C           0.8499  -18.2866  -45.9397 C.2       7 UNK         0.5000 
     36 O           0.2858  -19.2385  -46.4738 O.2       7 UNK        -0.5000 
     37 CA          1.1100  -17.0146  -46.7723 C.3       7 UNK         0.1400 
     38 CB         -0.1924  -16.4896  -47.3984 C.3       7 UNK        -0.1800 
     39 N           1.7448  -15.9229  -46.0293 N.am      7 UNK        -0.5000 
     40 C           3.0458  -15.8484  -45.7186 C.2       6 UNK         0.5000 
     41 O           3.8477  -16.7562  -45.9430 O.2       6 UNK        -0.5000 
     42 CA          3.5102  -14.5438  -45.0334 C.3       6 UNK         0.1400 
     43 CB          5.0267  -14.3007  -45.1774 C.3       6 UNK        -0.1800 
     44 N           2.7543  -13.3581  -45.4585 N.am      6 UNK        -0.5000 
     45 C           2.6562  -12.8574  -46.7016 C.2       5 UNK         0.5000 
     46 O           3.1772  -13.3590  -47.6979 O.2       5 UNK        -0.5000 
     47 CA          1.8480  -11.5572  -46.8451 C.3       5 UNK         0.1400 
     48 CB          0.3358  -11.8411  -46.8257 C.3       5 UNK        -0.1800 
     49 N           2.1905  -10.6066  -45.7870 N.am      5 UNK        -0.5000 
     50 C           3.2943   -9.8438  -45.7869 C.2       4 UNK         0.5000 
     51 O           4.0947   -9.7990  -46.7218 O.2       4 UNK        -0.5000 
     52 CA          3.5529   -8.9863  -44.5324 C.3       4 UNK         0.1400 
     53 CB          2.9325   -7.5907  -44.6991 C.3       4 UNK        -0.1800 
     54 N           3.0279   -9.5976  -43.3114 N.am      4 UNK        -0.5000 
     55 C           3.5577  -10.6677  -42.7008 C.2       3 UNK         0.5000 
     56 O           4.6051  -11.2091  -43.0531 O.2       3 UNK        -0.5000 
     57 CA          2.7621  -11.2485  -41.5142 C.3       3 UNK         0.1400 
     58 CB          3.2746  -10.6713  -40.1861 C.3       3 UNK        -0.1800 
     59 N           1.3184  -11.0089  -41.6200 N.am      3 UNK        -0.5000 
     60 C           0.5341  -11.5397  -42.5655 C.2       2 UNK         0.5000 
     61 O           0.9391  -12.3215  -43.4323 O.2       2 UNK        -0.5000 
     62 CA         -0.9221  -11.0619  -42.5948 C.3       2 UNK         0.1400 
     63 CB         -1.0275   -9.7079  -43.3226 C.3       2 UNK        -0.1800 
     64 N          -1.7142  -12.0673  -43.2889 N.am      2 UNK        -0.5000 
     65 C          -3.0455  -12.1935  -43.2508 C.2       1 UNK         0.5000 
     66 O          -3.7879  -11.4281  -42.6338 O.2       1 UNK        -0.5000 
     67 C          -2.2543  -23.7253  -44.3890 C.2       11 UNK         0.5000 
     68 O          -3.1889  -24.5010  -44.1906 O.2       11 UNK        -0.5000 
     69 N          -0.9783  -24.0116  -44.0908 N.am      12 UNK        -0.5000 
     70 CA         -0.4955  -25.2990  -43.5834 C.3       12 UNK         0.1400 
     71 CB          0.9823  -25.1596  -43.1888 C.3       12 UNK        -0.1800 
     72 C          -0.6821  -26.4587  -44.5852 C.2       12 UNK         0.5000 
     73 O          -0.8583  -27.6015  -44.1630 O.2       12 UNK        -0.5000 
     74 N          -0.6826  -26.1391  -45.8867 N.am      13 UNK        -0.5000 
     75 CA         -0.9911  -27.0509  -46.9911 C.3       13 UNK         0.1400 
     76 CB         -0.1517  -26.6469  -48.2161 C.3       13 UNK        -0.1800 
     77 C          -2.4996  -27.0895  -47.3285 C.2       13 UNK         0.5000 
     78 O          -2.8726  -27.6751  -48.3457 O.2       13 UNK        -0.5000 
     79 N          -3.3365  -26.4619  -46.4864 N.am      14 UNK        -0.5000 
     80 CA         -4.7980  -26.3647  -46.5668 C.3       14 UNK         0.1400 
     81 CB         -5.4498  -27.7600  -46.4642 C.3       14 UNK        -0.1800 
     82 C          -5.3142  -25.5492  -47.7716 C.2       14 UNK         0.5000 
     83 O          -6.4681  -25.7247  -48.1664 O.2       14 UNK        -0.5000 
     84 N          -4.4661  -24.6606  -48.3149 N.am      15 UNK        -0.5000 
     85 CA         -4.7096  -23.7744  -49.4572 C.3       15 UNK         0.1400 
     86 CB         -5.6746  -22.6381  -49.0641 C.3       15 UNK        -0.1800 
     87 C          -5.1532  -24.5476  -50.7160 C.2       15 UNK         0.5000 
     88 O          -6.2136  -24.2678  -51.2794 O.2       15 UNK        -0.5000 
     89 N          -4.3376  -25.5388  -51.1033 N.am      16 UNK        -0.5000 
     90 CA         -4.5284  -26.4185  -52.2582 C.3       16 UNK         0.1400 
     91 CB         -3.3403  -27.3907  -52.3395 C.3       16 UNK        -0.1800 
     92 C          -4.7003  -25.6336  -53.5747 C.2       16 UNK         0.5000 
     93 O          -3.7370  -25.0440  -54.0659 O.2       16 UNK        -0.5000 
     94 N          -5.9382  -25.6156  -54.0887 N.am      17 UNK        -0.5000 
     95 CA         -6.4014  -24.8290  -55.2381 C.3       17 UNK         0.1400 
     96 CB         -5.7722  -25.3340  -56.5538 C.3       17 UNK        -0.1800 
     97 C          -6.2829  -23.3016  -55.0220 C.2       17 UNK         0.5000 
     98 O          -6.0286  -22.5553  -55.9701 O.2       17 UNK        -0.5000 
     99 N          -6.5039  -22.8707  -53.7701 N.am      18 UNK        -0.5000 
    100 CA        -6.5641  -21.4914  -53.2863 C.3       18 UNK         0.1400 
    101 CB        -7.8482  -20.8023  -53.8009 C.3       18 UNK        -0.1800 
    102 C         -5.2670  -20.7154  -53.5820 C.2       18 UNK         0.5000 
    103 O         -4.2270  -21.0352  -53.0032 O.2       18 UNK        -0.5000 
    104 N         -5.3470  -19.7257  -54.4823 N.am      19 UNK        -0.5000 
    105 CA        -4.2567  -18.8427  -54.9009 C.3       19 UNK         0.1400 
    106 CB        -4.7997  -17.8294  -55.9191 C.3       19 UNK        -0.1800 
    107 C         -3.0260  -19.5710  -55.4727 C.2       19 UNK         0.5000 
    108 O         -1.9202  -19.0369  -55.3938 O.2       19 UNK        -0.5000 
    109 N         -3.2228  -20.7841  -56.0070 N.am      20 UNK        -0.5000 
    110 CA        -2.1576  -21.6465  -56.5174 C.3       20 UNK         0.1400 
    111 CB        -2.7896  -22.8597  -57.2106 C.3       20 UNK        -0.1800 
    112 C         -1.1618  -22.1101  -55.4347 C.2       20 UNK         0.5000 
    113 O         -0.0074  -22.3834  -55.7667 O.2       20 UNK        -0.5000 
    114 N         -1.6092  -22.1896  -54.1726 N.am      21 UNK        -0.5000 
    115 CA        -0.7725  -22.5844  -53.0420 C.3       21 UNK         0.1400 
    116 CB        -1.6556  -23.1175  -51.9041 C.3       21 UNK        -0.1800 
    117 C          0.1266  -21.4364  -52.5517 C.2       21 UNK         0.5000 
    118 O          1.2993  -21.6772  -52.2627 O.2       21 UNK        -0.5000 
    119 N         -0.4327  -20.2223  -52.4518 N.am      22 UNK        -0.5000 
    120 CA         0.2799  -19.0229  -51.9756 C.3       22 UNK         0.1400 
    121 C          1.0078  -18.2160  -53.0877 C.2       22 UNK         0.5000 
    122 N          0.6400  -18.3349  -54.3566 N.am      22 UNK        -0.7600 
    123 O          1.9465  -17.4810  -52.7935 O.2       22 UNK        -0.5000 
    124 C124       -0.6107  -18.1182  -51.0835 C.3       23 UNK        -0.0398 
    125 S125       -2.1680  -17.5835  -51.8699 S.3       23 UNK        -0.2404 
    126 C126       -3.4124  -18.5079  -50.9038 C.3       23 UNK        -0.0205 
    127 H127       -1.5862  -17.2799  -42.7676 H         1 UNK         0.0600 
    128 H128       -0.3457  -16.0996  -43.2036 H         1 UNK         0.0600 
    129 H129       -1.4467  -16.7358  -44.4348 H         1 UNK         0.0600 
    130 H130       -2.4054  -14.7463  -45.0510 H         1 UNK         0.3000 
    131 H131       -4.5267  -13.7141  -43.4648 H         1 UNK         0.0600 
    132 H132       -3.3213  -12.5015  -46.0125 H         1 UNK         0.0800 
    133 H133       -4.8554  -12.0812  -45.3038 H         1 UNK         0.0800 
    134 H134       -3.7543  -14.1477  -48.4079 H         1 UNK         0.0800 
    135 H135       -2.7008  -14.5357  -47.0734 H         1 UNK         0.0800 
    136 H136       -3.4760  -15.9349  -49.9369 H         1 UNK         0.1150 
    137 H137       -3.7098  -20.0223  -48.6656 H         1 UNK         0.1150 
    138 H138       -3.9992  -16.8682  -45.7858 H         1 UNK         0.1150 
    139 H139       -5.0109  -19.3502  -45.4585 H         1 UNK         0.0800 
    140 H140       -4.2152  -20.5637  -46.4290 H         1 UNK         0.0800 
    141 H141       -3.7144  -21.3633  -43.5933 H         1 UNK         0.0800 
    142 H142       -1.9973  -21.2551  -43.3074 H         1 UNK         0.0800 
    143 H143       -3.4366  -22.5235  -45.6732 H         1 UNK         0.0600 
    144 H144       -0.8942  -21.2694  -45.8896 H         1 UNK         0.3000 
    145 H145        0.2634  -23.1489  -48.6920 H         1 UNK         0.0600 
    146 H146        0.3471  -20.7952  -49.5609 H         1 UNK         0.0600 
    147 H147       -1.2755  -21.4711  -49.6544 H         1 UNK         0.0600 
    148 H148       -0.8932  -20.3208  -48.4008 H         1 UNK         0.0600 
    149 H149        1.1261  -20.8990  -47.0303 H         1 UNK         0.3000 
    150 H150        3.1194  -22.8431  -44.8300 H         1 UNK         0.0600 
    151 H151        4.6201  -22.7591  -46.8286 H         1 UNK         0.0600 
    152 H152        5.0122  -21.4869  -45.6829 H         1 UNK         0.0600 
    153 H153        4.1142  -21.1049  -47.1525 H         1 UNK         0.0600 
    154 H154        2.9348  -20.0234  -45.2672 H         1 UNK         0.3000 
    155 H155       -0.0534  -19.4018  -43.5004 H         1 UNK         0.0600 
    156 H156        1.5392  -19.7644  -41.6040 H         1 UNK         0.0600 
    157 H157        1.3317  -18.0596  -41.9688 H         1 UNK         0.0600 
    158 H158        2.7918  -18.9022  -42.4903 H         1 UNK         0.0600 
    159 H159        1.7420  -17.4851  -44.3221 H         1 UNK         0.3000 
    160 H160        1.7751  -17.3076  -47.5872 H         1 UNK         0.0600 
    161 H161       -0.8960  -16.1548  -46.6379 H         1 UNK         0.0600 
    162 H162       -0.6921  -17.2630  -47.9836 H         1 UNK         0.0600 
    163 H163        0.0000  -15.6529  -48.0701 H         1 UNK         0.0600 
    164 H164        1.1608  -15.1326  -45.8010 H         1 UNK         0.3000 
    165 H165        3.2984  -14.6697  -43.9707 H         1 UNK         0.0600 
    166 H166        5.3274  -14.2264  -46.2228 H         1 UNK         0.0600 
    167 H167        5.3270  -13.3803  -44.6767 H         1 UNK         0.0600 
    168 H168        5.5990  -15.1135  -44.7290 H         1 UNK         0.0600 
    169 H169        2.2380  -12.8883  -44.7193 H         1 UNK         0.3000 
    170 H170        2.0917  -11.1122  -47.8124 H         1 UNK         0.0600 
    171 H171        0.0581  -12.5162  -47.6362 H         1 UNK         0.0600 
    172 H172        0.0147  -12.3041  -45.8934 H         1 UNK         0.0600 
    173 H173       -0.2382  -10.9238  -46.9571 H         1 UNK         0.0600 
    174 H174        1.6105  -10.6183  -44.9619 H         1 UNK         0.3000 
    175 H175        4.6335   -8.8702  -44.4246 H         1 UNK         0.0600 
    176 H176        1.8472   -7.6404  -44.7972 H         1 UNK         0.0600 
    177 H177        3.1644   -6.9515  -43.8470 H         1 UNK         0.0600 
    178 H178        3.3202   -7.0952  -45.5903 H         1 UNK         0.0600 
    179 H179        2.1804   -9.2019  -42.9333 H         1 UNK         0.3000 
    180 H180        2.9268  -12.3282  -41.5053 H         1 UNK         0.0600 
    181 H181        3.1191   -9.5932  -40.1282 H         1 UNK         0.0600 
    182 H182        4.3431  -10.8557  -40.0669 H         1 UNK         0.0600 
    183 H183        2.7704  -11.1304  -39.3356 H         1 UNK         0.0600 
    184 H184        0.9171  -10.3728  -40.9454 H         1 UNK         0.3000 
    185 H185       -1.2817  -10.9653  -41.5684 H         1 UNK         0.0600 
    186 H186       -0.4189   -8.9471  -42.8326 H         1 UNK         0.0600 
    187 H187       -0.6938   -9.7812  -44.3585 H         1 UNK         0.0600 
    188 H188       -2.0531   -9.3392  -43.3300 H         1 UNK         0.0600 
    189 H189       -1.1610  -12.7613  -43.7748 H         1 UNK         0.3000 
    190 H190       -0.2790  -23.2844  -44.2168 H         1 UNK         0.3000 
    191 H191       -1.0691  -25.5416  -42.6866 H         1 UNK         0.0600 
    192 H192        1.6045  -24.9038  -44.0469 H         1 UNK         0.0600 
    193 H193        1.1178  -24.3839  -42.4347 H         1 UNK         0.0600 
    194 H194        1.3653  -26.0912  -42.7705 H         1 UNK         0.0600 
    195 H195       -0.5320  -25.1731  -46.1438 H         1 UNK         0.3000 
    196 H196       -0.7017  -28.0654  -46.7101 H         1 UNK         0.0600 
    197 H197        0.9101  -26.6099  -47.9713 H         1 UNK         0.0600 
    198 H198       -0.4385  -25.6691  -48.6017 H         1 UNK         0.0600 
    199 H199       -0.2712  -27.3651  -49.0280 H         1 UNK         0.0600 
    200 H200       -2.9301  -25.9745  -45.6972 H         1 UNK         0.3000 
    201 H201       -5.1040  -25.8025  -45.6838 H         1 UNK         0.0600 
    202 H202       -6.5308  -27.6799  -46.3444 H         1 UNK         0.0600 
    203 H203       -5.0708  -28.3102  -45.6030 H         1 UNK         0.0600 
    204 H204       -5.2655  -28.3608  -47.3552 H         1 UNK         0.0600 
    205 H205       -3.5351  -24.5810  -47.9118 H         1 UNK         0.3000 
    206 H206       -3.7502  -23.3154  -49.6984 H         1 UNK         0.0600 
    207 H207       -5.3117  -22.0999  -48.1888 H         1 UNK         0.0600 
    208 H208       -6.6726  -23.0140  -48.8365 H         1 UNK         0.0600 
    209 H209       -5.7717  -21.9131  -49.8728 H         1 UNK         0.0600 
    210 H210       -3.5133  -25.7161  -50.5483 H         1 UNK         0.3000 
    211 H211       -5.4309  -27.0057  -52.0775 H         1 UNK         0.0600 
    212 H212       -3.2665  -27.9998  -51.4380 H         1 UNK         0.0600 
    213 H213       -3.4502  -28.0715  -53.1845 H         1 UNK         0.0600 
    214 H214       -2.3944  -26.8618  -52.4641 H         1 UNK         0.0600 
    215 H215       -6.6636  -26.1107  -53.5886 H         1 UNK         0.3000 
    216 H216       -7.4734  -25.0167  -55.3126 H         1 UNK         0.0600 
    217 H217       -6.1325  -24.7644  -57.4112 H         1 UNK         0.0600 
    218 H218       -4.6862  -25.2652  -56.5458 H         1 UNK         0.0600 
    219 H219       -6.0318  -26.3776  -56.7310 H         1 UNK         0.0600 
    220 H220       -6.5976  -23.5700  -53.0383 H         1 UNK         0.3000 
    221 H221       -6.6379  -21.5501  -52.1998 H         1 UNK         0.0600 
    222 H222       -7.8846  -20.7508  -54.8897 H         1 UNK         0.0600 
    223 H223       -8.7348  -21.3436  -53.4706 H         1 UNK         0.0600 
    224 H224       -7.9338  -19.7863  -53.4131 H         1 UNK         0.0600 
    225 H225       -6.2399  -19.5678  -54.9261 H         1 UNK         0.3000 
    226 H226       -3.9293  -18.2926  -54.0196 H         1 UNK         0.0600 
    227 H227       -5.6088  -17.2357  -55.4933 H         1 UNK         0.0600 
    228 H228       -4.0195  -17.1341  -56.2324 H         1 UNK         0.0600 
    229 H229       -5.1786  -18.3236  -56.8146 H         1 UNK         0.0600 
    230 H230       -4.1608  -21.1662  -56.0133 H         1 UNK         0.3000 
    231 H231       -1.5965  -21.0787  -57.2624 H         1 UNK         0.0600 
    232 H232       -2.0278  -23.4945  -57.6647 H         1 UNK         0.0600 
    233 H233       -3.4785  -22.5570  -57.9993 H         1 UNK         0.0600 
    234 H234       -3.3409  -23.4681  -56.4951 H         1 UNK         0.0600 
    235 H235       -2.5702  -21.9391  -53.9675 H         1 UNK         0.3000 
    236 H236       -0.1215  -23.4025  -53.3583 H         1 UNK         0.0600 
    237 H237       -2.2118  -23.9962  -52.2241 H         1 UNK         0.0600 
    238 H238       -1.0525  -23.4181  -51.0468 H         1 UNK         0.0600 
    239 H239       -2.3745  -22.3713  -51.5661 H         1 UNK         0.0600 
    240 H240       -1.3908  -20.0901  -52.7412 H         1 UNK         0.3000 
    241 H241        1.0869  -19.3578  -51.3211 H         1 UNK         0.0600 
    242 H242        1.1353  -17.8107  -55.0593 H         1 UNK         0.3800 
    243 H243       -0.2064  -18.8326  -54.6180 H         1 UNK         0.3800 
    244 H244       -0.8467  -18.6414  -50.1582 H         1 UNK         0.0800 
    245 H245       -0.0626  -17.2276  -50.7709 H         1 UNK         0.0800 
    246 H246       -4.3788  -18.4110  -51.3993 H         1 UNK         0.0800 
    247 H247       -3.1575  -19.5686  -50.9329 H         1 UNK         0.0800 
@<TRIPOS>BOND
     1    1    2 1    
     2    1  127 1    
     3    1  128 1    
     4    1  129 1    
     5    2    3 2    
     6    2    4 am   BACKBONE|DICT|INTERRES
     7    4    5 1    
     8    4  130 1    
     9    5    6 1    
    10    5   65 1    
    11    5  131 1    
    12    6    7 1    
    13    6  132 1    
    14    6  133 1    
    15    7    8 1    
    16    8    9 1    
    17    8  134 1    
    18    8  135 1    
    19    9   10 ar   
    20    9   14 ar   
    21   10   11 ar   
    22   10  136 1    
    23   11   12 ar   
    24   11  126 1    
    25   12   13 ar   
    26   12  137 1    
    27   13   14 ar   
    28   13   15 1    
    29   14  138 1    
    30   15   16 1    
    31   15  139 1    
    32   15  140 1    
    33   16   17 1    
    34   17   18 1    
    35   17  141 1    
    36   17  142 1    
    37   18   19 1    
    38   18   67 1    
    39   18  143 1    
    40   19   20 am   BACKBONE|DICT|INTERRES
    41   19  144 1    
    42   20   21 2    
    43   20   22 1    
    44   22   23 1    
    45   22   24 1    
    46   22  145 1    
    47   23  146 1    
    48   23  147 1    
    49   23  148 1    
    50   24   25 am   BACKBONE|DICT|INTERRES
    51   24  149 1    
    52   25   26 2    
    53   25   27 1    
    54   27   28 1    
    55   27   29 1    
    56   27  150 1    
    57   28  151 1    
    58   28  152 1    
    59   28  153 1    
    60   29   30 am   BACKBONE|DICT|INTERRES
    61   29  154 1    
    62   30   31 2    
    63   30   32 1    
    64   32   33 1    
    65   32   34 1    
    66   32  155 1    
    67   33  156 1    
    68   33  157 1    
    69   33  158 1    
    70   34   35 am   BACKBONE|DICT|INTERRES
    71   34  159 1    
    72   35   36 2    
    73   35   37 1    
    74   37   38 1    
    75   37   39 1    
    76   37  160 1    
    77   38  161 1    
    78   38  162 1    
    79   38  163 1    
    80   39   40 am   BACKBONE|DICT|INTERRES
    81   39  164 1    
    82   40   41 2    
    83   40   42 1    
    84   42   43 1    
    85   42   44 1    
    86   42  165 1    
    87   43  166 1    
    88   43  167 1    
    89   43  168 1    
    90   44   45 am   BACKBONE|DICT|INTERRES
    91   44  169 1    
    92   45   46 2    
    93   45   47 1    
    94   47   48 1    
    95   47   49 1    
    96   47  170 1    
    97   48  171 1    
    98   48  172 1    
    99   48  173 1    
   100   49   50 am   BACKBONE|DICT|INTERRES
   101   49  174 1    
   102   50   51 2    
   103   50   52 1    
   104   52   53 1    
   105   52   54 1    
   106   52  175 1    
   107   53  176 1    
   108   53  177 1    
   109   53  178 1    
   110   54   55 am   BACKBONE|DICT|INTERRES
   111   54  179 1    
   112   55   56 2    
   113   55   57 1    
   114   57   58 1    
   115   57   59 1    
   116   57  180 1    
   117   58  181 1    
   118   58  182 1    
   119   58  183 1    
   120   59   60 am   BACKBONE|DICT|INTERRES
   121   59  184 1    
   122   60   61 2    
   123   60   62 1    
   124   62   63 1    
   125   62   64 1    
   126   62  185 1    
   127   63  186 1    
   128   63  187 1    
   129   63  188 1    
   130   64   65 am   BACKBONE|DICT|INTERRES
   131   64  189 1    
   132   65   66 2    
   133   67   68 2    
   134   67   69 am   BACKBONE|DICT|INTERRES
   135   69   70 1    
   136   69  190 1    
   137   70   71 1    
   138   70   72 1    
   139   70  191 1    
   140   71  192 1    
   141   71  193 1    
   142   71  194 1    
   143   72   73 2    
   144   72   74 am   BACKBONE|DICT|INTERRES
   145   74   75 1    
   146   74  195 1    
   147   75   76 1    
   148   75   77 1    
   149   75  196 1    
   150   76  197 1    
   151   76  198 1    
   152   76  199 1    
   153   77   78 2    
   154   77   79 am   BACKBONE|DICT|INTERRES
   155   79   80 1    
   156   79  200 1    
   157   80   81 1    
   158   80   82 1    
   159   80  201 1    
   160   81  202 1    
   161   81  203 1    
   162   81  204 1    
   163   82   83 2    
   164   82   84 am   BACKBONE|DICT|INTERRES
   165   84   85 1    
   166   84  205 1    
   167   85   86 1    
   168   85   87 1    
   169   85  206 1    
   170   86  207 1    
   171   86  208 1    
   172   86  209 1    
   173   87   88 2    
   174   87   89 am   BACKBONE|DICT|INTERRES
   175   89   90 1    
   176   89  210 1    
   177   90   91 1    
   178   90   92 1    
   179   90  211 1    
   180   91  212 1    
   181   91  213 1    
   182   91  214 1    
   183   92   93 2    
   184   92   94 am   BACKBONE|DICT|INTERRES
   185   94   95 1    
   186   94  215 1    
   187   95   96 1    
   188   95   97 1    
   189   95  216 1    
   190   96  217 1    
   191   96  218 1    
   192   96  219 1    
   193   97   98 2    
   194   97   99 am   BACKBONE|DICT|INTERRES
   195   99  100 1    
   196   99  220 1    
   197  100  101 1    
   198  100  102 1    
   199  100  221 1    
   200  101  222 1    
   201  101  223 1    
   202  101  224 1    
   203  102  103 2    
   204  102  104 am   BACKBONE|DICT|INTERRES
   205  104  105 1    
   206  104  225 1    
   207  105  106 1    
   208  105  107 1    
   209  105  226 1    
   210  106  227 1    
   211  106  228 1    
   212  106  229 1    
   213  107  108 2    
   214  107  109 am   BACKBONE|DICT|INTERRES
   215  109  110 1    
   216  109  230 1    
   217  110  111 1    
   218  110  112 1    
   219  110  231 1    
   220  111  232 1    
   221  111  233 1    
   222  111  234 1    
   223  112  113 2    
   224  112  114 am   BACKBONE|DICT|INTERRES
   225  114  115 1    
   226  114  235 1    
   227  115  116 1    
   228  115  117 1    
   229  115  236 1    
   230  116  237 1    
   231  116  238 1    
   232  116  239 1    
   233  117  118 2    
   234  117  119 am   BACKBONE|DICT|INTERRES
   235  119  120 1    
   236  119  240 1    
   237  120  121 1    
   238  120  124 1    
   239  120  241 1    
   240  121  122 am   BACKBONE|DICT|INTERRES
   241  121  123 2    
   242  122  242 1    
   243  122  243 1    
   244  124  125 1    
   245  124  244 1    
   246  124  245 1    
   247  125  126 1    
   248  126  246 1    
   249  126  247 1    
@<TRIPOS>SUBSTRUCTURE
     1 UNK         1 GROUP             0       ****    0 ROOT    
