@<TRIPOS>MOLECULE
3R540
247   249    1
SMALL
USER_CHARGES


@<TRIPOS>ATOM
      1 CA          0.5733  -11.9056  -52.4087 C.3       0 UNK        -0.1800 
      2 C           0.8214  -11.5636  -50.9460 C.2       0 UNK         0.5000 
      3 O           0.6683  -10.4071  -50.5513 O.2       0 UNK        -0.5000 
      4 N           1.2109  -12.5623  -50.1464 N.am      1 UNK        -0.5000 
      5 CA          1.4111  -12.4532  -48.6990 C.3       1 UNK         0.1400 
      6 C6          2.3948  -13.5345  -48.1774 C.3       23 UNK        -0.0398 
      7 S7          1.8562  -15.2580  -48.4620 S.3       23 UNK        -0.2404 
      8 C8          2.9482  -15.7423  -49.8311 C.3       23 UNK        -0.0205 
      9 C9          2.5765  -17.1151  -50.3643 C.ar      23 UNK        -0.0193 
     10 C10         1.6278  -17.2420  -51.3823 C.ar      23 UNK        -0.1150 
     11 C11         1.2978  -18.5011  -51.8921 C.ar      23 UNK        -0.0193 
     12 C12         1.9107  -19.6412  -51.3637 C.ar      23 UNK        -0.1150 
     13 C13         2.8576  -19.5263  -50.3410 C.ar      23 UNK        -0.0193 
     14 C14         3.1900  -18.2598  -49.8503 C.ar      23 UNK        -0.1150 
     15 C15         3.5412  -20.7648  -49.7796 C.3       23 UNK        -0.0205 
     16 S16         3.2084  -20.9827  -48.0038 S.3       23 UNK        -0.2404 
     17 C17         1.4363  -21.4132  -47.9973 C.3       23 UNK        -0.0398 
     18 CA          1.1853  -22.7916  -47.3436 C.3       11 UNK         0.1400 
     19 N           1.5990  -22.8073  -45.9420 N.am      11 UNK        -0.5000 
     20 C           1.9048  -23.9017  -45.2376 C.2       10 UNK         0.5000 
     21 O           1.8894  -25.0402  -45.7106 O.2       10 UNK        -0.5000 
     22 CA          2.2931  -23.6750  -43.7606 C.3       10 UNK         0.1400 
     23 CB          3.0056  -24.8859  -43.1230 C.3       10 UNK        -0.1800 
     24 N           3.0620  -22.4434  -43.5518 N.am      10 UNK        -0.5000 
     25 C           4.2710  -22.1281  -44.0423 C.2       9 UNK         0.5000 
     26 O           4.9539  -22.8926  -44.7251 O.2       9 UNK        -0.5000 
     27 CA          4.8216  -20.7205  -43.7200 C.3       9 UNK         0.1400 
     28 CB          4.8917  -19.8563  -44.9879 C.3       9 UNK        -0.1800 
     29 N           4.0398  -20.0000  -42.7138 N.am      9 UNK        -0.5000 
     30 C           4.0775  -20.2327  -41.3957 C.2       8 UNK         0.5000 
     31 O           4.8411  -21.0393  -40.8639 O.2       8 UNK        -0.5000 
     32 CA          3.0580  -19.4639  -40.5331 C.3       8 UNK         0.1400 
     33 CB          3.6081  -18.0848  -40.1394 C.3       8 UNK        -0.1800 
     34 N           1.7577  -19.3048  -41.1915 N.am      8 UNK        -0.5000 
     35 C           0.9419  -20.3177  -41.5192 C.2       7 UNK         0.5000 
     36 O           1.1854  -21.4981  -41.2708 O.2       7 UNK        -0.5000 
     37 CA         -0.3386  -19.9640  -42.2939 C.3       7 UNK         0.1400 
     38 CB         -1.4220  -19.4428  -41.3378 C.3       7 UNK        -0.1800 
     39 N          -0.1003  -18.9921  -43.3616 N.am      7 UNK        -0.5000 
     40 C           0.6504  -19.2237  -44.4490 C.2       6 UNK         0.5000 
     41 O           1.1931  -20.3020  -44.6842 O.2       6 UNK        -0.5000 
     42 CA          0.8696  -18.0437  -45.4149 C.3       6 UNK         0.1400 
     43 CB         -0.3283  -17.8730  -46.3621 C.3       6 UNK        -0.1800 
     44 N           1.1225  -16.7870  -44.7103 N.am      6 UNK        -0.5000 
     45 C           2.1611  -16.5698  -43.8909 C.2       5 UNK         0.5000 
     46 O           3.0604  -17.3857  -43.6901 O.2       5 UNK        -0.5000 
     47 CA          2.1562  -15.2444  -43.1119 C.3       5 UNK         0.1400 
     48 CB          2.6646  -14.0836  -43.9799 C.3       5 UNK        -0.1800 
     49 N           0.8249  -14.9319  -42.5913 N.am      5 UNK        -0.5000 
     50 C           0.2308  -15.6006  -41.5927 C.2       4 UNK         0.5000 
     51 O           0.7630  -16.5259  -40.9805 O.2       4 UNK        -0.5000 
     52 CA         -1.2115  -15.1896  -41.2420 C.3       4 UNK         0.1400 
     53 CB         -1.2130  -13.9972  -40.2741 C.3       4 UNK        -0.1800 
     54 N          -2.0074  -14.8548  -42.4236 N.am      4 UNK        -0.5000 
     55 C          -2.3803  -15.7375  -43.3613 C.2       3 UNK         0.5000 
     56 O          -2.1272  -16.9393  -43.3072 O.2       3 UNK        -0.5000 
     57 CA         -3.1107  -15.1726  -44.5943 C.3       3 UNK         0.1400 
     58 CB         -4.6241  -15.1068  -44.3429 C.3       3 UNK        -0.1800 
     59 N          -2.6231  -13.8516  -45.0053 N.am      3 UNK        -0.5000 
     60 C          -1.3637  -13.5958  -45.3828 C.2       2 UNK         0.5000 
     61 O          -0.4696  -14.4453  -45.3894 O.2       2 UNK        -0.5000 
     62 CA         -1.0354  -12.1354  -45.7454 C.3       2 UNK         0.1400 
     63 CB         -0.6883  -11.3436  -44.4746 C.3       2 UNK        -0.1800 
     64 N           0.0923  -12.0475  -46.6736 N.am      2 UNK        -0.5000 
     65 C           0.0623  -12.4727  -47.9433 C.2       1 UNK         0.5000 
     66 O          -0.9632  -12.8750  -48.5019 O.2       1 UNK        -0.5000 
     67 C          -0.3005  -23.1775  -47.4585 C.2       11 UNK         0.5000 
     68 O          -1.1123  -22.7603  -46.6279 O.2       11 UNK        -0.5000 
     69 N          -0.6376  -23.9268  -48.5181 N.am      12 UNK        -0.5000 
     70 CA         -1.9853  -24.4305  -48.8066 C.3       12 UNK         0.1400 
     71 CB         -1.9318  -25.3187  -50.0587 C.3       12 UNK        -0.1800 
     72 C          -3.0490  -23.3315  -48.9831 C.2       12 UNK         0.5000 
     73 O          -4.2163  -23.5672  -48.6743 O.2       12 UNK        -0.5000 
     74 N          -2.6242  -22.1437  -49.4363 N.am      13 UNK        -0.5000 
     75 CA         -3.4659  -20.9626  -49.6366 C.3       13 UNK         0.1400 
     76 CB         -2.6144  -19.8438  -50.2568 C.3       13 UNK        -0.1800 
     77 C          -4.1657  -20.4676  -48.3547 C.2       13 UNK         0.5000 
     78 O          -5.2723  -19.9366  -48.4373 O.2       13 UNK        -0.5000 
     79 N          -3.5383  -20.6796  -47.1880 N.am      14 UNK        -0.5000 
     80 CA         -4.1146  -20.3384  -45.8861 C.3       14 UNK         0.1400 
     81 CB         -3.0148  -20.3678  -44.8183 C.3       14 UNK        -0.1800 
     82 C          -5.2763  -21.2659  -45.4852 C.2       14 UNK         0.5000 
     83 O          -6.2111  -20.8135  -44.8240 O.2       14 UNK        -0.5000 
     84 N          -5.1995  -22.5390  -45.8942 N.am      15 UNK        -0.5000 
     85 CA         -6.2298  -23.5460  -45.6494 C.3       15 UNK         0.1400 
     86 CB         -5.5821  -24.9397  -45.6331 C.3       15 UNK        -0.1800 
     87 C          -7.3470  -23.4756  -46.7032 C.2       15 UNK         0.5000 
     88 O          -8.5236  -23.5726  -46.3530 O.2       15 UNK        -0.5000 
     89 N          -6.9568  -23.3122  -47.9740 N.am      16 UNK        -0.5000 
     90 CA         -7.8574  -23.2798  -49.1248 C.3       16 UNK         0.1400 
     91 CB         -7.0317  -23.4992  -50.4017 C.3       16 UNK        -0.1800 
     92 C          -8.6590  -21.9733  -49.2501 C.2       16 UNK         0.5000 
     93 O          -9.7167  -21.9840  -49.8795 O.2       16 UNK        -0.5000 
     94 N          -8.1141  -20.8654  -48.7251 N.am      17 UNK        -0.5000 
     95 CA         -8.5607  -19.4673  -48.8434 C.3       17 UNK         0.1400 
     96 CB        -10.0011  -19.2743  -48.3316 C.3       17 UNK        -0.1800 
     97 C          -8.3710  -18.8684  -50.2548 C.2       17 UNK         0.5000 
     98 O          -8.0865  -17.6756  -50.3742 O.2       17 UNK        -0.5000 
     99 N          -8.4957  -19.7042  -51.2922 N.am      18 UNK        -0.5000 
    100 CA        -8.0793  -19.4470  -52.6684 C.3       18 UNK         0.1400 
    101 CB        -8.6924  -20.5388  -53.5620 C.3       18 UNK        -0.1800 
    102 C         -6.5418  -19.4293  -52.8060 C.2       18 UNK         0.5000 
    103 O         -5.8265  -19.7762  -51.8646 O.2       18 UNK        -0.5000 
    104 N         -6.0593  -19.0489  -53.9968 N.am      19 UNK        -0.5000 
    105 CA        -4.6356  -18.9301  -54.3330 C.3       19 UNK         0.1400 
    106 CB        -4.5096  -18.3525  -55.7508 C.3       19 UNK        -0.1800 
    107 C         -3.8312  -20.2412  -54.2130 C.2       19 UNK         0.5000 
    108 O         -2.6313  -20.1815  -53.9413 O.2       19 UNK        -0.5000 
    109 N         -4.5018  -21.3887  -54.4061 N.am      20 UNK        -0.5000 
    110 CA        -3.9841  -22.7549  -54.2731 C.3       20 UNK         0.1400 
    111 CB        -3.7796  -23.0988  -52.7811 C.3       20 UNK        -0.1800 
    112 C         -2.7287  -22.9795  -55.1405 C.2       20 UNK         0.5000 
    113 O         -2.8421  -23.0023  -56.3673 O.2       20 UNK        -0.5000 
    114 N         -1.5564  -23.0860  -54.4992 N.am      21 UNK        -0.5000 
    115 CA        -0.2381  -23.2101  -55.1264 C.3       21 UNK         0.1400 
    116 CB         0.8169  -23.3776  -54.0214 C.3       21 UNK        -0.1800 
    117 C          0.1352  -22.0304  -56.0484 C.2       21 UNK         0.5000 
    118 O          0.9129  -22.2218  -56.9842 O.2       21 UNK        -0.5000 
    119 N         -0.4367  -20.8494  -55.7837 N.am      22 UNK        -0.5000 
    120 CA        -0.3163  -19.6486  -56.6230 C.3       22 UNK         0.1400 
    121 C         -1.3753  -19.5763  -57.7641 C.2       22 UNK         0.5000 
    122 N         -2.2877  -20.5314  -57.9080 N.am      22 UNK        -0.7600 
    123 O         -1.3630  -18.6340  -58.5512 O.2       22 UNK        -0.5000 
    124 C124       -0.3174  -18.3553  -55.7681 C.3       23 UNK        -0.0398 
    125 S125        1.1003  -18.2716  -54.6239 S.3       23 UNK        -0.2404 
    126 C126        0.2974  -18.6206  -53.0292 C.3       23 UNK        -0.0205 
    127 H127        0.7610  -12.9595  -52.6163 H         1 UNK         0.0600 
    128 H128        1.2254  -11.3119  -53.0492 H         1 UNK         0.0600 
    129 H129       -0.4606  -11.6858  -52.6749 H         1 UNK         0.0600 
    130 H130        1.2599  -13.5008  -50.5136 H         1 UNK         0.3000 
    131 H131        1.8693  -11.4820  -48.4991 H         1 UNK         0.0600 
    132 H132        3.3723  -13.3841  -48.6374 H         1 UNK         0.0800 
    133 H133        2.5655  -13.4088  -47.1080 H         1 UNK         0.0800 
    134 H134        2.8891  -15.0056  -50.6332 H         1 UNK         0.0800 
    135 H135        3.9835  -15.7404  -49.4861 H         1 UNK         0.0800 
    136 H136        1.1558  -16.3592  -51.7904 H         1 UNK         0.1150 
    137 H137        1.6602  -20.6152  -51.7596 H         1 UNK         0.1150 
    138 H138        3.9241  -18.1675  -49.0620 H         1 UNK         0.1150 
    139 H139        3.2380  -21.6639  -50.3184 H         1 UNK         0.0800 
    140 H140        4.6178  -20.6680  -49.9253 H         1 UNK         0.0800 
    141 H141        1.0595  -21.3991  -49.0212 H         1 UNK         0.0800 
    142 H142        0.8980  -20.6287  -47.4646 H         1 UNK         0.0800 
    143 H143        1.7761  -23.5356  -47.8828 H         1 UNK         0.0600 
    144 H144        1.5795  -21.9081  -45.4644 H         1 UNK         0.3000 
    145 H145        1.3528  -23.5329  -43.2264 H         1 UNK         0.0600 
    146 H146        3.2514  -24.6921  -42.0788 H         1 UNK         0.0600 
    147 H147        2.3684  -25.7706  -43.1464 H         1 UNK         0.0600 
    148 H148        3.9294  -25.1355  -43.6453 H         1 UNK         0.0600 
    149 H149        2.5837  -21.7334  -43.0126 H         1 UNK         0.3000 
    150 H150        5.8381  -20.8505  -43.3433 H         1 UNK         0.0600 
    151 H151        5.4668  -20.3495  -45.7725 H         1 UNK         0.0600 
    152 H152        5.3708  -18.8983  -44.7861 H         1 UNK         0.0600 
    153 H153        3.8971  -19.6528  -45.3855 H         1 UNK         0.0600 
    154 H154        3.4282  -19.2669  -43.0600 H         1 UNK         0.3000 
    155 H155        2.8992  -20.0390  -39.6186 H         1 UNK         0.0600 
    156 H156        4.5678  -18.1775  -39.6296 H         1 UNK         0.0600 
    157 H157        2.9283  -17.5686  -39.4614 H         1 UNK         0.0600 
    158 H158        3.7588  -17.4475  -41.0110 H         1 UNK         0.0600 
    159 H159        1.4617  -18.3533  -41.3870 H         1 UNK         0.3000 
    160 H160       -0.7099  -20.8804  -42.7574 H         1 UNK         0.0600 
    161 H161       -1.1221  -18.5122  -40.8565 H         1 UNK         0.0600 
    162 H162       -1.6284  -20.1680  -40.5498 H         1 UNK         0.0600 
    163 H163       -2.3594  -19.2590  -41.8614 H         1 UNK         0.0600 
    164 H164       -0.5788  -18.1002  -43.2762 H         1 UNK         0.3000 
    165 H165        1.7503  -18.2699  -46.0200 H         1 UNK         0.0600 
    166 H166       -0.1303  -17.1083  -47.1126 H         1 UNK         0.0600 
    167 H167       -0.5497  -18.7993  -46.8926 H         1 UNK         0.0600 
    168 H168       -1.2286  -17.5806  -45.8232 H         1 UNK         0.0600 
    169 H169        0.4536  -16.0354  -44.8564 H         1 UNK         0.3000 
    170 H170        2.8372  -15.3532  -42.2650 H         1 UNK         0.0600 
    171 H171        3.6652  -14.2921  -44.3605 H         1 UNK         0.0600 
    172 H172        2.0190  -13.9070  -44.8388 H         1 UNK         0.0600 
    173 H173        2.7203  -13.1580  -43.4068 H         1 UNK         0.0600 
    174 H174        0.2950  -14.2346  -43.0920 H         1 UNK         0.3000 
    175 H175       -1.6864  -16.0359  -40.7412 H         1 UNK         0.0600 
    176 H176       -0.6400  -14.2250  -39.3742 H         1 UNK         0.0600 
    177 H177       -0.7731  -13.1079  -40.7274 H         1 UNK         0.0600 
    178 H178       -2.2260  -13.7473  -39.9581 H         1 UNK         0.0600 
    179 H179       -2.2598  -13.8857  -42.5470 H         1 UNK         0.3000 
    180 H180       -2.9348  -15.8613  -45.4230 H         1 UNK         0.0600 
    181 H181       -5.0143  -16.0843  -44.0556 H         1 UNK         0.0600 
    182 H182       -4.8706  -14.4067  -43.5437 H         1 UNK         0.0600 
    183 H183       -5.1601  -14.7960  -45.2399 H         1 UNK         0.0600 
    184 H184       -3.3007  -13.1026  -45.0102 H         1 UNK         0.3000 
    185 H185       -1.9101  -11.6840  -46.2183 H         1 UNK         0.0600 
    186 H186       -1.5155  -11.3569  -43.7638 H         1 UNK         0.0600 
    187 H187        0.1861  -11.7552  -43.9684 H         1 UNK         0.0600 
    188 H188       -0.4801  -10.2988  -44.7060 H         1 UNK         0.0600 
    189 H189        0.9687  -11.7424  -46.2778 H         1 UNK         0.3000 
    190 H190        0.0886  -24.2258  -49.1532 H         1 UNK         0.3000 
    191 H191       -2.2960  -25.0469  -47.9606 H         1 UNK         0.0600 
    192 H192       -1.5770  -24.7666  -50.9299 H         1 UNK         0.0600 
    193 H193       -2.9193  -25.7146  -50.3008 H         1 UNK         0.0600 
    194 H194       -1.2701  -26.1721  -49.9094 H         1 UNK         0.0600 
    195 H195       -1.6457  -22.0428  -49.6564 H         1 UNK         0.3000 
    196 H196       -4.2467  -21.2359  -50.3477 H         1 UNK         0.0600 
    197 H197       -3.2249  -18.9651  -50.4692 H         1 UNK         0.0600 
    198 H198       -2.1708  -20.1611  -51.2006 H         1 UNK         0.0600 
    199 H199       -1.8070  -19.5332  -49.5924 H         1 UNK         0.0600 
    200 H200       -2.6512  -21.1673  -47.1825 H         1 UNK         0.3000 
    201 H201       -4.5056  -19.3198  -45.9385 H         1 UNK         0.0600 
    202 H202       -3.4164  -20.1074  -43.8388 H         1 UNK         0.0600 
    203 H203       -2.5520  -21.3518  -44.7354 H         1 UNK         0.0600 
    204 H204       -2.2345  -19.6465  -45.0487 H         1 UNK         0.0600 
    205 H205       -4.4200  -22.8171  -46.4743 H         1 UNK         0.3000 
    206 H206       -6.6783  -23.3732  -44.6686 H         1 UNK         0.0600 
    207 H207       -4.8242  -25.0118  -44.8529 H         1 UNK         0.0600 
    208 H208       -6.3261  -25.7126  -45.4360 H         1 UNK         0.0600 
    209 H209       -5.1058  -25.1781  -46.5848 H         1 UNK         0.0600 
    210 H210       -5.9605  -23.2944  -48.1815 H         1 UNK         0.3000 
    211 H211       -8.5698  -24.1019  -49.0297 H         1 UNK         0.0600 
    212 H212       -7.6720  -23.5395  -51.2838 H         1 UNK         0.0600 
    213 H213       -6.4746  -24.4353  -50.3596 H         1 UNK         0.0600 
    214 H214       -6.3169  -22.6892  -50.5515 H         1 UNK         0.0600 
    215 H215       -7.1944  -20.9612  -48.3110 H         1 UNK         0.3000 
    216 H216       -7.9036  -18.9015  -48.1812 H         1 UNK         0.0600 
    217 H217      -10.2540  -18.2145  -48.2849 H         1 UNK         0.0600 
    218 H218      -10.1212  -19.6823  -47.3280 H         1 UNK         0.0600 
    219 H219      -10.7355  -19.7517  -48.9803 H         1 UNK         0.0600 
    220 H220       -8.7777  -20.6526  -51.0779 H         1 UNK         0.3000 
    221 H221       -8.4654  -18.4727  -52.9744 H         1 UNK         0.0600 
    222 H222       -8.3107  -21.5282  -53.3055 H         1 UNK         0.0600 
    223 H223       -9.7778  -20.5646  -53.4628 H         1 UNK         0.0600 
    224 H224       -8.4717  -20.3636  -54.6154 H         1 UNK         0.0600 
    225 H225       -6.7102  -18.7881  -54.7234 H         1 UNK         0.3000 
    226 H226       -4.1928  -18.2180  -53.6334 H         1 UNK         0.0600 
    227 H227       -3.4660  -18.1947  -56.0207 H         1 UNK         0.0600 
    228 H228       -4.9418  -19.0202  -56.4972 H         1 UNK         0.0600 
    229 H229       -5.0103  -17.3876  -55.8314 H         1 UNK         0.0600 
    230 H230       -5.4760  -21.3159  -54.6594 H         1 UNK         0.3000 
    231 H231       -4.7526  -23.4226  -54.6649 H         1 UNK         0.0600 
    232 H232       -4.7157  -23.0039  -52.2336 H         1 UNK         0.0600 
    233 H233       -3.0546  -22.4412  -52.3013 H         1 UNK         0.0600 
    234 H234       -3.4389  -24.1270  -52.6545 H         1 UNK         0.0600 
    235 H235       -1.5650  -23.0144  -53.4931 H         1 UNK         0.3000 
    236 H236       -0.2463  -24.1145  -55.7379 H         1 UNK         0.0600 
    237 H237        0.6132  -24.2562  -53.4090 H         1 UNK         0.0600 
    238 H238        1.8129  -23.5042  -54.4478 H         1 UNK         0.0600 
    239 H239        0.8502  -22.5081  -53.3637 H         1 UNK         0.0600 
    240 H240       -1.0941  -20.7799  -55.0128 H         1 UNK         0.3000 
    241 H241        0.6465  -19.6857  -57.1359 H         1 UNK         0.0600 
    242 H242       -2.3148  -21.3411  -57.2975 H         1 UNK         0.3800 
    243 H243       -2.9509  -20.4622  -58.6631 H         1 UNK         0.3800 
    244 H244       -0.2586  -17.4733  -56.4081 H         1 UNK         0.0800 
    245 H245       -1.2483  -18.2592  -55.2098 H         1 UNK         0.0800 
    246 H246       -0.1361  -19.6213  -53.0510 H         1 UNK         0.0800 
    247 H247       -0.5290  -17.9264  -52.8689 H         1 UNK         0.0800 
@<TRIPOS>BOND
     1    1    2 1    
     2    1  127 1    
     3    1  128 1    
     4    1  129 1    
     5    2    3 2    
     6    2    4 am   BACKBONE|DICT|INTERRES
     7    4    5 1    
     8    4  130 1    
     9    5    6 1    
    10    5   65 1    
    11    5  131 1    
    12    6    7 1    
    13    6  132 1    
    14    6  133 1    
    15    7    8 1    
    16    8    9 1    
    17    8  134 1    
    18    8  135 1    
    19    9   10 ar   
    20    9   14 ar   
    21   10   11 ar   
    22   10  136 1    
    23   11   12 ar   
    24   11  126 1    
    25   12   13 ar   
    26   12  137 1    
    27   13   14 ar   
    28   13   15 1    
    29   14  138 1    
    30   15   16 1    
    31   15  139 1    
    32   15  140 1    
    33   16   17 1    
    34   17   18 1    
    35   17  141 1    
    36   17  142 1    
    37   18   19 1    
    38   18   67 1    
    39   18  143 1    
    40   19   20 am   BACKBONE|DICT|INTERRES
    41   19  144 1    
    42   20   21 2    
    43   20   22 1    
    44   22   23 1    
    45   22   24 1    
    46   22  145 1    
    47   23  146 1    
    48   23  147 1    
    49   23  148 1    
    50   24   25 am   BACKBONE|DICT|INTERRES
    51   24  149 1    
    52   25   26 2    
    53   25   27 1    
    54   27   28 1    
    55   27   29 1    
    56   27  150 1    
    57   28  151 1    
    58   28  152 1    
    59   28  153 1    
    60   29   30 am   BACKBONE|DICT|INTERRES
    61   29  154 1    
    62   30   31 2    
    63   30   32 1    
    64   32   33 1    
    65   32   34 1    
    66   32  155 1    
    67   33  156 1    
    68   33  157 1    
    69   33  158 1    
    70   34   35 am   BACKBONE|DICT|INTERRES
    71   34  159 1    
    72   35   36 2    
    73   35   37 1    
    74   37   38 1    
    75   37   39 1    
    76   37  160 1    
    77   38  161 1    
    78   38  162 1    
    79   38  163 1    
    80   39   40 am   BACKBONE|DICT|INTERRES
    81   39  164 1    
    82   40   41 2    
    83   40   42 1    
    84   42   43 1    
    85   42   44 1    
    86   42  165 1    
    87   43  166 1    
    88   43  167 1    
    89   43  168 1    
    90   44   45 am   BACKBONE|DICT|INTERRES
    91   44  169 1    
    92   45   46 2    
    93   45   47 1    
    94   47   48 1    
    95   47   49 1    
    96   47  170 1    
    97   48  171 1    
    98   48  172 1    
    99   48  173 1    
   100   49   50 am   BACKBONE|DICT|INTERRES
   101   49  174 1    
   102   50   51 2    
   103   50   52 1    
   104   52   53 1    
   105   52   54 1    
   106   52  175 1    
   107   53  176 1    
   108   53  177 1    
   109   53  178 1    
   110   54   55 am   BACKBONE|DICT|INTERRES
   111   54  179 1    
   112   55   56 2    
   113   55   57 1    
   114   57   58 1    
   115   57   59 1    
   116   57  180 1    
   117   58  181 1    
   118   58  182 1    
   119   58  183 1    
   120   59   60 am   BACKBONE|DICT|INTERRES
   121   59  184 1    
   122   60   61 2    
   123   60   62 1    
   124   62   63 1    
   125   62   64 1    
   126   62  185 1    
   127   63  186 1    
   128   63  187 1    
   129   63  188 1    
   130   64   65 am   BACKBONE|DICT|INTERRES
   131   64  189 1    
   132   65   66 2    
   133   67   68 2    
   134   67   69 am   BACKBONE|DICT|INTERRES
   135   69   70 1    
   136   69  190 1    
   137   70   71 1    
   138   70   72 1    
   139   70  191 1    
   140   71  192 1    
   141   71  193 1    
   142   71  194 1    
   143   72   73 2    
   144   72   74 am   BACKBONE|DICT|INTERRES
   145   74   75 1    
   146   74  195 1    
   147   75   76 1    
   148   75   77 1    
   149   75  196 1    
   150   76  197 1    
   151   76  198 1    
   152   76  199 1    
   153   77   78 2    
   154   77   79 am   BACKBONE|DICT|INTERRES
   155   79   80 1    
   156   79  200 1    
   157   80   81 1    
   158   80   82 1    
   159   80  201 1    
   160   81  202 1    
   161   81  203 1    
   162   81  204 1    
   163   82   83 2    
   164   82   84 am   BACKBONE|DICT|INTERRES
   165   84   85 1    
   166   84  205 1    
   167   85   86 1    
   168   85   87 1    
   169   85  206 1    
   170   86  207 1    
   171   86  208 1    
   172   86  209 1    
   173   87   88 2    
   174   87   89 am   BACKBONE|DICT|INTERRES
   175   89   90 1    
   176   89  210 1    
   177   90   91 1    
   178   90   92 1    
   179   90  211 1    
   180   91  212 1    
   181   91  213 1    
   182   91  214 1    
   183   92   93 2    
   184   92   94 am   BACKBONE|DICT|INTERRES
   185   94   95 1    
   186   94  215 1    
   187   95   96 1    
   188   95   97 1    
   189   95  216 1    
   190   96  217 1    
   191   96  218 1    
   192   96  219 1    
   193   97   98 2    
   194   97   99 am   BACKBONE|DICT|INTERRES
   195   99  100 1    
   196   99  220 1    
   197  100  101 1    
   198  100  102 1    
   199  100  221 1    
   200  101  222 1    
   201  101  223 1    
   202  101  224 1    
   203  102  103 2    
   204  102  104 am   BACKBONE|DICT|INTERRES
   205  104  105 1    
   206  104  225 1    
   207  105  106 1    
   208  105  107 1    
   209  105  226 1    
   210  106  227 1    
   211  106  228 1    
   212  106  229 1    
   213  107  108 2    
   214  107  109 am   BACKBONE|DICT|INTERRES
   215  109  110 1    
   216  109  230 1    
   217  110  111 1    
   218  110  112 1    
   219  110  231 1    
   220  111  232 1    
   221  111  233 1    
   222  111  234 1    
   223  112  113 2    
   224  112  114 am   BACKBONE|DICT|INTERRES
   225  114  115 1    
   226  114  235 1    
   227  115  116 1    
   228  115  117 1    
   229  115  236 1    
   230  116  237 1    
   231  116  238 1    
   232  116  239 1    
   233  117  118 2    
   234  117  119 am   BACKBONE|DICT|INTERRES
   235  119  120 1    
   236  119  240 1    
   237  120  121 1    
   238  120  124 1    
   239  120  241 1    
   240  121  122 am   BACKBONE|DICT|INTERRES
   241  121  123 2    
   242  122  242 1    
   243  122  243 1    
   244  124  125 1    
   245  124  244 1    
   246  124  245 1    
   247  125  126 1    
   248  126  246 1    
   249  126  247 1    
@<TRIPOS>SUBSTRUCTURE
     1 UNK         1 GROUP             0       ****    0 ROOT    
