@<TRIPOS>MOLECULE
3R540
247   249    1
SMALL
USER_CHARGES


@<TRIPOS>ATOM
      1 CA          5.7686  -16.1396  -46.3014 C.3       0 UNK        -0.1800 
      2 C           4.5928  -15.7015  -47.1626 C.2       0 UNK         0.5000 
      3 O           4.3901  -14.5037  -47.3619 O.2       0 UNK        -0.5000 
      4 N           3.8127  -16.6701  -47.6594 N.am      1 UNK        -0.5000 
      5 CA          2.6539  -16.5392  -48.5580 C.3       1 UNK         0.1400 
      6 C6          2.9313  -15.7825  -49.8888 C.3       23 UNK        -0.0398 
      7 S7          4.4458  -16.3079  -50.7717 S.3       23 UNK        -0.2404 
      8 C8          3.8261  -17.5270  -51.9872 C.3       23 UNK        -0.0205 
      9 C9          3.6496  -18.9617  -51.4808 C.ar      23 UNK        -0.0193 
     10 C10         3.0985  -19.9087  -52.3510 C.ar      23 UNK        -0.1150 
     11 C11         2.9165  -21.2353  -51.9483 C.ar      23 UNK        -0.0193 
     12 C12         3.2704  -21.6134  -50.6512 C.ar      23 UNK        -0.1150 
     13 C13         3.8279  -20.6854  -49.7692 C.ar      23 UNK        -0.0193 
     14 C14         4.0375  -19.3726  -50.1988 C.ar      23 UNK        -0.1150 
     15 C15         4.2143  -21.1075  -48.3576 C.3       23 UNK        -0.0205 
     16 S16         3.4833  -20.0505  -47.0619 S.3       23 UNK        -0.2404 
     17 C17         1.6969  -20.1201  -47.4458 C.3       23 UNK        -0.0398 
     18 CA          1.0355  -21.4855  -47.1348 C.3       11 UNK         0.1400 
     19 N           1.2491  -21.9010  -45.7477 N.am      11 UNK        -0.5000 
     20 C           1.1219  -23.1579  -45.3013 C.2       10 UNK         0.5000 
     21 O           0.8035  -24.1024  -46.0255 O.2       10 UNK        -0.5000 
     22 CA          1.4286  -23.4309  -43.8133 C.3       10 UNK         0.1400 
     23 CB          2.8170  -24.0731  -43.6654 C.3       10 UNK        -0.1800 
     24 N           1.3790  -22.2339  -42.9748 N.am      10 UNK        -0.5000 
     25 C           0.2558  -21.6234  -42.5764 C.2       9 UNK         0.5000 
     26 O          -0.8729  -22.0607  -42.8019 O.2       9 UNK        -0.5000 
     27 CA          0.4133  -20.2990  -41.7994 C.3       9 UNK         0.1400 
     28 CB          0.1820  -20.5237  -40.2982 C.3       9 UNK        -0.1800 
     29 N           1.6943  -19.6048  -41.9839 N.am      9 UNK        -0.5000 
     30 C           2.1800  -19.1640  -43.1541 C.2       8 UNK         0.5000 
     31 O           1.6577  -19.4266  -44.2355 O.2       8 UNK        -0.5000 
     32 CA          3.4341  -18.2717  -43.1307 C.3       8 UNK         0.1400 
     33 CB          3.1671  -16.9494  -43.8666 C.3       8 UNK        -0.1800 
     34 N           3.8572  -17.9510  -41.7686 N.am      8 UNK        -0.5000 
     35 C           4.9547  -18.4231  -41.1639 C.2       7 UNK         0.5000 
     36 O           5.7344  -19.2188  -41.6883 O.2       7 UNK        -0.5000 
     37 CA          5.2419  -17.9208  -39.7332 C.3       7 UNK         0.1400 
     38 CB          6.3393  -16.8455  -39.7558 C.3       7 UNK        -0.1800 
     39 N           4.0650  -17.3748  -39.0534 N.am      7 UNK        -0.5000 
     40 C           3.0262  -18.1014  -38.6208 C.2       6 UNK         0.5000 
     41 O           2.9606  -19.3260  -38.7251 O.2       6 UNK        -0.5000 
     42 CA          1.8438  -17.3240  -38.0101 C.3       6 UNK         0.1400 
     43 CB          2.0192  -17.1888  -36.4901 C.3       6 UNK        -0.1800 
     44 N           1.6304  -15.9925  -38.5908 N.am      6 UNK        -0.5000 
     45 C           1.3575  -15.7504  -39.8799 C.2       5 UNK         0.5000 
     46 O           1.3552  -16.6197  -40.7541 O.2       5 UNK        -0.5000 
     47 CA          1.0789  -14.2890  -40.2670 C.3       5 UNK         0.1400 
     48 CB          2.2835  -13.6922  -41.0108 C.3       5 UNK        -0.1800 
     49 N          -0.0982  -14.2267  -41.1282 N.am      5 UNK        -0.5000 
     50 C          -1.3643  -14.2880  -40.6875 C.2       4 UNK         0.5000 
     51 O          -1.6738  -14.2364  -39.4963 O.2       4 UNK        -0.5000 
     52 CA         -2.4727  -14.4626  -41.7489 C.3       4 UNK         0.1400 
     53 CB         -3.0150  -13.0968  -42.1957 C.3       4 UNK        -0.1800 
     54 N          -2.0049  -15.1970  -42.9241 N.am      4 UNK        -0.5000 
     55 C          -1.6201  -16.4797  -42.9144 C.2       3 UNK         0.5000 
     56 O          -1.8545  -17.2452  -41.9786 O.2       3 UNK        -0.5000 
     57 CA         -0.8142  -16.9968  -44.1251 C.3       3 UNK         0.1400 
     58 CB         -1.5089  -18.1976  -44.7810 C.3       3 UNK        -0.1800 
     59 N          -0.4856  -16.0226  -45.1731 N.am      3 UNK        -0.5000 
     60 C           0.2382  -14.9040  -45.0479 C.2       2 UNK         0.5000 
     61 O           0.6524  -14.4737  -43.9709 O.2       2 UNK        -0.5000 
     62 CA          0.5489  -14.1560  -46.3579 C.3       2 UNK         0.1400 
     63 CB          1.0212  -12.7130  -46.1092 C.3       2 UNK        -0.1800 
     64 N           1.5711  -14.8536  -47.1338 N.am      2 UNK        -0.5000 
     65 C           1.4057  -15.9745  -47.8455 C.2       1 UNK         0.5000 
     66 O           0.3288  -16.5659  -47.9395 O.2       1 UNK        -0.5000 
     67 C          -0.4699  -21.4270  -47.4636 C.2       11 UNK         0.5000 
     68 O          -1.2613  -20.9820  -46.6312 O.2       11 UNK        -0.5000 
     69 N          -0.8367  -21.8307  -48.6867 N.am      12 UNK        -0.5000 
     70 CA         -2.2103  -21.7471  -49.1961 C.3       12 UNK         0.1400 
     71 CB         -2.4841  -22.9641  -50.0929 C.3       12 UNK        -0.1800 
     72 C          -2.4816  -20.4374  -49.9634 C.2       12 UNK         0.5000 
     73 O          -3.6370  -20.1538  -50.2762 O.2       12 UNK        -0.5000 
     74 N          -1.4278  -19.6613  -50.2592 N.am      13 UNK        -0.5000 
     75 CA         -1.4350  -18.4837  -51.1365 C.3       13 UNK         0.1400 
     76 CB          0.0050  -17.9758  -51.2863 C.3       13 UNK        -0.1800 
     77 C          -2.3671  -17.3326  -50.7114 C.2       13 UNK         0.5000 
     78 O          -2.7647  -16.5400  -51.5650 O.2       13 UNK        -0.5000 
     79 N          -2.7173  -17.2620  -49.4204 N.am      14 UNK        -0.5000 
     80 CA         -3.7014  -16.3149  -48.8911 C.3       14 UNK         0.1400 
     81 CB         -3.6059  -16.2924  -47.3597 C.3       14 UNK        -0.1800 
     82 C          -5.1433  -16.6372  -49.3355 C.2       14 UNK         0.5000 
     83 O          -5.9582  -15.7212  -49.4519 O.2       14 UNK        -0.5000 
     84 N          -5.4272  -17.9241  -49.5746 N.am      15 UNK        -0.5000 
     85 CA         -6.7032  -18.4235  -50.0824 C.3       15 UNK         0.1400 
     86 CB         -7.0373  -19.7397  -49.3659 C.3       15 UNK        -0.1800 
     87 C          -6.6485  -18.6250  -51.6059 C.2       15 UNK         0.5000 
     88 O          -7.6241  -18.3143  -52.2910 O.2       15 UNK        -0.5000 
     89 N          -5.5083  -19.1266  -52.1056 N.am      16 UNK        -0.5000 
     90 CA         -5.1720  -19.3607  -53.5114 C.3       16 UNK         0.1400 
     91 CB         -4.9203  -18.0178  -54.2310 C.3       16 UNK        -0.1800 
     92 C          -6.2170  -20.2569  -54.2047 C.2       16 UNK         0.5000 
     93 O          -6.2949  -21.4480  -53.9009 O.2       16 UNK        -0.5000 
     94 N          -7.0403  -19.6679  -55.0819 N.am      17 UNK        -0.5000 
     95 CA         -8.1357  -20.3262  -55.7951 C.3       17 UNK         0.1400 
     96 CB         -8.7539  -19.3308  -56.7880 C.3       17 UNK        -0.1800 
     97 C          -9.2241  -20.9180  -54.8764 C.2       17 UNK         0.5000 
     98 O          -9.8668  -21.8916  -55.2692 O.2       17 UNK        -0.5000 
     99 N          -9.3966  -20.3559  -53.6697 N.am      18 UNK        -0.5000 
    100 CA       -10.3241  -20.8700  -52.6582 C.3       18 UNK         0.1400 
    101 CB       -10.6210  -19.7749  -51.6230 C.3       18 UNK        -0.1800 
    102 C         -9.8110  -22.1536  -51.9747 C.2       18 UNK         0.5000 
    103 O        -10.6251  -22.9793  -51.5600 O.2       18 UNK        -0.5000 
    104 N         -8.4822  -22.3130  -51.8887 N.am      19 UNK        -0.5000 
    105 CA        -7.8261  -23.5378  -51.4209 C.3       19 UNK         0.1400 
    106 CB        -6.4940  -23.1730  -50.7459 C.3       19 UNK        -0.1800 
    107 C         -7.5832  -24.5403  -52.5645 C.2       19 UNK         0.5000 
    108 O         -7.3991  -25.7277  -52.2959 O.2       19 UNK        -0.5000 
    109 N         -7.5658  -24.0346  -53.8066 N.am      20 UNK        -0.5000 
    110 CA        -7.1924  -24.7098  -55.0514 C.3       20 UNK         0.1400 
    111 CB        -8.1523  -25.8739  -55.3739 C.3       20 UNK        -0.1800 
    112 C         -5.7028  -25.1143  -55.0667 C.2       20 UNK         0.5000 
    113 O         -5.3457  -26.1450  -55.6404 O.2       20 UNK        -0.5000 
    114 N         -4.8583  -24.2879  -54.4379 N.am      21 UNK        -0.5000 
    115 CA        -3.4170  -24.4695  -54.3275 C.3       21 UNK         0.1400 
    116 CB        -3.0917  -25.4274  -53.1680 C.3       21 UNK        -0.1800 
    117 C         -2.7778  -23.0976  -54.0957 C.2       21 UNK         0.5000 
    118 O         -3.3247  -22.3004  -53.3335 O.2       21 UNK        -0.5000 
    119 N         -1.6318  -22.8553  -54.7427 N.am      22 UNK        -0.5000 
    120 CA        -0.8358  -21.6156  -54.6488 C.3       22 UNK         0.1400 
    121 C         -1.5226  -20.3499  -55.2532 C.2       22 UNK         0.5000 
    122 N         -2.5297  -20.4890  -56.1071 N.am      22 UNK        -0.7600 
    123 O         -1.1221  -19.2243  -54.9710 O.2       22 UNK        -0.5000 
    124 C124       -0.2752  -21.3533  -53.2227 C.3       23 UNK        -0.0398 
    125 S125        0.6656  -22.7578  -52.5362 S.3       23 UNK        -0.2404 
    126 C126        2.3765  -22.2747  -52.9200 C.3       23 UNK        -0.0205 
    127 H127        6.7003  -16.0190  -46.8538 H         1 UNK         0.0600 
    128 H128        5.6812  -17.1839  -45.9997 H         1 UNK         0.0600 
    129 H129        5.8258  -15.5294  -45.4002 H         1 UNK         0.0600 
    130 H130        4.0269  -17.6259  -47.4074 H         1 UNK         0.3000 
    131 H131        2.3962  -17.5621  -48.8293 H         1 UNK         0.0600 
    132 H132        2.0787  -15.8749  -50.5626 H         1 UNK         0.0800 
    133 H133        3.0350  -14.7132  -49.6975 H         1 UNK         0.0800 
    134 H134        4.5355  -17.5527  -52.8154 H         1 UNK         0.0800 
    135 H135        2.8845  -17.1702  -52.4066 H         1 UNK         0.0800 
    136 H136        2.8198  -19.6122  -53.3527 H         1 UNK         0.1150 
    137 H137        3.1235  -22.6374  -50.3371 H         1 UNK         0.1150 
    138 H138        4.4979  -18.6781  -49.5139 H         1 UNK         0.1150 
    139 H139        3.9272  -22.1427  -48.1681 H         1 UNK         0.0800 
    140 H140        5.3005  -21.0714  -48.2666 H         1 UNK         0.0800 
    141 H141        1.5529  -19.8548  -48.4937 H         1 UNK         0.0800 
    142 H142        1.2126  -19.3265  -46.8733 H         1 UNK         0.0800 
    143 H143        1.4939  -22.2355  -47.7826 H         1 UNK         0.0600 
    144 H144        1.4597  -21.1518  -45.0946 H         1 UNK         0.3000 
    145 H145        0.6837  -24.1418  -43.4495 H         1 UNK         0.0600 
    146 H146        3.6075  -23.4048  -44.0097 H         1 UNK         0.0600 
    147 H147        3.0238  -24.3328  -42.6270 H         1 UNK         0.0600 
    148 H148        2.8873  -24.9921  -44.2488 H         1 UNK         0.0600 
    149 H149        2.2612  -21.8005  -42.7462 H         1 UNK         0.3000 
    150 H150       -0.3677  -19.6280  -42.1592 H         1 UNK         0.0600 
    151 H151       -0.7662  -21.0314  -40.1168 H         1 UNK         0.0600 
    152 H152        0.1459  -19.5751  -39.7633 H         1 UNK         0.0600 
    153 H153        0.9724  -21.1315  -39.8563 H         1 UNK         0.0600 
    154 H154        2.1875  -19.3492  -41.1401 H         1 UNK         0.3000 
    155 H155        4.2190  -18.8084  -43.6673 H         1 UNK         0.0600 
    156 H156        4.0612  -16.3284  -43.8972 H         1 UNK         0.0600 
    157 H157        2.8485  -17.1210  -44.8953 H         1 UNK         0.0600 
    158 H158        2.3856  -16.3750  -43.3708 H         1 UNK         0.0600 
    159 H159        3.2337  -17.3381  -41.2541 H         1 UNK         0.3000 
    160 H160        5.6077  -18.7717  -39.1546 H         1 UNK         0.0600 
    161 H161        7.2480  -17.2232  -40.2267 H         1 UNK         0.0600 
    162 H162        6.0247  -15.9614  -40.3119 H         1 UNK         0.0600 
    163 H163        6.6055  -16.5314  -38.7463 H         1 UNK         0.0600 
    164 H164        4.0333  -16.3733  -38.9314 H         1 UNK         0.3000 
    165 H165        0.9406  -17.9082  -38.1953 H         1 UNK         0.0600 
    166 H166        1.1429  -16.7317  -36.0303 H         1 UNK         0.0600 
    167 H167        2.1557  -18.1657  -36.0239 H         1 UNK         0.0600 
    168 H168        2.8884  -16.5802  -36.2375 H         1 UNK         0.0600 
    169 H169        1.6280  -15.2199  -37.9403 H         1 UNK         0.3000 
    170 H170        0.8994  -13.6979  -39.3665 H         1 UNK         0.0600 
    171 H171        3.1736  -13.6964  -40.3807 H         1 UNK         0.0600 
    172 H172        2.5192  -14.2544  -41.9155 H         1 UNK         0.0600 
    173 H173        2.0942  -12.6588  -41.3014 H         1 UNK         0.0600 
    174 H174        0.0807  -14.3208  -42.1244 H         1 UNK         0.3000 
    175 H175       -3.2887  -15.0271  -41.2930 H         1 UNK         0.0600 
    176 H176       -2.2421  -12.4936  -42.6739 H         1 UNK         0.0600 
    177 H177       -3.8380  -13.2105  -42.9016 H         1 UNK         0.0600 
    178 H178       -3.3939  -12.5304  -41.3440 H         1 UNK         0.0600 
    179 H179       -1.7591  -14.6441  -43.7313 H         1 UNK         0.3000 
    180 H180        0.1346  -17.3357  -43.7150 H         1 UNK         0.0600 
    181 H181       -1.6402  -19.0176  -44.0749 H         1 UNK         0.0600 
    182 H182       -0.9170  -18.5825  -45.6107 H         1 UNK         0.0600 
    183 H183       -2.4950  -17.9339  -45.1598 H         1 UNK         0.0600 
    184 H184       -0.6972  -16.3144  -46.1202 H         1 UNK         0.3000 
    185 H185       -0.3707  -14.1117  -46.9454 H         1 UNK         0.0600 
    186 H186        1.1674  -12.1795  -47.0486 H         1 UNK         0.0600 
    187 H187        0.2853  -12.1544  -45.5294 H         1 UNK         0.0600 
    188 H188        1.9633  -12.6859  -45.5598 H         1 UNK         0.0600 
    189 H189        2.5130  -14.4732  -47.0900 H         1 UNK         0.3000 
    190 H190       -0.1469  -22.2145  -49.3176 H         1 UNK         0.3000 
    191 H191       -2.9201  -21.7843  -48.3671 H         1 UNK         0.0600 
    192 H192       -1.8117  -22.9976  -50.9490 H         1 UNK         0.0600 
    193 H193       -3.5019  -22.9417  -50.4835 H         1 UNK         0.0600 
    194 H194       -2.3699  -23.8964  -49.5399 H         1 UNK         0.0600 
    195 H195       -0.5232  -19.9639  -49.9352 H         1 UNK         0.3000 
    196 H196       -1.7815  -18.8143  -52.1179 H         1 UNK         0.0600 
    197 H197        0.0527  -17.1077  -51.9451 H         1 UNK         0.0600 
    198 H198        0.6508  -18.7398  -51.7124 H         1 UNK         0.0600 
    199 H199        0.4244  -17.6866  -50.3249 H         1 UNK         0.0600 
    200 H200       -2.3206  -17.9287  -48.7750 H         1 UNK         0.3000 
    201 H201       -3.4525  -15.3183  -49.2622 H         1 UNK         0.0600 
    202 H202       -2.6017  -16.0260  -47.0334 H         1 UNK         0.0600 
    203 H203       -3.8604  -17.2621  -46.9313 H         1 UNK         0.0600 
    204 H204       -4.2908  -15.5568  -46.9359 H         1 UNK         0.0600 
    205 H205       -4.6789  -18.6049  -49.5117 H         1 UNK         0.3000 
    206 H206       -7.5027  -17.7108  -49.8692 H         1 UNK         0.0600 
    207 H207       -7.2217  -19.5703  -48.3051 H         1 UNK         0.0600 
    208 H208       -7.9291  -20.2096  -49.7800 H         1 UNK         0.0600 
    209 H209       -6.2183  -20.4532  -49.4481 H         1 UNK         0.0600 
    210 H210       -4.8018  -19.4410  -51.4435 H         1 UNK         0.3000 
    211 H211       -4.2332  -19.9132  -53.5182 H         1 UNK         0.0600 
    212 H212       -5.7867  -17.3566  -54.1945 H         1 UNK         0.0600 
    213 H213       -4.6593  -18.1743  -55.2783 H         1 UNK         0.0600 
    214 H214       -4.0854  -17.4877  -53.7735 H         1 UNK         0.0600 
    215 H215       -6.9354  -18.6760  -55.2374 H         1 UNK         0.3000 
    216 H216       -7.7062  -21.1539  -56.3633 H         1 UNK         0.0600 
    217 H217       -9.5577  -19.7965  -57.3599 H         1 UNK         0.0600 
    218 H218       -8.0127  -18.9744  -57.5036 H         1 UNK         0.0600 
    219 H219       -9.1740  -18.4631  -56.2776 H         1 UNK         0.0600 
    220 H220       -8.8212  -19.5625  -53.4038 H         1 UNK         0.3000 
    221 H221      -11.2655  -21.1190  -53.1528 H         1 UNK         0.0600 
    222 H222       -9.7259  -19.4712  -51.0828 H         1 UNK         0.0600 
    223 H223      -11.0407  -18.8880  -52.0980 H         1 UNK         0.0600 
    224 H224      -11.3457  -20.1222  -50.8854 H         1 UNK         0.0600 
    225 H225       -7.8793  -21.6062  -52.2880 H         1 UNK         0.3000 
    226 H226       -8.4535  -24.0359  -50.6787 H         1 UNK         0.0600 
    227 H227       -6.6677  -22.6508  -49.8069 H         1 UNK         0.0600 
    228 H228       -5.9138  -24.0656  -50.5075 H         1 UNK         0.0600 
    229 H229       -5.8729  -22.5395  -51.3810 H         1 UNK         0.0600 
    230 H230       -7.6476  -23.0288  -53.8825 H         1 UNK         0.3000 
    231 H231       -7.3085  -23.9647  -55.8397 H         1 UNK         0.0600 
    232 H232       -7.9681  -26.2637  -56.3756 H         1 UNK         0.0600 
    233 H233       -9.1917  -25.5472  -55.3398 H         1 UNK         0.0600 
    234 H234       -8.0369  -26.7038  -54.6766 H         1 UNK         0.0600 
    235 H235       -5.2094  -23.4290  -54.0241 H         1 UNK         0.3000 
    236 H236       -3.0323  -24.8852  -55.2612 H         1 UNK         0.0600 
    237 H237       -2.0139  -25.5404  -53.0445 H         1 UNK         0.0600 
    238 H238       -3.5058  -26.4200  -53.3454 H         1 UNK         0.0600 
    239 H239       -3.4948  -25.0612  -52.2228 H         1 UNK         0.0600 
    240 H240       -1.2511  -23.5694  -55.3467 H         1 UNK         0.3000 
    241 H241        0.0257  -21.7824  -55.2960 H         1 UNK         0.0600 
    242 H242       -2.8584  -21.4040  -56.3693 H         1 UNK         0.3800 
    243 H243       -2.9432  -19.6683  -56.5187 H         1 UNK         0.3800 
    244 H244        0.3649  -20.4718  -53.2213 H         1 UNK         0.0800 
    245 H245       -1.0937  -21.1341  -52.5402 H         1 UNK         0.0800 
    246 H246        3.0073  -23.1635  -52.8730 H         1 UNK         0.0800 
    247 H247        2.4357  -21.9174  -53.9492 H         1 UNK         0.0800 
@<TRIPOS>BOND
     1    1    2 1    
     2    1  127 1    
     3    1  128 1    
     4    1  129 1    
     5    2    3 2    
     6    2    4 am   BACKBONE|DICT|INTERRES
     7    4    5 1    
     8    4  130 1    
     9    5    6 1    
    10    5   65 1    
    11    5  131 1    
    12    6    7 1    
    13    6  132 1    
    14    6  133 1    
    15    7    8 1    
    16    8    9 1    
    17    8  134 1    
    18    8  135 1    
    19    9   10 ar   
    20    9   14 ar   
    21   10   11 ar   
    22   10  136 1    
    23   11   12 ar   
    24   11  126 1    
    25   12   13 ar   
    26   12  137 1    
    27   13   14 ar   
    28   13   15 1    
    29   14  138 1    
    30   15   16 1    
    31   15  139 1    
    32   15  140 1    
    33   16   17 1    
    34   17   18 1    
    35   17  141 1    
    36   17  142 1    
    37   18   19 1    
    38   18   67 1    
    39   18  143 1    
    40   19   20 am   BACKBONE|DICT|INTERRES
    41   19  144 1    
    42   20   21 2    
    43   20   22 1    
    44   22   23 1    
    45   22   24 1    
    46   22  145 1    
    47   23  146 1    
    48   23  147 1    
    49   23  148 1    
    50   24   25 am   BACKBONE|DICT|INTERRES
    51   24  149 1    
    52   25   26 2    
    53   25   27 1    
    54   27   28 1    
    55   27   29 1    
    56   27  150 1    
    57   28  151 1    
    58   28  152 1    
    59   28  153 1    
    60   29   30 am   BACKBONE|DICT|INTERRES
    61   29  154 1    
    62   30   31 2    
    63   30   32 1    
    64   32   33 1    
    65   32   34 1    
    66   32  155 1    
    67   33  156 1    
    68   33  157 1    
    69   33  158 1    
    70   34   35 am   BACKBONE|DICT|INTERRES
    71   34  159 1    
    72   35   36 2    
    73   35   37 1    
    74   37   38 1    
    75   37   39 1    
    76   37  160 1    
    77   38  161 1    
    78   38  162 1    
    79   38  163 1    
    80   39   40 am   BACKBONE|DICT|INTERRES
    81   39  164 1    
    82   40   41 2    
    83   40   42 1    
    84   42   43 1    
    85   42   44 1    
    86   42  165 1    
    87   43  166 1    
    88   43  167 1    
    89   43  168 1    
    90   44   45 am   BACKBONE|DICT|INTERRES
    91   44  169 1    
    92   45   46 2    
    93   45   47 1    
    94   47   48 1    
    95   47   49 1    
    96   47  170 1    
    97   48  171 1    
    98   48  172 1    
    99   48  173 1    
   100   49   50 am   BACKBONE|DICT|INTERRES
   101   49  174 1    
   102   50   51 2    
   103   50   52 1    
   104   52   53 1    
   105   52   54 1    
   106   52  175 1    
   107   53  176 1    
   108   53  177 1    
   109   53  178 1    
   110   54   55 am   BACKBONE|DICT|INTERRES
   111   54  179 1    
   112   55   56 2    
   113   55   57 1    
   114   57   58 1    
   115   57   59 1    
   116   57  180 1    
   117   58  181 1    
   118   58  182 1    
   119   58  183 1    
   120   59   60 am   BACKBONE|DICT|INTERRES
   121   59  184 1    
   122   60   61 2    
   123   60   62 1    
   124   62   63 1    
   125   62   64 1    
   126   62  185 1    
   127   63  186 1    
   128   63  187 1    
   129   63  188 1    
   130   64   65 am   BACKBONE|DICT|INTERRES
   131   64  189 1    
   132   65   66 2    
   133   67   68 2    
   134   67   69 am   BACKBONE|DICT|INTERRES
   135   69   70 1    
   136   69  190 1    
   137   70   71 1    
   138   70   72 1    
   139   70  191 1    
   140   71  192 1    
   141   71  193 1    
   142   71  194 1    
   143   72   73 2    
   144   72   74 am   BACKBONE|DICT|INTERRES
   145   74   75 1    
   146   74  195 1    
   147   75   76 1    
   148   75   77 1    
   149   75  196 1    
   150   76  197 1    
   151   76  198 1    
   152   76  199 1    
   153   77   78 2    
   154   77   79 am   BACKBONE|DICT|INTERRES
   155   79   80 1    
   156   79  200 1    
   157   80   81 1    
   158   80   82 1    
   159   80  201 1    
   160   81  202 1    
   161   81  203 1    
   162   81  204 1    
   163   82   83 2    
   164   82   84 am   BACKBONE|DICT|INTERRES
   165   84   85 1    
   166   84  205 1    
   167   85   86 1    
   168   85   87 1    
   169   85  206 1    
   170   86  207 1    
   171   86  208 1    
   172   86  209 1    
   173   87   88 2    
   174   87   89 am   BACKBONE|DICT|INTERRES
   175   89   90 1    
   176   89  210 1    
   177   90   91 1    
   178   90   92 1    
   179   90  211 1    
   180   91  212 1    
   181   91  213 1    
   182   91  214 1    
   183   92   93 2    
   184   92   94 am   BACKBONE|DICT|INTERRES
   185   94   95 1    
   186   94  215 1    
   187   95   96 1    
   188   95   97 1    
   189   95  216 1    
   190   96  217 1    
   191   96  218 1    
   192   96  219 1    
   193   97   98 2    
   194   97   99 am   BACKBONE|DICT|INTERRES
   195   99  100 1    
   196   99  220 1    
   197  100  101 1    
   198  100  102 1    
   199  100  221 1    
   200  101  222 1    
   201  101  223 1    
   202  101  224 1    
   203  102  103 2    
   204  102  104 am   BACKBONE|DICT|INTERRES
   205  104  105 1    
   206  104  225 1    
   207  105  106 1    
   208  105  107 1    
   209  105  226 1    
   210  106  227 1    
   211  106  228 1    
   212  106  229 1    
   213  107  108 2    
   214  107  109 am   BACKBONE|DICT|INTERRES
   215  109  110 1    
   216  109  230 1    
   217  110  111 1    
   218  110  112 1    
   219  110  231 1    
   220  111  232 1    
   221  111  233 1    
   222  111  234 1    
   223  112  113 2    
   224  112  114 am   BACKBONE|DICT|INTERRES
   225  114  115 1    
   226  114  235 1    
   227  115  116 1    
   228  115  117 1    
   229  115  236 1    
   230  116  237 1    
   231  116  238 1    
   232  116  239 1    
   233  117  118 2    
   234  117  119 am   BACKBONE|DICT|INTERRES
   235  119  120 1    
   236  119  240 1    
   237  120  121 1    
   238  120  124 1    
   239  120  241 1    
   240  121  122 am   BACKBONE|DICT|INTERRES
   241  121  123 2    
   242  122  242 1    
   243  122  243 1    
   244  124  125 1    
   245  124  244 1    
   246  124  245 1    
   247  125  126 1    
   248  126  246 1    
   249  126  247 1    
@<TRIPOS>SUBSTRUCTURE
     1 UNK         1 GROUP             0       ****    0 ROOT    
