@<TRIPOS>MOLECULE
3R540
247   249    1
SMALL
USER_CHARGES


@<TRIPOS>ATOM
      1 CA          1.0905  -11.8977  -47.3371 C.3       0 UNK        -0.1800 
      2 C           2.6009  -12.0510  -47.2301 C.2       0 UNK         0.5000 
      3 O           3.2050  -11.5450  -46.2848 O.2       0 UNK        -0.5000 
      4 N           3.2137  -12.7662  -48.1845 N.am      1 UNK        -0.5000 
      5 CA          4.6635  -13.0088  -48.2838 C.3       1 UNK         0.1400 
      6 C6          5.0662  -13.5924  -49.6666 C.3       23 UNK        -0.0398 
      7 S7          4.8302  -15.3868  -49.9683 S.3       23 UNK        -0.2404 
      8 C8          3.1158  -15.7055  -49.4496 C.3       23 UNK        -0.0205 
      9 C9          2.5891  -17.0078  -50.0284 C.ar      23 UNK        -0.0193 
     10 C10         1.5978  -16.9772  -51.0111 C.ar      23 UNK        -0.1150 
     11 C11         1.0853  -18.1634  -51.5370 C.ar      23 UNK        -0.0193 
     12 C12         1.5691  -19.3895  -51.0734 C.ar      23 UNK        -0.1150 
     13 C13         2.5691  -19.4394  -50.0969 C.ar      23 UNK        -0.0193 
     14 C14         3.0767  -18.2401  -49.5795 C.ar      23 UNK        -0.1150 
     15 C15         3.0969  -20.8002  -49.6434 C.3       23 UNK        -0.0205 
     16 S16         3.4488  -20.9380  -47.8560 S.3       23 UNK        -0.2404 
     17 C17         1.8573  -20.4598  -47.1081 C.3       23 UNK        -0.0398 
     18 CA          0.9681  -21.6572  -46.6949 C.3       11 UNK         0.1400 
     19 N           0.0270  -21.2804  -45.6368 N.am      11 UNK        -0.5000 
     20 C          -0.7870  -22.1157  -44.9783 C.2       10 UNK         0.5000 
     21 O          -0.7835  -23.3351  -45.1353 O.2       10 UNK        -0.5000 
     22 CA         -1.8133  -21.4776  -44.0219 C.3       10 UNK         0.1400 
     23 CB         -1.1968  -21.2242  -42.6386 C.3       10 UNK        -0.1800 
     24 N          -2.3761  -20.2342  -44.5542 N.am      10 UNK        -0.5000 
     25 C          -3.1469  -20.1680  -45.6497 C.2       9 UNK         0.5000 
     26 O          -3.5258  -21.1601  -46.2716 O.2       9 UNK        -0.5000 
     27 CA         -3.5128  -18.7641  -46.1695 C.3       9 UNK         0.1400 
     28 CB         -4.7161  -18.1911  -45.4068 C.3       9 UNK        -0.1800 
     29 N          -2.3892  -17.8269  -46.1022 N.am      9 UNK        -0.5000 
     30 C          -1.2529  -17.9569  -46.8020 C.2       8 UNK         0.5000 
     31 O          -1.0696  -18.8467  -47.6311 O.2       8 UNK        -0.5000 
     32 CA         -0.1060  -16.9791  -46.4727 C.3       8 UNK         0.1400 
     33 CB         -0.2515  -15.6589  -47.2430 C.3       8 UNK        -0.1800 
     34 N           0.0027  -16.7082  -45.0367 N.am      8 UNK        -0.5000 
     35 C           0.3358  -17.6315  -44.1225 C.2       7 UNK         0.5000 
     36 O           0.6499  -18.7841  -44.4095 O.2       7 UNK        -0.5000 
     37 CA          0.2493  -17.2264  -42.6413 C.3       7 UNK         0.1400 
     38 CB          1.5263  -16.5167  -42.1701 C.3       7 UNK        -0.1800 
     39 N          -0.9171  -16.3870  -42.3772 N.am      7 UNK        -0.5000 
     40 C          -2.1799  -16.8365  -42.3917 C.2       6 UNK         0.5000 
     41 O          -2.4817  -18.0148  -42.5786 O.2       6 UNK        -0.5000 
     42 CA         -3.2897  -15.7848  -42.2109 C.3       6 UNK         0.1400 
     43 CB         -3.5634  -15.5390  -40.7199 C.3       6 UNK        -0.1800 
     44 N          -2.9644  -14.5137  -42.8601 N.am      6 UNK        -0.5000 
     45 C          -2.8549  -14.3446  -44.1859 C.2       5 UNK         0.5000 
     46 O          -3.0718  -15.2338  -45.0073 O.2       5 UNK        -0.5000 
     47 CA         -2.3591  -12.9681  -44.6657 C.3       5 UNK         0.1400 
     48 CB         -3.5331  -11.9905  -44.8203 C.3       5 UNK        -0.1800 
     49 N          -1.3564  -12.3920  -43.7651 N.am      5 UNK        -0.5000 
     50 C          -0.1349  -12.9056  -43.5771 C.2       4 UNK         0.5000 
     51 O           0.2899  -13.9002  -44.1724 O.2       4 UNK        -0.5000 
     52 CA          0.7351  -12.2314  -42.5122 C.3       4 UNK         0.1400 
     53 CB          0.4674  -12.8456  -41.1252 C.3       4 UNK        -0.1800 
     54 N           2.1324  -12.3972  -42.8912 N.am      4 UNK        -0.5000 
     55 C           3.1628  -11.6940  -42.4102 C.2       3 UNK         0.5000 
     56 O           3.0511  -10.8624  -41.5078 O.2       3 UNK        -0.5000 
     57 CA          4.5378  -11.9023  -43.0753 C.3       3 UNK         0.1400 
     58 CB          5.6915  -11.9911  -42.0540 C.3       3 UNK        -0.1800 
     59 N           4.5745  -12.9927  -44.0581 N.am      3 UNK        -0.5000 
     60 C           4.6712  -14.3164  -43.8561 C.2       2 UNK         0.5000 
     61 O           4.7195  -14.8368  -42.7420 O.2       2 UNK        -0.5000 
     62 CA          4.7132  -15.2181  -45.1130 C.3       2 UNK         0.1400 
     63 CB          3.7351  -16.3974  -45.0045 C.3       2 UNK        -0.1800 
     64 N           4.3982  -14.4900  -46.3407 N.am      2 UNK        -0.5000 
     65 C           5.2629  -13.8039  -47.0988 C.2       1 UNK         0.5000 
     66 O           6.4728  -13.7506  -46.8769 O.2       1 UNK        -0.5000 
     67 C           0.2409  -22.2795  -47.9070 C.2       11 UNK         0.5000 
     68 O           0.6565  -23.3338  -48.3878 O.2       11 UNK        -0.5000 
     69 N          -0.8617  -21.6510  -48.3422 N.am      12 UNK        -0.5000 
     70 CA         -1.7522  -22.1633  -49.3851 C.3       12 UNK         0.1400 
     71 CB         -2.8315  -21.1224  -49.7114 C.3       12 UNK        -0.1800 
     72 C          -2.3949  -23.5075  -49.0013 C.2       12 UNK         0.5000 
     73 O          -2.3908  -24.4310  -49.8139 O.2       12 UNK        -0.5000 
     74 N          -2.8864  -23.6120  -47.7580 N.am      13 UNK        -0.5000 
     75 CA         -3.4626  -24.8355  -47.1978 C.3       13 UNK         0.1400 
     76 CB         -4.0800  -24.5392  -45.8234 C.3       13 UNK        -0.1800 
     77 C          -2.4477  -25.9913  -47.1124 C.2       13 UNK         0.5000 
     78 O          -2.7908  -27.1218  -47.4578 O.2       13 UNK        -0.5000 
     79 N          -1.2047  -25.6861  -46.7129 N.am      14 UNK        -0.5000 
     80 CA         -0.0765  -26.6221  -46.6954 C.3       14 UNK         0.1400 
     81 CB          1.1144  -25.9773  -45.9705 C.3       14 UNK        -0.1800 
     82 C           0.3326  -27.1000  -48.1033 C.2       14 UNK         0.5000 
     83 O           0.7356  -28.2528  -48.2603 O.2       14 UNK        -0.5000 
     84 N           0.1767  -26.2248  -49.1056 N.am      15 UNK        -0.5000 
     85 CA          0.3490  -26.5227  -50.5296 C.3       15 UNK         0.1400 
     86 CB          0.6669  -25.2147  -51.2745 C.3       15 UNK        -0.1800 
     87 C          -0.8657  -27.2441  -51.1597 C.2       15 UNK         0.5000 
     88 O          -0.8201  -27.5586  -52.3498 O.2       15 UNK        -0.5000 
     89 N          -1.9174  -27.4968  -50.3647 N.am      16 UNK        -0.5000 
     90 CA         -3.1798  -28.1559  -50.7136 C.3       16 UNK         0.1400 
     91 CB         -2.9431  -29.6106  -51.1723 C.3       16 UNK        -0.1800 
     92 C          -4.0579  -27.3441  -51.6894 C.2       16 UNK         0.5000 
     93 O          -4.8379  -27.9301  -52.4432 O.2       16 UNK        -0.5000 
     94 N          -3.9413  -26.0126  -51.6419 N.am      17 UNK        -0.5000 
     95 CA         -4.7820  -25.0666  -52.3687 C.3       17 UNK         0.1400 
     96 CB         -3.8768  -24.0022  -53.0120 C.3       17 UNK        -0.1800 
     97 C          -5.7727  -24.3994  -51.4010 C.2       17 UNK         0.5000 
     98 O          -5.5471  -24.3795  -50.1886 O.2       17 UNK        -0.5000 
     99 N          -6.8393  -23.8169  -51.9596 N.am      18 UNK        -0.5000 
    100 CA        -7.6964  -22.8646  -51.2545 C.3       18 UNK         0.1400 
    101 CB        -9.0143  -22.7061  -52.0278 C.3       18 UNK        -0.1800 
    102 C         -6.9707  -21.5129  -51.1581 C.2       18 UNK         0.5000 
    103 O         -6.2790  -21.1396  -52.1066 O.2       18 UNK        -0.5000 
    104 N         -7.1590  -20.7801  -50.0543 N.am      19 UNK        -0.5000 
    105 CA        -6.4899  -19.4982  -49.7938 C.3       19 UNK         0.1400 
    106 CB        -6.8107  -19.0427  -48.3630 C.3       19 UNK        -0.1800 
    107 C         -6.8232  -18.3871  -50.8117 C.2       19 UNK         0.5000 
    108 O         -5.9959  -17.5038  -51.0350 O.2       19 UNK        -0.5000 
    109 N         -8.0117  -18.4659  -51.4270 N.am      20 UNK        -0.5000 
    110 CA        -8.4530  -17.5727  -52.4994 C.3       20 UNK         0.1400 
    111 CB        -9.9741  -17.7084  -52.6686 C.3       20 UNK        -0.1800 
    112 C         -7.7367  -17.8384  -53.8390 C.2       20 UNK         0.5000 
    113 O         -7.5350  -16.9004  -54.6112 O.2       20 UNK        -0.5000 
    114 N         -7.3703  -19.1025  -54.0924 N.am      21 UNK        -0.5000 
    115 CA        -6.6224  -19.5286  -55.2768 C.3       21 UNK         0.1400 
    116 CB        -6.9928  -20.9827  -55.6109 C.3       21 UNK        -0.1800 
    117 C         -5.1061  -19.3973  -55.0559 C.2       21 UNK         0.5000 
    118 O         -4.3796  -19.0196  -55.9754 O.2       21 UNK        -0.5000 
    119 N         -4.6633  -19.7215  -53.8367 N.am      22 UNK        -0.5000 
    120 CA        -3.2926  -19.6805  -53.3115 C.3       22 UNK         0.1400 
    121 C         -2.3149  -20.7319  -53.9143 C.2       22 UNK         0.5000 
    122 N         -2.4316  -21.0873  -55.1863 N.am      22 UNK        -0.7600 
    123 O         -1.4576  -21.2549  -53.2094 O.2       22 UNK        -0.5000 
    124 C124       -2.6969  -18.2467  -53.3147 C.3       23 UNK        -0.0398 
    125 S125       -1.6353  -17.9334  -51.8674 S.3       23 UNK        -0.2404 
    126 C126        0.0122  -18.1167  -52.6093 C.3       23 UNK        -0.0205 
    127 H127        0.6048  -12.3628  -46.4804 H         1 UNK         0.0600 
    128 H128        0.6981  -12.3619  -48.2422 H         1 UNK         0.0600 
    129 H129        0.8206  -10.8419  -47.3512 H         1 UNK         0.0600 
    130 H130        2.6603  -13.1309  -48.9452 H         1 UNK         0.3000 
    131 H131        5.1240  -12.0200  -48.2249 H         1 UNK         0.0600 
    132 H132        4.5550  -13.0459  -50.4604 H         1 UNK         0.0800 
    133 H133        6.1265  -13.3930  -49.8304 H         1 UNK         0.0800 
    134 H134        2.4815  -14.8781  -49.7682 H         1 UNK         0.0800 
    135 H135        3.0563  -15.7539  -48.3630 H         1 UNK         0.0800 
    136 H136        1.2164  -16.0300  -51.3663 H         1 UNK         0.1150 
    137 H137        1.1666  -20.3068  -51.4811 H         1 UNK         0.1150 
    138 H138        3.8535  -18.2609  -48.8283 H         1 UNK         0.1150 
    139 H139        2.3934  -21.5890  -49.9141 H         1 UNK         0.0800 
    140 H140        4.0151  -21.0113  -50.1926 H         1 UNK         0.0800 
    141 H141        1.3209  -19.7687  -47.7567 H         1 UNK         0.0800 
    142 H142        2.1215  -19.8789  -46.2246 H         1 UNK         0.0800 
    143 H143        1.6123  -22.4291  -46.2687 H         1 UNK         0.0600 
    144 H144        0.0117  -20.2980  -45.3784 H         1 UNK         0.3000 
    145 H145       -2.6344  -22.1860  -43.8965 H         1 UNK         0.0600 
    146 H146       -1.9332  -20.8124  -41.9483 H         1 UNK         0.0600 
    147 H147       -0.8254  -22.1527  -42.2033 H         1 UNK         0.0600 
    148 H148       -0.3595  -20.5292  -42.6879 H         1 UNK         0.0600 
    149 H149       -2.1587  -19.3795  -44.0529 H         1 UNK         0.3000 
    150 H150       -3.7968  -18.8658  -47.2190 H         1 UNK         0.0600 
    151 H151       -5.5712  -18.8656  -45.4613 H         1 UNK         0.0600 
    152 H152       -5.0281  -17.2342  -45.8256 H         1 UNK         0.0600 
    153 H153       -4.4904  -18.0364  -44.3524 H         1 UNK         0.0600 
    154 H154       -2.4988  -17.0222  -45.4921 H         1 UNK         0.3000 
    155 H155        0.8273  -17.4470  -46.7932 H         1 UNK         0.0600 
    156 H156       -1.1693  -15.1349  -46.9774 H         1 UNK         0.0600 
    157 H157        0.5863  -14.9917  -47.0408 H         1 UNK         0.0600 
    158 H158       -0.2740  -15.8385  -48.3188 H         1 UNK         0.0600 
    159 H159       -0.1867  -15.7598  -44.7298 H         1 UNK         0.3000 
    160 H160        0.1467  -18.1419  -42.0548 H         1 UNK         0.0600 
    161 H161        1.7074  -15.5901  -42.7137 H         1 UNK         0.0600 
    162 H162        2.3983  -17.1557  -42.3109 H         1 UNK         0.0600 
    163 H163        1.4746  -16.2778  -41.1081 H         1 UNK         0.0600 
    164 H164       -0.7528  -15.3996  -42.2589 H         1 UNK         0.3000 
    165 H165       -4.2008  -16.1775  -42.6669 H         1 UNK         0.0600 
    166 H166       -4.3956  -14.8487  -40.5805 H         1 UNK         0.0600 
    167 H167       -3.8257  -16.4689  -40.2135 H         1 UNK         0.0600 
    168 H168       -2.6924  -15.1227  -40.2120 H         1 UNK         0.0600 
    169 H169       -2.7778  -13.7270  -42.2565 H         1 UNK         0.3000 
    170 H170       -1.8976  -13.1043  -45.6461 H         1 UNK         0.0600 
    171 H171       -4.2856  -12.3901  -45.5015 H         1 UNK         0.0600 
    172 H172       -4.0245  -11.7941  -43.8666 H         1 UNK         0.0600 
    173 H173       -3.1999  -11.0367  -45.2297 H         1 UNK         0.0600 
    174 H174       -1.6350  -11.5732  -43.2432 H         1 UNK         0.3000 
    175 H175        0.4984  -11.1656  -42.4935 H         1 UNK         0.0600 
    176 H176        0.7464  -13.8981  -41.0896 H         1 UNK         0.0600 
    177 H177        1.0285  -12.3290  -40.3466 H         1 UNK         0.0600 
    178 H178       -0.5877  -12.7743  -40.8588 H         1 UNK         0.0600 
    179 H179        2.2868  -13.0469  -43.6509 H         1 UNK         0.3000 
    180 H180        4.7072  -10.9977  -43.6610 H         1 UNK         0.0600 
    181 H181        5.5442  -12.8028  -41.3414 H         1 UNK         0.0600 
    182 H182        5.7715  -11.0690  -41.4773 H         1 UNK         0.0600 
    183 H183        6.6495  -12.1455  -42.5504 H         1 UNK         0.0600 
    184 H184        4.4635  -12.6795  -45.0158 H         1 UNK         0.3000 
    185 H185        5.7247  -15.6228  -45.1844 H         1 UNK         0.0600 
    186 H186        3.9578  -17.0187  -44.1368 H         1 UNK         0.0600 
    187 H187        2.7087  -16.0458  -44.9126 H         1 UNK         0.0600 
    188 H188        3.7902  -17.0413  -45.8827 H         1 UNK         0.0600 
    189 H189        3.4214  -14.4376  -46.5864 H         1 UNK         0.3000 
    190 H190       -1.1055  -20.7528  -47.9335 H         1 UNK         0.3000 
    191 H191       -1.1535  -22.3223  -50.2845 H         1 UNK         0.0600 
    192 H192       -3.4534  -20.8947  -48.8473 H         1 UNK         0.0600 
    193 H193       -3.4926  -21.4864  -50.4987 H         1 UNK         0.0600 
    194 H194       -2.3843  -20.1902  -50.0541 H         1 UNK         0.0600 
    195 H195       -2.8960  -22.7871  -47.1653 H         1 UNK         0.3000 
    196 H196       -4.2661  -25.1528  -47.8655 H         1 UNK         0.0600 
    197 H197       -4.5689  -25.4256  -45.4177 H         1 UNK         0.0600 
    198 H198       -4.8328  -23.7535  -45.8907 H         1 UNK         0.0600 
    199 H199       -3.3278  -24.2214  -45.1022 H         1 UNK         0.0600 
    200 H200       -1.0172  -24.7425  -46.3827 H         1 UNK         0.3000 
    201 H201       -0.3837  -27.5016  -46.1259 H         1 UNK         0.0600 
    202 H202        0.8520  -25.7032  -44.9486 H         1 UNK         0.0600 
    203 H203        1.4570  -25.0766  -46.4800 H         1 UNK         0.0600 
    204 H204        1.9586  -26.6657  -45.9167 H         1 UNK         0.0600 
    205 H205       -0.1115  -25.2792  -48.8790 H         1 UNK         0.3000 
    206 H206        1.2079  -27.1872  -50.6421 H         1 UNK         0.0600 
    207 H207        1.5366  -24.7170  -50.8449 H         1 UNK         0.0600 
    208 H208        0.8886  -25.4051  -52.3252 H         1 UNK         0.0600 
    209 H209       -0.1680  -24.5153  -51.2396 H         1 UNK         0.0600 
    210 H210       -1.8657  -27.1708  -49.4075 H         1 UNK         0.3000 
    211 H211       -3.7502  -28.2040  -49.7853 H         1 UNK         0.0600 
    212 H212       -2.4515  -29.6560  -52.1443 H         1 UNK         0.0600 
    213 H213       -3.8862  -30.1510  -51.2599 H         1 UNK         0.0600 
    214 H214       -2.3256  -30.1539  -50.4569 H         1 UNK         0.0600 
    215 H215       -3.3244  -25.5934  -50.9482 H         1 UNK         0.3000 
    216 H216       -5.3458  -25.5707  -53.1560 H         1 UNK         0.0600 
    217 H217       -4.4600  -23.2762  -53.5801 H         1 UNK         0.0600 
    218 H218       -3.1627  -24.4549  -53.6999 H         1 UNK         0.0600 
    219 H219       -3.3097  -23.4482  -52.2627 H         1 UNK         0.0600 
    220 H220       -6.9398  -23.8449  -52.9634 H         1 UNK         0.3000 
    221 H221       -7.9133  -23.2368  -50.2509 H         1 UNK         0.0600 
    222 H222       -8.8496  -22.3219  -53.0356 H         1 UNK         0.0600 
    223 H223       -9.5362  -23.6593  -52.1144 H         1 UNK         0.0600 
    224 H224       -9.6861  -22.0142  -51.5183 H         1 UNK         0.0600 
    225 H225       -7.7527  -21.1370  -49.3193 H         1 UNK         0.3000 
    226 H226       -5.4139  -19.6711  -49.8578 H         1 UNK         0.0600 
    227 H227       -6.4789  -19.7810  -47.6327 H         1 UNK         0.0600 
    228 H228       -6.3053  -18.1048  -48.1286 H         1 UNK         0.0600 
    229 H229       -7.8803  -18.8842  -48.2212 H         1 UNK         0.0600 
    230 H230       -8.6369  -19.2147  -51.1686 H         1 UNK         0.3000 
    231 H231       -8.2340  -16.5442  -52.2041 H         1 UNK         0.0600 
    232 H232      -10.3416  -17.0373  -53.4461 H         1 UNK         0.0600 
    233 H233      -10.4978  -17.4535  -51.7471 H         1 UNK         0.0600 
    234 H234      -10.2600  -18.7231  -52.9487 H         1 UNK         0.0600 
    235 H235       -7.5158  -19.8013  -53.3773 H         1 UNK         0.3000 
    236 H236       -6.8972  -18.9038  -56.1294 H         1 UNK         0.0600 
    237 H237       -8.0609  -21.0818  -55.8046 H         1 UNK         0.0600 
    238 H238       -6.4673  -21.3229  -56.5040 H         1 UNK         0.0600 
    239 H239       -6.7351  -21.6646  -54.7996 H         1 UNK         0.0600 
    240 H240       -5.3393  -20.1206  -53.1877 H         1 UNK         0.3000 
    241 H241       -3.4315  -19.9753  -52.2727 H         1 UNK         0.0600 
    242 H242       -3.1038  -20.6104  -55.7742 H         1 UNK         0.3800 
    243 H243       -1.8088  -21.7765  -55.5757 H         1 UNK         0.3800 
    244 H244       -2.1660  -18.0320  -54.2438 H         1 UNK         0.0800 
    245 H245       -3.5008  -17.5109  -53.2608 H         1 UNK         0.0800 
    246 H246        0.0526  -19.0238  -53.2129 H         1 UNK         0.0800 
    247 H247        0.1985  -17.2850  -53.2905 H         1 UNK         0.0800 
@<TRIPOS>BOND
     1    1    2 1    
     2    1  127 1    
     3    1  128 1    
     4    1  129 1    
     5    2    3 2    
     6    2    4 am   BACKBONE|DICT|INTERRES
     7    4    5 1    
     8    4  130 1    
     9    5    6 1    
    10    5   65 1    
    11    5  131 1    
    12    6    7 1    
    13    6  132 1    
    14    6  133 1    
    15    7    8 1    
    16    8    9 1    
    17    8  134 1    
    18    8  135 1    
    19    9   10 ar   
    20    9   14 ar   
    21   10   11 ar   
    22   10  136 1    
    23   11   12 ar   
    24   11  126 1    
    25   12   13 ar   
    26   12  137 1    
    27   13   14 ar   
    28   13   15 1    
    29   14  138 1    
    30   15   16 1    
    31   15  139 1    
    32   15  140 1    
    33   16   17 1    
    34   17   18 1    
    35   17  141 1    
    36   17  142 1    
    37   18   19 1    
    38   18   67 1    
    39   18  143 1    
    40   19   20 am   BACKBONE|DICT|INTERRES
    41   19  144 1    
    42   20   21 2    
    43   20   22 1    
    44   22   23 1    
    45   22   24 1    
    46   22  145 1    
    47   23  146 1    
    48   23  147 1    
    49   23  148 1    
    50   24   25 am   BACKBONE|DICT|INTERRES
    51   24  149 1    
    52   25   26 2    
    53   25   27 1    
    54   27   28 1    
    55   27   29 1    
    56   27  150 1    
    57   28  151 1    
    58   28  152 1    
    59   28  153 1    
    60   29   30 am   BACKBONE|DICT|INTERRES
    61   29  154 1    
    62   30   31 2    
    63   30   32 1    
    64   32   33 1    
    65   32   34 1    
    66   32  155 1    
    67   33  156 1    
    68   33  157 1    
    69   33  158 1    
    70   34   35 am   BACKBONE|DICT|INTERRES
    71   34  159 1    
    72   35   36 2    
    73   35   37 1    
    74   37   38 1    
    75   37   39 1    
    76   37  160 1    
    77   38  161 1    
    78   38  162 1    
    79   38  163 1    
    80   39   40 am   BACKBONE|DICT|INTERRES
    81   39  164 1    
    82   40   41 2    
    83   40   42 1    
    84   42   43 1    
    85   42   44 1    
    86   42  165 1    
    87   43  166 1    
    88   43  167 1    
    89   43  168 1    
    90   44   45 am   BACKBONE|DICT|INTERRES
    91   44  169 1    
    92   45   46 2    
    93   45   47 1    
    94   47   48 1    
    95   47   49 1    
    96   47  170 1    
    97   48  171 1    
    98   48  172 1    
    99   48  173 1    
   100   49   50 am   BACKBONE|DICT|INTERRES
   101   49  174 1    
   102   50   51 2    
   103   50   52 1    
   104   52   53 1    
   105   52   54 1    
   106   52  175 1    
   107   53  176 1    
   108   53  177 1    
   109   53  178 1    
   110   54   55 am   BACKBONE|DICT|INTERRES
   111   54  179 1    
   112   55   56 2    
   113   55   57 1    
   114   57   58 1    
   115   57   59 1    
   116   57  180 1    
   117   58  181 1    
   118   58  182 1    
   119   58  183 1    
   120   59   60 am   BACKBONE|DICT|INTERRES
   121   59  184 1    
   122   60   61 2    
   123   60   62 1    
   124   62   63 1    
   125   62   64 1    
   126   62  185 1    
   127   63  186 1    
   128   63  187 1    
   129   63  188 1    
   130   64   65 am   BACKBONE|DICT|INTERRES
   131   64  189 1    
   132   65   66 2    
   133   67   68 2    
   134   67   69 am   BACKBONE|DICT|INTERRES
   135   69   70 1    
   136   69  190 1    
   137   70   71 1    
   138   70   72 1    
   139   70  191 1    
   140   71  192 1    
   141   71  193 1    
   142   71  194 1    
   143   72   73 2    
   144   72   74 am   BACKBONE|DICT|INTERRES
   145   74   75 1    
   146   74  195 1    
   147   75   76 1    
   148   75   77 1    
   149   75  196 1    
   150   76  197 1    
   151   76  198 1    
   152   76  199 1    
   153   77   78 2    
   154   77   79 am   BACKBONE|DICT|INTERRES
   155   79   80 1    
   156   79  200 1    
   157   80   81 1    
   158   80   82 1    
   159   80  201 1    
   160   81  202 1    
   161   81  203 1    
   162   81  204 1    
   163   82   83 2    
   164   82   84 am   BACKBONE|DICT|INTERRES
   165   84   85 1    
   166   84  205 1    
   167   85   86 1    
   168   85   87 1    
   169   85  206 1    
   170   86  207 1    
   171   86  208 1    
   172   86  209 1    
   173   87   88 2    
   174   87   89 am   BACKBONE|DICT|INTERRES
   175   89   90 1    
   176   89  210 1    
   177   90   91 1    
   178   90   92 1    
   179   90  211 1    
   180   91  212 1    
   181   91  213 1    
   182   91  214 1    
   183   92   93 2    
   184   92   94 am   BACKBONE|DICT|INTERRES
   185   94   95 1    
   186   94  215 1    
   187   95   96 1    
   188   95   97 1    
   189   95  216 1    
   190   96  217 1    
   191   96  218 1    
   192   96  219 1    
   193   97   98 2    
   194   97   99 am   BACKBONE|DICT|INTERRES
   195   99  100 1    
   196   99  220 1    
   197  100  101 1    
   198  100  102 1    
   199  100  221 1    
   200  101  222 1    
   201  101  223 1    
   202  101  224 1    
   203  102  103 2    
   204  102  104 am   BACKBONE|DICT|INTERRES
   205  104  105 1    
   206  104  225 1    
   207  105  106 1    
   208  105  107 1    
   209  105  226 1    
   210  106  227 1    
   211  106  228 1    
   212  106  229 1    
   213  107  108 2    
   214  107  109 am   BACKBONE|DICT|INTERRES
   215  109  110 1    
   216  109  230 1    
   217  110  111 1    
   218  110  112 1    
   219  110  231 1    
   220  111  232 1    
   221  111  233 1    
   222  111  234 1    
   223  112  113 2    
   224  112  114 am   BACKBONE|DICT|INTERRES
   225  114  115 1    
   226  114  235 1    
   227  115  116 1    
   228  115  117 1    
   229  115  236 1    
   230  116  237 1    
   231  116  238 1    
   232  116  239 1    
   233  117  118 2    
   234  117  119 am   BACKBONE|DICT|INTERRES
   235  119  120 1    
   236  119  240 1    
   237  120  121 1    
   238  120  124 1    
   239  120  241 1    
   240  121  122 am   BACKBONE|DICT|INTERRES
   241  121  123 2    
   242  122  242 1    
   243  122  243 1    
   244  124  125 1    
   245  124  244 1    
   246  124  245 1    
   247  125  126 1    
   248  126  246 1    
   249  126  247 1    
@<TRIPOS>SUBSTRUCTURE
     1 UNK         1 GROUP             0       ****    0 ROOT    
