@<TRIPOS>MOLECULE
3R540
247   249    1
SMALL
USER_CHARGES


@<TRIPOS>ATOM
      1 CA         -1.4711  -12.1191  -47.8904 C.3       0 UNK        -0.1800 
      2 C          -0.2714  -12.5229  -47.0471 C.2       0 UNK         0.5000 
      3 O          -0.1569  -12.0906  -45.9012 O.2       0 UNK        -0.5000 
      4 N           0.6117  -13.3657  -47.5982 N.am      1 UNK        -0.5000 
      5 CA          1.8372  -13.8740  -46.9636 C.3       1 UNK         0.1400 
      6 C6          2.6699  -14.7502  -47.9366 C.3       23 UNK        -0.0398 
      7 S7          1.7161  -16.1344  -48.6518 S.3       23 UNK        -0.2404 
      8 C8          2.9683  -16.9764  -49.6643 C.3       23 UNK        -0.0205 
      9 C9          2.4155  -18.3053  -50.1493 C.ar      23 UNK        -0.0193 
     10 C10         1.8283  -18.4114  -51.4109 C.ar      23 UNK        -0.1150 
     11 C11         1.2492  -19.6144  -51.8230 C.ar      23 UNK        -0.0193 
     12 C12         1.2404  -20.7100  -50.9528 C.ar      23 UNK        -0.1150 
     13 C13         1.8200  -20.6174  -49.6819 C.ar      23 UNK        -0.0193 
     14 C14         2.4388  -19.4185  -49.3067 C.ar      23 UNK        -0.1150 
     15 C15         1.7377  -21.8149  -48.7306 C.3       23 UNK        -0.0205 
     16 S16         1.7070  -21.4037  -46.9427 S.3       23 UNK        -0.2404 
     17 C17         0.2916  -20.2554  -46.8423 C.3       23 UNK        -0.0398 
     18 CA         -1.0246  -20.9738  -46.4674 C.3       11 UNK         0.1400 
     19 N          -1.0552  -21.3996  -45.0592 N.am      11 UNK        -0.5000 
     20 C          -1.9587  -22.2380  -44.5246 C.2       10 UNK         0.5000 
     21 O          -2.9041  -22.7033  -45.1575 O.2       10 UNK        -0.5000 
     22 CA         -1.8355  -22.5750  -43.0270 C.3       10 UNK         0.1400 
     23 CB         -0.9909  -23.8436  -42.8373 C.3       10 UNK        -0.1800 
     24 N          -1.2639  -21.4965  -42.2233 N.am      10 UNK        -0.5000 
     25 C          -1.7694  -20.2612  -42.0929 C.2       9 UNK         0.5000 
     26 O          -2.8301  -19.8971  -42.6009 O.2       9 UNK        -0.5000 
     27 CA         -0.9152  -19.2513  -41.2984 C.3       9 UNK         0.1400 
     28 CB         -1.3924  -19.1755  -39.8407 C.3       9 UNK        -0.1800 
     29 N           0.5244  -19.5415  -41.3183 N.am      9 UNK        -0.5000 
     30 C           1.2765  -19.6250  -42.4242 C.2       8 UNK         0.5000 
     31 O           0.8277  -19.5122  -43.5671 O.2       8 UNK        -0.5000 
     32 CA          2.7648  -19.9598  -42.2184 C.3       8 UNK         0.1400 
     33 CB          2.9658  -21.4832  -42.2118 C.3       8 UNK        -0.1800 
     34 N           3.5999  -19.3793  -43.2690 N.am      8 UNK        -0.5000 
     35 C           3.7627  -18.0656  -43.4603 C.2       7 UNK         0.5000 
     36 O           3.3060  -17.2033  -42.7038 O.2       7 UNK        -0.5000 
     37 CA          4.5579  -17.6562  -44.7098 C.3       7 UNK         0.1400 
     38 CB          3.7723  -17.9866  -45.9871 C.3       7 UNK        -0.1800 
     39 N           4.7868  -16.2196  -44.6575 N.am      7 UNK        -0.5000 
     40 C           5.9686  -15.5976  -44.7172 C.2       6 UNK         0.5000 
     41 O           7.0277  -16.1506  -45.0148 O.2       6 UNK        -0.5000 
     42 CA          5.9617  -14.1031  -44.3417 C.3       6 UNK         0.1400 
     43 CB          5.7831  -13.2263  -45.5903 C.3       6 UNK        -0.1800 
     44 N           4.8884  -13.8057  -43.3930 N.am      6 UNK        -0.5000 
     45 C           4.9306  -14.0659  -42.0791 C.2       5 UNK         0.5000 
     46 O           5.9487  -14.4370  -41.4921 O.2       5 UNK        -0.5000 
     47 CA          3.6013  -13.9145  -41.3081 C.3       5 UNK         0.1400 
     48 CB          3.7986  -13.5866  -39.8132 C.3       5 UNK        -0.1800 
     49 N           2.6714  -12.9785  -41.9485 N.am      5 UNK        -0.5000 
     50 C           2.8065  -11.6509  -42.0873 C.2       4 UNK         0.5000 
     51 O           3.7448  -11.0012  -41.6249 O.2       4 UNK        -0.5000 
     52 CA          1.7243  -10.9221  -42.9096 C.3       4 UNK         0.1400 
     53 CB          2.2959  -10.4922  -44.2702 C.3       4 UNK        -0.1800 
     54 N           0.5224  -11.7255  -43.1439 N.am      4 UNK        -0.5000 
     55 C          -0.3951  -12.0388  -42.2189 C.2       3 UNK         0.5000 
     56 O          -0.3523  -11.6501  -41.0514 O.2       3 UNK        -0.5000 
     57 CA         -1.5345  -12.9669  -42.6724 C.3       3 UNK         0.1400 
     58 CB         -2.6610  -12.1617  -43.3385 C.3       3 UNK        -0.1800 
     59 N          -1.0592  -13.9938  -43.6007 N.am      3 UNK        -0.5000 
     60 C          -0.4515  -15.1311  -43.2339 C.2       2 UNK         0.5000 
     61 O          -0.2436  -15.4489  -42.0635 O.2       2 UNK        -0.5000 
     62 CA          0.0047  -16.0667  -44.3693 C.3       2 UNK         0.1400 
     63 CB         -1.1445  -16.9975  -44.7880 C.3       2 UNK        -0.1800 
     64 N           0.4652  -15.3400  -45.5514 N.am      2 UNK        -0.5000 
     65 C           1.5810  -14.6020  -45.6244 C.2       1 UNK         0.5000 
     66 O           2.3728  -14.4564  -44.6920 O.2       1 UNK        -0.5000 
     67 C          -2.2504  -20.1426  -46.9070 C.2       11 UNK         0.5000 
     68 O          -2.4109  -19.9091  -48.1038 O.2       11 UNK        -0.5000 
     69 N          -3.1233  -19.7537  -45.9672 N.am      12 UNK        -0.5000 
     70 CA         -4.4532  -19.2207  -46.2571 C.3       12 UNK         0.1400 
     71 CB         -5.0744  -18.7021  -44.9519 C.3       12 UNK        -0.1800 
     72 C          -5.3871  -20.2508  -46.9335 C.2       12 UNK         0.5000 
     73 O          -6.3231  -19.8415  -47.6210 O.2       12 UNK        -0.5000 
     74 N          -5.1245  -21.5530  -46.7417 N.am      13 UNK        -0.5000 
     75 CA         -5.8939  -22.6573  -47.3091 C.3       13 UNK         0.1400 
     76 CB         -7.2139  -22.8428  -46.5316 C.3       13 UNK        -0.1800 
     77 C          -5.0357  -23.9350  -47.3515 C.2       13 UNK         0.5000 
     78 O          -5.4461  -24.9716  -46.8262 O.2       13 UNK        -0.5000 
     79 N          -3.8556  -23.8448  -47.9756 N.am      14 UNK        -0.5000 
     80 CA         -2.9480  -24.9653  -48.2163 C.3       14 UNK         0.1400 
     81 CB         -1.9068  -25.0687  -47.0901 C.3       14 UNK        -0.1800 
     82 C          -2.2692  -24.7684  -49.5757 C.2       14 UNK         0.5000 
     83 O          -2.1518  -23.6318  -50.0411 O.2       14 UNK        -0.5000 
     84 N          -1.8370  -25.8798  -50.1867 N.am      15 UNK        -0.5000 
     85 CA         -1.2073  -25.9574  -51.5088 C.3       15 UNK         0.1400 
     86 CB          0.2109  -25.3416  -51.4652 C.3       15 UNK        -0.1800 
     87 C          -2.1264  -25.3636  -52.5981 C.2       15 UNK         0.5000 
     88 O          -3.2902  -25.7623  -52.6889 O.2       15 UNK        -0.5000 
     89 N          -1.6243  -24.3965  -53.3755 N.am      16 UNK        -0.5000 
     90 CA         -2.3799  -23.6895  -54.4095 C.3       16 UNK         0.1400 
     91 CB         -1.4327  -22.7761  -55.1960 C.3       16 UNK        -0.1800 
     92 C          -3.5890  -22.9010  -53.8668 C.2       16 UNK         0.5000 
     93 O          -4.5853  -22.7787  -54.5774 O.2       16 UNK        -0.5000 
     94 N          -3.5179  -22.4347  -52.6106 N.am      17 UNK        -0.5000 
     95 CA         -4.6212  -21.7500  -51.9335 C.3       17 UNK         0.1400 
     96 CB         -4.0840  -20.9374  -50.7471 C.3       17 UNK        -0.1800 
     97 C          -5.7446  -22.7044  -51.4837 C.2       17 UNK         0.5000 
     98 O          -6.8649  -22.2438  -51.2689 O.2       17 UNK        -0.5000 
     99 N          -5.4468  -24.0064  -51.3581 N.am      18 UNK        -0.5000 
    100 CA        -6.4555  -25.0483  -51.1587 C.3       18 UNK         0.1400 
    101 CB        -5.8475  -26.2473  -50.4156 C.3       18 UNK        -0.1800 
    102 C         -7.0571  -25.4956  -52.5008 C.2       18 UNK         0.5000 
    103 O         -8.2636  -25.7301  -52.5741 O.2       18 UNK        -0.5000 
    104 N         -6.2080  -25.6063  -53.5335 N.am      19 UNK        -0.5000 
    105 CA        -6.5932  -26.0126  -54.8856 C.3       19 UNK         0.1400 
    106 CB        -5.3304  -26.2842  -55.7169 C.3       19 UNK        -0.1800 
    107 C         -7.4985  -24.9853  -55.5911 C.2       19 UNK         0.5000 
    108 O         -8.4875  -25.3772  -56.2124 O.2       19 UNK        -0.5000 
    109 N         -7.1521  -23.6981  -55.4768 N.am      20 UNK        -0.5000 
    110 CA        -7.8839  -22.5793  -56.0578 C.3       20 UNK         0.1400 
    111 CB        -7.5596  -22.4508  -57.5624 C.3       20 UNK        -0.1800 
    112 C         -7.5697  -21.3130  -55.2480 C.2       20 UNK         0.5000 
    113 O         -8.2403  -21.0487  -54.2500 O.2       20 UNK        -0.5000 
    114 N         -6.5559  -20.5610  -55.6836 N.am      21 UNK        -0.5000 
    115 CA        -6.0479  -19.3422  -55.0681 C.3       21 UNK         0.1400 
    116 CB        -6.9491  -18.1504  -55.4403 C.3       21 UNK        -0.1800 
    117 C         -4.6103  -19.1245  -55.5619 C.2       21 UNK         0.5000 
    118 O         -4.2227  -19.6937  -56.5871 O.2       21 UNK        -0.5000 
    119 N         -3.8556  -18.2843  -54.8505 N.am      22 UNK        -0.5000 
    120 CA        -2.4971  -17.8648  -55.2142 C.3       22 UNK         0.1400 
    121 C         -2.1386  -16.4858  -54.5936 C.2       22 UNK         0.5000 
    122 N         -1.0191  -15.8919  -54.9854 N.am      22 UNK        -0.7600 
    123 O         -2.8679  -15.9406  -53.7665 O.2       22 UNK        -0.5000 
    124 C124       -1.4358  -18.9703  -54.9541 C.3       23 UNK        -0.0398 
    125 S125       -1.1466  -19.3530  -53.1883 S.3       23 UNK        -0.2404 
    126 C126        0.6372  -19.7182  -53.2098 C.3       23 UNK        -0.0205 
    127 H127       -2.3950  -12.4035  -47.3869 H         1 UNK         0.0600 
    128 H128       -1.4563  -12.5949  -48.8712 H         1 UNK         0.0600 
    129 H129       -1.4791  -11.0389  -48.0351 H         1 UNK         0.0600 
    130 H130        0.4472  -13.7033  -48.5363 H         1 UNK         0.3000 
    131 H131        2.4407  -12.9975  -46.7212 H         1 UNK         0.0600 
    132 H132        3.0378  -14.1329  -48.7572 H         1 UNK         0.0800 
    133 H133        3.5581  -15.1459  -47.4402 H         1 UNK         0.0800 
    134 H134        3.2440  -16.3412  -50.5075 H         1 UNK         0.0800 
    135 H135        3.8776  -17.1393  -49.0858 H         1 UNK         0.0800 
    136 H136        1.8065  -17.5522  -52.0667 H         1 UNK         0.1150 
    137 H137        0.7669  -21.6314  -51.2623 H         1 UNK         0.1150 
    138 H138        2.8930  -19.3259  -48.3324 H         1 UNK         0.1150 
    139 H139        0.8441  -22.4005  -48.9548 H         1 UNK         0.0800 
    140 H140        2.5900  -22.4675  -48.9222 H         1 UNK         0.0800 
    141 H141        0.1939  -19.7315  -47.7931 H         1 UNK         0.0800 
    142 H142        0.5315  -19.4803  -46.1157 H         1 UNK         0.0800 
    143 H143       -1.0812  -21.8798  -47.0726 H         1 UNK         0.0600 
    144 H144       -0.3408  -20.9964  -44.4625 H         1 UNK         0.3000 
    145 H145       -2.8417  -22.7707  -42.6507 H         1 UNK         0.0600 
    146 H146       -0.9681  -24.1510  -41.7917 H         1 UNK         0.0600 
    147 H147       -1.4024  -24.6758  -43.4105 H         1 UNK         0.0600 
    148 H148        0.0380  -23.6948  -43.1677 H         1 UNK         0.0600 
    149 H149       -0.3856  -21.6935  -41.7680 H         1 UNK         0.3000 
    150 H150       -1.0586  -18.2695  -41.7523 H         1 UNK         0.0600 
    151 H151       -1.2420  -20.1208  -39.3177 H         1 UNK         0.0600 
    152 H152       -2.4558  -18.9373  -39.7897 H         1 UNK         0.0600 
    153 H153       -0.8612  -18.3978  -39.2916 H         1 UNK         0.0600 
    154 H154        0.9660  -19.6618  -40.4181 H         1 UNK         0.3000 
    155 H155        3.0900  -19.5539  -41.2581 H         1 UNK         0.0600 
    156 H156        2.6546  -21.9339  -43.1557 H         1 UNK         0.0600 
    157 H157        2.3853  -21.9532  -41.4169 H         1 UNK         0.0600 
    158 H158        4.0113  -21.7430  -42.0444 H         1 UNK         0.0600 
    159 H159        3.9717  -20.0239  -43.9506 H         1 UNK         0.3000 
    160 H160        5.5044  -18.2007  -44.7086 H         1 UNK         0.0600 
    161 H161        2.7956  -17.5013  -46.0000 H         1 UNK         0.0600 
    162 H162        3.6058  -19.0599  -46.0787 H         1 UNK         0.0600 
    163 H163        4.3215  -17.6676  -46.8714 H         1 UNK         0.0600 
    164 H164        3.9814  -15.6816  -44.3538 H         1 UNK         0.3000 
    165 H165        6.9235  -13.8620  -43.8842 H         1 UNK         0.0600 
    166 H166        5.8163  -12.1670  -45.3348 H         1 UNK         0.0600 
    167 H167        6.5774  -13.4121  -46.3143 H         1 UNK         0.0600 
    168 H168        4.8330  -13.4207  -46.0870 H         1 UNK         0.0600 
    169 H169        3.9849  -13.5785  -43.7922 H         1 UNK         0.3000 
    170 H170        3.1145  -14.8888  -41.3613 H         1 UNK         0.0600 
    171 H171        4.3392  -14.3875  -39.3078 H         1 UNK         0.0600 
    172 H172        4.3689  -12.6690  -39.6682 H         1 UNK         0.0600 
    173 H173        2.8410  -13.4724  -39.3052 H         1 UNK         0.0600 
    174 H174        1.8794  -13.4073  -42.4074 H         1 UNK         0.3000 
    175 H175        1.4369  -10.0259  -42.3563 H         1 UNK         0.0600 
    176 H176        3.1676   -9.8486  -44.1452 H         1 UNK         0.0600 
    177 H177        2.6054  -11.3529  -44.8639 H         1 UNK         0.0600 
    178 H178        1.5602   -9.9335  -44.8491 H         1 UNK         0.0600 
    179 H179        0.3637  -12.0266  -44.1026 H         1 UNK         0.3000 
    180 H180       -1.9461  -13.4530  -41.7852 H         1 UNK         0.0600 
    181 H181       -2.3171  -11.6496  -44.2379 H         1 UNK         0.0600 
    182 H182       -3.0518  -11.4034  -42.6588 H         1 UNK         0.0600 
    183 H183       -3.4937  -12.8072  -43.6182 H         1 UNK         0.0600 
    184 H184       -1.1358  -13.7808  -44.5853 H         1 UNK         0.3000 
    185 H185        0.8307  -16.6766  -43.9974 H         1 UNK         0.0600 
    186 H186       -1.4776  -17.6146  -43.9544 H         1 UNK         0.0600 
    187 H187       -2.0097  -16.4389  -45.1471 H         1 UNK         0.0600 
    188 H188       -0.8328  -17.6722  -45.5833 H         1 UNK         0.0600 
    189 H189       -0.1119  -15.4034  -46.3773 H         1 UNK         0.3000 
    190 H190       -2.9260  -19.9727  -44.9993 H         1 UNK         0.3000 
    191 H191       -4.3391  -18.3775  -46.9415 H         1 UNK         0.0600 
    192 H192       -4.4493  -17.9345  -44.4948 H         1 UNK         0.0600 
    193 H193       -6.0544  -18.2591  -45.1337 H         1 UNK         0.0600 
    194 H194       -5.2052  -19.5040  -44.2241 H         1 UNK         0.0600 
    195 H195       -4.3288  -21.8278  -46.1695 H         1 UNK         0.3000 
    196 H196       -6.1398  -22.4178  -48.3458 H         1 UNK         0.0600 
    197 H197       -7.7998  -23.6649  -46.9444 H         1 UNK         0.0600 
    198 H198       -7.8371  -21.9502  -46.5824 H         1 UNK         0.0600 
    199 H199       -7.0293  -23.0627  -45.4795 H         1 UNK         0.0600 
    200 H200       -3.5784  -22.9788  -48.4183 H         1 UNK         0.3000 
    201 H201       -3.5134  -25.8980  -48.2558 H         1 UNK         0.0600 
    202 H202       -1.2408  -25.9175  -47.2486 H         1 UNK         0.0600 
    203 H203       -2.3873  -25.2120  -46.1223 H         1 UNK         0.0600 
    204 H204       -1.2865  -24.1754  -47.0292 H         1 UNK         0.0600 
    205 H205       -1.9993  -26.7696  -49.7367 H         1 UNK         0.3000 
    206 H206       -1.1033  -27.0172  -51.7447 H         1 UNK         0.0600 
    207 H207        0.8156  -25.8191  -50.6941 H         1 UNK         0.0600 
    208 H208        0.7344  -25.4847  -52.4113 H         1 UNK         0.0600 
    209 H209        0.1930  -24.2727  -51.2492 H         1 UNK         0.0600 
    210 H210       -0.6688  -24.1059  -53.2303 H         1 UNK         0.3000 
    211 H211       -2.7662  -24.4395  -55.1011 H         1 UNK         0.0600 
    212 H212       -0.9615  -22.0399  -54.5472 H         1 UNK         0.0600 
    213 H213       -1.9700  -22.2383  -55.9784 H         1 UNK         0.0600 
    214 H214       -0.6431  -23.3499  -55.6813 H         1 UNK         0.0600 
    215 H215       -2.6898  -22.6160  -52.0569 H         1 UNK         0.3000 
    216 H216       -5.0628  -21.0459  -52.6391 H         1 UNK         0.0600 
    217 H217       -4.8763  -20.3415  -50.2923 H         1 UNK         0.0600 
    218 H218       -3.2996  -20.2479  -51.0592 H         1 UNK         0.0600 
    219 H219       -3.6754  -21.5757  -49.9662 H         1 UNK         0.0600 
    220 H220       -4.5097  -24.3163  -51.5814 H         1 UNK         0.3000 
    221 H221       -7.2680  -24.6580  -50.5418 H         1 UNK         0.0600 
    222 H222       -4.9826  -26.6603  -50.9336 H         1 UNK         0.0600 
    223 H223       -5.5394  -25.9696  -49.4111 H         1 UNK         0.0600 
    224 H224       -6.5781  -27.0505  -50.3115 H         1 UNK         0.0600 
    225 H225       -5.2198  -25.4560  -53.3669 H         1 UNK         0.3000 
    226 H226       -7.1502  -26.9484  -54.8042 H         1 UNK         0.0600 
    227 H227       -5.5905  -26.6852  -56.6972 H         1 UNK         0.0600 
    228 H228       -4.7542  -25.3741  -55.8807 H         1 UNK         0.0600 
    229 H229       -4.6813  -27.0113  -55.2283 H         1 UNK         0.0600 
    230 H230       -6.3056  -23.4504  -54.9681 H         1 UNK         0.3000 
    231 H231       -8.9559  -22.7597  -55.9523 H         1 UNK         0.0600 
    232 H232       -6.4858  -22.4019  -57.7466 H         1 UNK         0.0600 
    233 H233       -8.0141  -21.5549  -57.9872 H         1 UNK         0.0600 
    234 H234       -7.9490  -23.3023  -58.1206 H         1 UNK         0.0600 
    235 H235       -6.0002  -20.8762  -56.4698 H         1 UNK         0.3000 
    236 H236       -6.0314  -19.4614  -53.9839 H         1 UNK         0.0600 
    237 H237       -7.9671  -18.2937  -55.0778 H         1 UNK         0.0600 
    238 H238       -6.5782  -17.2241  -55.0001 H         1 UNK         0.0600 
    239 H239       -6.9959  -18.0062  -56.5204 H         1 UNK         0.0600 
    240 H240       -4.2336  -17.8091  -54.0414 H         1 UNK         0.3000 
    241 H241       -2.5148  -17.6806  -56.2904 H         1 UNK         0.0600 
    242 H242       -0.4082  -16.3042  -55.6729 H         1 UNK         0.3800 
    243 H243       -0.7803  -14.9961  -54.5892 H         1 UNK         0.3800 
    244 H244       -1.7323  -19.8893  -55.4573 H         1 UNK         0.0800 
    245 H245       -0.4952  -18.6821  -55.4238 H         1 UNK         0.0800 
    246 H246        1.1511  -19.0264  -53.8787 H         1 UNK         0.0800 
    247 H247        0.8020  -20.7160  -53.6177 H         1 UNK         0.0800 
@<TRIPOS>BOND
     1    1    2 1    
     2    1  127 1    
     3    1  128 1    
     4    1  129 1    
     5    2    3 2    
     6    2    4 am   BACKBONE|DICT|INTERRES
     7    4    5 1    
     8    4  130 1    
     9    5    6 1    
    10    5   65 1    
    11    5  131 1    
    12    6    7 1    
    13    6  132 1    
    14    6  133 1    
    15    7    8 1    
    16    8    9 1    
    17    8  134 1    
    18    8  135 1    
    19    9   10 ar   
    20    9   14 ar   
    21   10   11 ar   
    22   10  136 1    
    23   11   12 ar   
    24   11  126 1    
    25   12   13 ar   
    26   12  137 1    
    27   13   14 ar   
    28   13   15 1    
    29   14  138 1    
    30   15   16 1    
    31   15  139 1    
    32   15  140 1    
    33   16   17 1    
    34   17   18 1    
    35   17  141 1    
    36   17  142 1    
    37   18   19 1    
    38   18   67 1    
    39   18  143 1    
    40   19   20 am   BACKBONE|DICT|INTERRES
    41   19  144 1    
    42   20   21 2    
    43   20   22 1    
    44   22   23 1    
    45   22   24 1    
    46   22  145 1    
    47   23  146 1    
    48   23  147 1    
    49   23  148 1    
    50   24   25 am   BACKBONE|DICT|INTERRES
    51   24  149 1    
    52   25   26 2    
    53   25   27 1    
    54   27   28 1    
    55   27   29 1    
    56   27  150 1    
    57   28  151 1    
    58   28  152 1    
    59   28  153 1    
    60   29   30 am   BACKBONE|DICT|INTERRES
    61   29  154 1    
    62   30   31 2    
    63   30   32 1    
    64   32   33 1    
    65   32   34 1    
    66   32  155 1    
    67   33  156 1    
    68   33  157 1    
    69   33  158 1    
    70   34   35 am   BACKBONE|DICT|INTERRES
    71   34  159 1    
    72   35   36 2    
    73   35   37 1    
    74   37   38 1    
    75   37   39 1    
    76   37  160 1    
    77   38  161 1    
    78   38  162 1    
    79   38  163 1    
    80   39   40 am   BACKBONE|DICT|INTERRES
    81   39  164 1    
    82   40   41 2    
    83   40   42 1    
    84   42   43 1    
    85   42   44 1    
    86   42  165 1    
    87   43  166 1    
    88   43  167 1    
    89   43  168 1    
    90   44   45 am   BACKBONE|DICT|INTERRES
    91   44  169 1    
    92   45   46 2    
    93   45   47 1    
    94   47   48 1    
    95   47   49 1    
    96   47  170 1    
    97   48  171 1    
    98   48  172 1    
    99   48  173 1    
   100   49   50 am   BACKBONE|DICT|INTERRES
   101   49  174 1    
   102   50   51 2    
   103   50   52 1    
   104   52   53 1    
   105   52   54 1    
   106   52  175 1    
   107   53  176 1    
   108   53  177 1    
   109   53  178 1    
   110   54   55 am   BACKBONE|DICT|INTERRES
   111   54  179 1    
   112   55   56 2    
   113   55   57 1    
   114   57   58 1    
   115   57   59 1    
   116   57  180 1    
   117   58  181 1    
   118   58  182 1    
   119   58  183 1    
   120   59   60 am   BACKBONE|DICT|INTERRES
   121   59  184 1    
   122   60   61 2    
   123   60   62 1    
   124   62   63 1    
   125   62   64 1    
   126   62  185 1    
   127   63  186 1    
   128   63  187 1    
   129   63  188 1    
   130   64   65 am   BACKBONE|DICT|INTERRES
   131   64  189 1    
   132   65   66 2    
   133   67   68 2    
   134   67   69 am   BACKBONE|DICT|INTERRES
   135   69   70 1    
   136   69  190 1    
   137   70   71 1    
   138   70   72 1    
   139   70  191 1    
   140   71  192 1    
   141   71  193 1    
   142   71  194 1    
   143   72   73 2    
   144   72   74 am   BACKBONE|DICT|INTERRES
   145   74   75 1    
   146   74  195 1    
   147   75   76 1    
   148   75   77 1    
   149   75  196 1    
   150   76  197 1    
   151   76  198 1    
   152   76  199 1    
   153   77   78 2    
   154   77   79 am   BACKBONE|DICT|INTERRES
   155   79   80 1    
   156   79  200 1    
   157   80   81 1    
   158   80   82 1    
   159   80  201 1    
   160   81  202 1    
   161   81  203 1    
   162   81  204 1    
   163   82   83 2    
   164   82   84 am   BACKBONE|DICT|INTERRES
   165   84   85 1    
   166   84  205 1    
   167   85   86 1    
   168   85   87 1    
   169   85  206 1    
   170   86  207 1    
   171   86  208 1    
   172   86  209 1    
   173   87   88 2    
   174   87   89 am   BACKBONE|DICT|INTERRES
   175   89   90 1    
   176   89  210 1    
   177   90   91 1    
   178   90   92 1    
   179   90  211 1    
   180   91  212 1    
   181   91  213 1    
   182   91  214 1    
   183   92   93 2    
   184   92   94 am   BACKBONE|DICT|INTERRES
   185   94   95 1    
   186   94  215 1    
   187   95   96 1    
   188   95   97 1    
   189   95  216 1    
   190   96  217 1    
   191   96  218 1    
   192   96  219 1    
   193   97   98 2    
   194   97   99 am   BACKBONE|DICT|INTERRES
   195   99  100 1    
   196   99  220 1    
   197  100  101 1    
   198  100  102 1    
   199  100  221 1    
   200  101  222 1    
   201  101  223 1    
   202  101  224 1    
   203  102  103 2    
   204  102  104 am   BACKBONE|DICT|INTERRES
   205  104  105 1    
   206  104  225 1    
   207  105  106 1    
   208  105  107 1    
   209  105  226 1    
   210  106  227 1    
   211  106  228 1    
   212  106  229 1    
   213  107  108 2    
   214  107  109 am   BACKBONE|DICT|INTERRES
   215  109  110 1    
   216  109  230 1    
   217  110  111 1    
   218  110  112 1    
   219  110  231 1    
   220  111  232 1    
   221  111  233 1    
   222  111  234 1    
   223  112  113 2    
   224  112  114 am   BACKBONE|DICT|INTERRES
   225  114  115 1    
   226  114  235 1    
   227  115  116 1    
   228  115  117 1    
   229  115  236 1    
   230  116  237 1    
   231  116  238 1    
   232  116  239 1    
   233  117  118 2    
   234  117  119 am   BACKBONE|DICT|INTERRES
   235  119  120 1    
   236  119  240 1    
   237  120  121 1    
   238  120  124 1    
   239  120  241 1    
   240  121  122 am   BACKBONE|DICT|INTERRES
   241  121  123 2    
   242  122  242 1    
   243  122  243 1    
   244  124  125 1    
   245  124  244 1    
   246  124  245 1    
   247  125  126 1    
   248  126  246 1    
   249  126  247 1    
@<TRIPOS>SUBSTRUCTURE
     1 UNK         1 GROUP             0       ****    0 ROOT    
