@<TRIPOS>MOLECULE
3R540
247   249    1
SMALL
USER_CHARGES


@<TRIPOS>ATOM
      1 CA          4.7517  -14.2591  -42.6052 C.3       0 UNK        -0.1800 
      2 C           3.3264  -13.8673  -42.2426 C.2       0 UNK         0.5000 
      3 O           3.1202  -13.0672  -41.3297 O.2       0 UNK        -0.5000 
      4 N           2.3432  -14.4201  -42.9614 N.am      1 UNK        -0.5000 
      5 CA          0.9154  -14.1281  -42.8109 C.3       1 UNK         0.1400 
      6 C6          0.0406  -15.3198  -43.2705 C.3       23 UNK        -0.0398 
      7 S7          0.1259  -16.7158  -42.0996 S.3       23 UNK        -0.2404 
      8 C8         -1.6315  -16.9958  -41.7130 C.3       23 UNK        -0.0205 
      9 C9         -2.2766  -17.9722  -42.6867 C.ar      23 UNK        -0.0193 
     10 C10        -2.8723  -17.5200  -43.8688 C.ar      23 UNK        -0.1150 
     11 C11        -3.4839  -18.4212  -44.7488 C.ar      23 UNK        -0.0193 
     12 C12        -3.4902  -19.7828  -44.4355 C.ar      23 UNK        -0.1150 
     13 C13        -2.9017  -20.2491  -43.2572 C.ar      23 UNK        -0.0193 
     14 C14        -2.3011  -19.3365  -42.3851 C.ar      23 UNK        -0.1150 
     15 C15        -2.9446  -21.7348  -42.9212 C.3       23 UNK        -0.0205 
     16 S16        -1.3094  -22.4502  -42.5389 S.3       23 UNK        -0.2404 
     17 C17        -0.3072  -21.9710  -43.9878 C.3       23 UNK        -0.0398 
     18 CA         -0.6799  -22.7085  -45.2955 C.3       11 UNK         0.1400 
     19 N          -0.1480  -21.9996  -46.4643 N.am      11 UNK        -0.5000 
     20 C          -0.2603  -22.3766  -47.7452 C.2       10 UNK         0.5000 
     21 O          -0.8686  -23.3837  -48.1045 O.2       10 UNK        -0.5000 
     22 CA          0.4619  -21.5135  -48.7953 C.3       10 UNK         0.1400 
     23 CB         -0.4633  -20.3885  -49.2791 C.3       10 UNK        -0.1800 
     24 N           1.7185  -20.9441  -48.2981 N.am      10 UNK        -0.5000 
     25 C           2.7711  -21.6635  -47.8762 C.2       9 UNK         0.5000 
     26 O           2.8188  -22.8927  -47.9141 O.2       9 UNK        -0.5000 
     27 CA          3.9399  -20.8827  -47.2528 C.3       9 UNK         0.1400 
     28 CB          4.9124  -20.3821  -48.3318 C.3       9 UNK        -0.1800 
     29 N           3.4541  -19.7573  -46.4535 N.am      9 UNK        -0.5000 
     30 C           2.9583  -19.8801  -45.2134 C.2       8 UNK         0.5000 
     31 O           2.9417  -20.9416  -44.5908 O.2       8 UNK        -0.5000 
     32 CA          2.3599  -18.6169  -44.5644 C.3       8 UNK         0.1400 
     33 CB          3.4423  -17.8623  -43.7791 C.3       8 UNK        -0.1800 
     34 N           1.7329  -17.7149  -45.5344 N.am      8 UNK        -0.5000 
     35 C           0.6149  -18.0110  -46.2183 C.2       7 UNK         0.5000 
     36 O          -0.0207  -19.0494  -46.0453 O.2       7 UNK        -0.5000 
     37 CA          0.1797  -17.0338  -47.3364 C.3       7 UNK         0.1400 
     38 CB         -0.8796  -16.0370  -46.8486 C.3       7 UNK        -0.1800 
     39 N           1.2861  -16.2818  -47.9228 N.am      7 UNK        -0.5000 
     40 C           2.3775  -16.8118  -48.4884 C.2       6 UNK         0.5000 
     41 O           2.5099  -18.0169  -48.7010 O.2       6 UNK        -0.5000 
     42 CA          3.5402  -15.8484  -48.7980 C.3       6 UNK         0.1400 
     43 CB          3.6432  -15.6030  -50.3101 C.3       6 UNK        -0.1800 
     44 N           3.4481  -14.5537  -48.1130 N.am      6 UNK        -0.5000 
     45 C           3.4340  -14.3372  -46.7902 C.2       5 UNK         0.5000 
     46 O           3.4699  -15.2328  -45.9440 O.2       5 UNK        -0.5000 
     47 CA          3.2602  -12.8769  -46.3401 C.3       5 UNK         0.1400 
     48 CB          4.4813  -12.0077  -46.6932 C.3       5 UNK        -0.1800 
     49 N           2.0025  -12.2866  -46.8135 N.am      5 UNK        -0.5000 
     50 C           1.6300  -11.9664  -48.0613 C.2       4 UNK         0.5000 
     51 O           2.3426  -12.1104  -49.0554 O.2       4 UNK        -0.5000 
     52 CA          0.2074  -11.3986  -48.2225 C.3       4 UNK         0.1400 
     53 CB         -0.8171  -12.5382  -48.3304 C.3       4 UNK        -0.1800 
     54 N          -0.1873  -10.4986  -47.1348 N.am      4 UNK        -0.5000 
     55 C           0.3660   -9.3001  -46.8996 C.2       3 UNK         0.5000 
     56 O           1.2845   -8.8322  -47.5725 O.2       3 UNK        -0.5000 
     57 CA         -0.1919   -8.4723  -45.7234 C.3       3 UNK         0.1400 
     58 CB         -0.9378   -7.2371  -46.2531 C.3       3 UNK        -0.1800 
     59 N          -1.1042   -9.2174  -44.8474 N.am      3 UNK        -0.5000 
     60 C          -0.7930  -10.0544  -43.8468 C.2       2 UNK         0.5000 
     61 O          -1.6737  -10.5786  -43.1636 O.2       2 UNK        -0.5000 
     62 CA          0.6904  -10.3457  -43.5114 C.3       2 UNK         0.1400 
     63 CB          1.2219   -9.3285  -42.4889 C.3       2 UNK        -0.1800 
     64 N           0.8912  -11.6891  -42.9670 N.am      2 UNK        -0.5000 
     65 C           0.6017  -12.8376  -43.5903 C.2       1 UNK         0.5000 
     66 O           0.1805  -12.8986  -44.7472 O.2       1 UNK        -0.5000 
     67 C          -0.2851  -24.2040  -45.2473 C.2       11 UNK         0.5000 
     68 O          -1.1225  -25.0386  -44.9023 O.2       11 UNK        -0.5000 
     69 N           0.9467  -24.5266  -45.6712 N.am      12 UNK        -0.5000 
     70 CA          1.4638  -25.8952  -45.7744 C.3       12 UNK         0.1400 
     71 CB          2.9821  -25.8404  -46.0007 C.3       12 UNK        -0.1800 
     72 C           0.7831  -26.7418  -46.8723 C.2       12 UNK         0.5000 
     73 O           0.8376  -27.9699  -46.8048 O.2       12 UNK        -0.5000 
     74 N           0.1378  -26.0816  -47.8421 N.am      13 UNK        -0.5000 
     75 CA         -0.6512  -26.6791  -48.9194 C.3       13 UNK         0.1400 
     76 CB         -0.2076  -26.0531  -50.2543 C.3       13 UNK        -0.1800 
     77 C          -2.1624  -26.4967  -48.6605 C.2       13 UNK         0.5000 
     78 O          -2.9402  -26.3934  -49.6117 O.2       13 UNK        -0.5000 
     79 N          -2.5485  -26.4310  -47.3758 N.am      14 UNK        -0.5000 
     80 CA         -3.9106  -26.2478  -46.8623 C.3       14 UNK         0.1400 
     81 CB         -4.7852  -27.4781  -47.1837 C.3       14 UNK        -0.1800 
     82 C          -4.5356  -24.9165  -47.3252 C.2       14 UNK         0.5000 
     83 O          -5.6670  -24.8964  -47.8103 O.2       14 UNK        -0.5000 
     84 N          -3.7545  -23.8348  -47.1850 N.am      15 UNK        -0.5000 
     85 CA         -4.0325  -22.4723  -47.6596 C.3       15 UNK         0.1400 
     86 CB         -5.3389  -21.9176  -47.0490 C.3       15 UNK        -0.1800 
     87 C          -4.0063  -22.3797  -49.1995 C.2       15 UNK         0.5000 
     88 O          -4.7378  -21.5783  -49.7749 O.2       15 UNK        -0.5000 
     89 N          -3.1679  -23.2121  -49.8371 N.am      16 UNK        -0.5000 
     90 CA         -3.0557  -23.4438  -51.2800 C.3       16 UNK         0.1400 
     91 CB         -2.3649  -22.2558  -51.9735 C.3       16 UNK        -0.1800 
     92 C          -4.4170  -23.8088  -51.8997 C.2       16 UNK         0.5000 
     93 O          -4.9022  -23.1035  -52.7920 O.2       16 UNK        -0.5000 
     94 N          -5.0135  -24.8810  -51.3590 N.am      17 UNK        -0.5000 
     95 CA         -6.3554  -25.3880  -51.6506 C.3       17 UNK         0.1400 
     96 CB         -6.5902  -26.6750  -50.8429 C.3       17 UNK        -0.1800 
     97 C          -6.5917  -25.6263  -53.1528 C.2       17 UNK         0.5000 
     98 O          -6.0582  -26.5865  -53.7113 O.2       17 UNK        -0.5000 
     99 N          -7.3479  -24.7091  -53.7742 N.am      18 UNK        -0.5000 
    100 CA        -7.6665  -24.6213  -55.2066 C.3       18 UNK         0.1400 
    101 CB        -8.4799  -25.8493  -55.6662 C.3       18 UNK        -0.1800 
    102 C         -6.4484  -24.3526  -56.1214 C.2       18 UNK         0.5000 
    103 O         -6.5877  -24.4168  -57.3441 O.2       18 UNK        -0.5000 
    104 N         -5.2896  -24.0396  -55.5286 N.am      19 UNK        -0.5000 
    105 CA        -4.0391  -23.7389  -56.2211 C.3       19 UNK         0.1400 
    106 CB        -2.8896  -24.4982  -55.5396 C.3       19 UNK        -0.1800 
    107 C         -3.7610  -22.2279  -56.2363 C.2       19 UNK         0.5000 
    108 O         -3.2496  -21.7254  -57.2379 O.2       19 UNK        -0.5000 
    109 N         -4.1139  -21.5271  -55.1488 N.am      20 UNK        -0.5000 
    110 CA        -3.9612  -20.0754  -55.0259 C.3       20 UNK         0.1400 
    111 CB        -2.4968  -19.6994  -54.7258 C.3       20 UNK        -0.1800 
    112 C         -4.9035  -19.4446  -53.9883 C.2       20 UNK         0.5000 
    113 O         -5.1386  -18.2391  -54.0790 O.2       20 UNK        -0.5000 
    114 N         -5.4145  -20.2244  -53.0187 N.am      21 UNK        -0.5000 
    115 CA        -6.3291  -19.7852  -51.9505 C.3       21 UNK         0.1400 
    116 CB        -7.7193  -19.4636  -52.5389 C.3       21 UNK        -0.1800 
    117 C         -5.7574  -18.6294  -51.0898 C.2       21 UNK         0.5000 
    118 O         -6.4870  -17.6982  -50.7440 O.2       21 UNK        -0.5000 
    119 N         -4.4455  -18.6890  -50.8150 N.am      22 UNK        -0.5000 
    120 CA        -3.6164  -17.6353  -50.1963 C.3       22 UNK         0.1400 
    121 C         -3.4436  -16.3418  -51.0571 C.2       22 UNK         0.5000 
    122 N         -3.8672  -16.2962  -52.3146 N.am      22 UNK        -0.7600 
    123 O         -2.8682  -15.3622  -50.5913 O.2       22 UNK        -0.5000 
    124 C124       -4.0136  -17.3179  -48.7231 C.3       23 UNK        -0.0398 
    125 S125       -3.4577  -18.5898  -47.5414 S.3       23 UNK        -0.2404 
    126 C126       -4.1830  -17.9199  -46.0076 C.3       23 UNK        -0.0205 
    127 H127        5.2408  -14.7273  -41.7512 H         1 UNK         0.0600 
    128 H128        5.3235  -13.3747  -42.8859 H         1 UNK         0.0600 
    129 H129        4.7805  -14.9601  -43.4398 H         1 UNK         0.0600 
    130 H130        2.5853  -15.0377  -43.7241 H         1 UNK         0.3000 
    131 H131        0.6903  -13.9371  -41.7590 H         1 UNK         0.0600 
    132 H132       -0.9985  -15.0113  -43.3931 H         1 UNK         0.0800 
    133 H133        0.3696  -15.6779  -44.2428 H         1 UNK         0.0800 
    134 H134       -1.6996  -17.3941  -40.6995 H         1 UNK         0.0800 
    135 H135       -2.1783  -16.0521  -41.6954 H         1 UNK         0.0800 
    136 H136       -2.8711  -16.4636  -44.0954 H         1 UNK         0.1150 
    137 H137       -3.9646  -20.4767  -45.1110 H         1 UNK         0.1150 
    138 H138       -1.8497  -19.6913  -41.4692 H         1 UNK         0.1150 
    139 H139       -3.5948  -21.8754  -42.0568 H         1 UNK         0.0800 
    140 H140       -3.3980  -22.3040  -43.7339 H         1 UNK         0.0800 
    141 H141        0.7424  -22.1368  -43.7420 H         1 UNK         0.0800 
    142 H142       -0.4046  -20.8930  -44.1206 H         1 UNK         0.0800 
    143 H143       -1.7638  -22.6702  -45.4039 H         1 UNK         0.0600 
    144 H144        0.2885  -21.1032  -46.2791 H         1 UNK         0.3000 
    145 H145        0.7002  -22.1546  -49.6463 H         1 UNK         0.0600 
    146 H146        0.0265  -19.7522  -50.0164 H         1 UNK         0.0600 
    147 H147       -1.3658  -20.7901  -49.7365 H         1 UNK         0.0600 
    148 H148       -0.7924  -19.7643  -48.4520 H         1 UNK         0.0600 
    149 H149        1.7896  -19.9333  -48.2755 H         1 UNK         0.3000 
    150 H150        4.4901  -21.5655  -46.6016 H         1 UNK         0.0600 
    151 H151        5.3418  -21.2200  -48.8823 H         1 UNK         0.0600 
    152 H152        5.7394  -19.8260  -47.8901 H         1 UNK         0.0600 
    153 H153        4.4227  -19.7346  -49.0587 H         1 UNK         0.0600 
    154 H154        3.3765  -18.8684  -46.9296 H         1 UNK         0.3000 
    155 H155        1.5925  -18.9424  -43.8585 H         1 UNK         0.0600 
    156 H156        3.9497  -18.5250  -43.0769 H         1 UNK         0.0600 
    157 H157        3.0100  -17.0532  -43.1944 H         1 UNK         0.0600 
    158 H158        4.2013  -17.4397  -44.4385 H         1 UNK         0.0600 
    159 H159        2.2342  -16.8603  -45.7503 H         1 UNK         0.3000 
    160 H160       -0.2681  -17.6281  -48.1323 H         1 UNK         0.0600 
    161 H161       -0.4461  -15.2339  -46.2552 H         1 UNK         0.0600 
    162 H162       -1.6355  -16.5290  -46.2399 H         1 UNK         0.0600 
    163 H163       -1.3923  -15.5769  -47.6931 H         1 UNK         0.0600 
    164 H164        1.2711  -15.2824  -47.7907 H         1 UNK         0.3000 
    165 H165        4.4580  -16.3353  -48.4629 H         1 UNK         0.0600 
    166 H166        4.5167  -14.9975  -50.5526 H         1 UNK         0.0600 
    167 H167        3.7396  -16.5433  -50.8548 H         1 UNK         0.0600 
    168 H168        2.7611  -15.0887  -50.6937 H         1 UNK         0.0600 
    169 H169        3.3223  -13.7384  -48.7068 H         1 UNK         0.3000 
    170 H170        3.1880  -12.8901  -45.2527 H         1 UNK         0.0600 
    171 H171        4.6523  -11.9470  -47.7680 H         1 UNK         0.0600 
    172 H172        4.3598  -10.9918  -46.3171 H         1 UNK         0.0600 
    173 H173        5.3878  -12.4145  -46.2434 H         1 UNK         0.0600 
    174 H174        1.2790  -12.2297  -46.1008 H         1 UNK         0.3000 
    175 H175        0.1848  -10.8320  -49.1559 H         1 UNK         0.0600 
    176 H176       -0.9035  -13.0884  -47.3934 H         1 UNK         0.0600 
    177 H177       -1.8058  -12.1557  -48.5839 H         1 UNK         0.0600 
    178 H178       -0.5374  -13.2506  -49.1081 H         1 UNK         0.0600 
    179 H179       -0.9329  -10.8140  -46.5309 H         1 UNK         0.3000 
    180 H180        0.6598   -8.1140  -45.1441 H         1 UNK         0.0600 
    181 H181       -1.8051   -7.5163  -46.8528 H         1 UNK         0.0600 
    182 H182       -0.2890   -6.6243  -46.8805 H         1 UNK         0.0600 
    183 H183       -1.2844   -6.6047  -45.4354 H         1 UNK         0.0600 
    184 H184       -2.0844   -9.0541  -45.0249 H         1 UNK         0.3000 
    185 H185        1.2971  -10.2850  -44.4145 H         1 UNK         0.0600 
    186 H186        1.1117   -8.3048  -42.8472 H         1 UNK         0.0600 
    187 H187        0.6876   -9.3991  -41.5404 H         1 UNK         0.0600 
    188 H188        2.2816   -9.4880  -42.2884 H         1 UNK         0.0600 
    189 H189        1.2882  -11.7413  -42.0382 H         1 UNK         0.3000 
    190 H190        1.5577  -23.7907  -46.0006 H         1 UNK         0.3000 
    191 H191        1.2811  -26.3937  -44.8202 H         1 UNK         0.0600 
    192 H192        3.2297  -25.3756  -46.9554 H         1 UNK         0.0600 
    193 H193        3.4806  -25.2763  -45.2122 H         1 UNK         0.0600 
    194 H194        3.4123  -26.8427  -46.0045 H         1 UNK         0.0600 
    195 H195        0.0968  -25.0686  -47.7961 H         1 UNK         0.3000 
    196 H196       -0.4687  -27.7538  -48.9747 H         1 UNK         0.0600 
    197 H197        0.8540  -26.2250  -50.4320 H         1 UNK         0.0600 
    198 H198       -0.3754  -24.9761  -50.2701 H         1 UNK         0.0600 
    199 H199       -0.7489  -26.4868  -51.0960 H         1 UNK         0.0600 
    200 H200       -1.8259  -26.4745  -46.6691 H         1 UNK         0.3000 
    201 H201       -3.8242  -26.1816  -45.7767 H         1 UNK         0.0600 
    202 H202       -5.7703  -27.3881  -46.7246 H         1 UNK         0.0600 
    203 H203       -4.3323  -28.3926  -46.8011 H         1 UNK         0.0600 
    204 H204       -4.9351  -27.6032  -48.2561 H         1 UNK         0.0600 
    205 H205       -2.8177  -23.9891  -46.8395 H         1 UNK         0.3000 
    206 H206       -3.2148  -21.8459  -47.3020 H         1 UNK         0.0600 
    207 H207       -5.3829  -22.0903  -45.9742 H         1 UNK         0.0600 
    208 H208       -6.2229  -22.3739  -47.4947 H         1 UNK         0.0600 
    209 H209       -5.4200  -20.8431  -47.2139 H         1 UNK         0.0600 
    210 H210       -2.5696  -23.7874  -49.2573 H         1 UNK         0.3000 
    211 H211       -2.4171  -24.3168  -51.4161 H         1 UNK         0.0600 
    212 H212       -1.3449  -22.1344  -51.6114 H         1 UNK         0.0600 
    213 H213       -2.2964  -22.4141  -53.0492 H         1 UNK         0.0600 
    214 H214       -2.8989  -21.3211  -51.8076 H         1 UNK         0.0600 
    215 H215       -4.4993  -25.3868  -50.6454 H         1 UNK         0.3000 
    216 H216       -7.0686  -24.6400  -51.2991 H         1 UNK         0.0600 
    217 H217       -7.5653  -27.1083  -51.0691 H         1 UNK         0.0600 
    218 H218       -5.8343  -27.4310  -51.0598 H         1 UNK         0.0600 
    219 H219       -6.5667  -26.4774  -49.7720 H         1 UNK         0.0600 
    220 H220       -7.6960  -23.9400  -53.2186 H         1 UNK         0.3000 
    221 H221       -8.3104  -23.7471  -55.3124 H         1 UNK         0.0600 
    222 H222       -7.8786  -26.7587  -55.6657 H         1 UNK         0.0600 
    223 H223       -9.3420  -26.0159  -55.0204 H         1 UNK         0.0600 
    224 H224       -8.8587  -25.7117  -56.6796 H         1 UNK         0.0600 
    225 H225       -5.2748  -23.9717  -54.5172 H         1 UNK         0.3000 
    226 H226       -4.0904  -24.0762  -57.2585 H         1 UNK         0.0600 
    227 H227       -3.0486  -25.5754  -55.5919 H         1 UNK         0.0600 
    228 H228       -1.9371  -24.2856  -56.0268 H         1 UNK         0.0600 
    229 H229       -2.7892  -24.2293  -54.4890 H         1 UNK         0.0600 
    230 H230       -4.5331  -22.0189  -54.3685 H         1 UNK         0.3000 
    231 H231       -4.2348  -19.6273  -55.9837 H         1 UNK         0.0600 
    232 H232       -2.3753  -18.6164  -54.6790 H         1 UNK         0.0600 
    233 H233       -1.8219  -20.0629  -55.5004 H         1 UNK         0.0600 
    234 H234       -2.1598  -20.1026  -53.7726 H         1 UNK         0.0600 
    235 H235       -5.1555  -21.2038  -52.9684 H         1 UNK         0.3000 
    236 H236       -6.4652  -20.6364  -51.2856 H         1 UNK         0.0600 
    237 H237       -8.1013  -20.2993  -53.1250 H         1 UNK         0.0600 
    238 H238       -8.4428  -19.2672  -51.7468 H         1 UNK         0.0600 
    239 H239       -7.6943  -18.5849  -53.1840 H         1 UNK         0.0600 
    240 H240       -3.9537  -19.5221  -51.1009 H         1 UNK         0.3000 
    241 H241       -2.6088  -18.0523  -50.1733 H         1 UNK         0.0600 
    242 H242       -3.7248  -15.4509  -52.8435 H         1 UNK         0.3800 
    243 H243       -4.3523  -17.0746  -52.7493 H         1 UNK         0.3800 
    244 H244       -3.5686  -16.3807  -48.3877 H         1 UNK         0.0800 
    245 H245       -5.0902  -17.1800  -48.6247 H         1 UNK         0.0800 
    246 H246       -4.1533  -16.8299  -46.0396 H         1 UNK         0.0800 
    247 H247       -5.2376  -18.1953  -45.9657 H         1 UNK         0.0800 
@<TRIPOS>BOND
     1    1    2 1    
     2    1  127 1    
     3    1  128 1    
     4    1  129 1    
     5    2    3 2    
     6    2    4 am   BACKBONE|DICT|INTERRES
     7    4    5 1    
     8    4  130 1    
     9    5    6 1    
    10    5   65 1    
    11    5  131 1    
    12    6    7 1    
    13    6  132 1    
    14    6  133 1    
    15    7    8 1    
    16    8    9 1    
    17    8  134 1    
    18    8  135 1    
    19    9   10 ar   
    20    9   14 ar   
    21   10   11 ar   
    22   10  136 1    
    23   11   12 ar   
    24   11  126 1    
    25   12   13 ar   
    26   12  137 1    
    27   13   14 ar   
    28   13   15 1    
    29   14  138 1    
    30   15   16 1    
    31   15  139 1    
    32   15  140 1    
    33   16   17 1    
    34   17   18 1    
    35   17  141 1    
    36   17  142 1    
    37   18   19 1    
    38   18   67 1    
    39   18  143 1    
    40   19   20 am   BACKBONE|DICT|INTERRES
    41   19  144 1    
    42   20   21 2    
    43   20   22 1    
    44   22   23 1    
    45   22   24 1    
    46   22  145 1    
    47   23  146 1    
    48   23  147 1    
    49   23  148 1    
    50   24   25 am   BACKBONE|DICT|INTERRES
    51   24  149 1    
    52   25   26 2    
    53   25   27 1    
    54   27   28 1    
    55   27   29 1    
    56   27  150 1    
    57   28  151 1    
    58   28  152 1    
    59   28  153 1    
    60   29   30 am   BACKBONE|DICT|INTERRES
    61   29  154 1    
    62   30   31 2    
    63   30   32 1    
    64   32   33 1    
    65   32   34 1    
    66   32  155 1    
    67   33  156 1    
    68   33  157 1    
    69   33  158 1    
    70   34   35 am   BACKBONE|DICT|INTERRES
    71   34  159 1    
    72   35   36 2    
    73   35   37 1    
    74   37   38 1    
    75   37   39 1    
    76   37  160 1    
    77   38  161 1    
    78   38  162 1    
    79   38  163 1    
    80   39   40 am   BACKBONE|DICT|INTERRES
    81   39  164 1    
    82   40   41 2    
    83   40   42 1    
    84   42   43 1    
    85   42   44 1    
    86   42  165 1    
    87   43  166 1    
    88   43  167 1    
    89   43  168 1    
    90   44   45 am   BACKBONE|DICT|INTERRES
    91   44  169 1    
    92   45   46 2    
    93   45   47 1    
    94   47   48 1    
    95   47   49 1    
    96   47  170 1    
    97   48  171 1    
    98   48  172 1    
    99   48  173 1    
   100   49   50 am   BACKBONE|DICT|INTERRES
   101   49  174 1    
   102   50   51 2    
   103   50   52 1    
   104   52   53 1    
   105   52   54 1    
   106   52  175 1    
   107   53  176 1    
   108   53  177 1    
   109   53  178 1    
   110   54   55 am   BACKBONE|DICT|INTERRES
   111   54  179 1    
   112   55   56 2    
   113   55   57 1    
   114   57   58 1    
   115   57   59 1    
   116   57  180 1    
   117   58  181 1    
   118   58  182 1    
   119   58  183 1    
   120   59   60 am   BACKBONE|DICT|INTERRES
   121   59  184 1    
   122   60   61 2    
   123   60   62 1    
   124   62   63 1    
   125   62   64 1    
   126   62  185 1    
   127   63  186 1    
   128   63  187 1    
   129   63  188 1    
   130   64   65 am   BACKBONE|DICT|INTERRES
   131   64  189 1    
   132   65   66 2    
   133   67   68 2    
   134   67   69 am   BACKBONE|DICT|INTERRES
   135   69   70 1    
   136   69  190 1    
   137   70   71 1    
   138   70   72 1    
   139   70  191 1    
   140   71  192 1    
   141   71  193 1    
   142   71  194 1    
   143   72   73 2    
   144   72   74 am   BACKBONE|DICT|INTERRES
   145   74   75 1    
   146   74  195 1    
   147   75   76 1    
   148   75   77 1    
   149   75  196 1    
   150   76  197 1    
   151   76  198 1    
   152   76  199 1    
   153   77   78 2    
   154   77   79 am   BACKBONE|DICT|INTERRES
   155   79   80 1    
   156   79  200 1    
   157   80   81 1    
   158   80   82 1    
   159   80  201 1    
   160   81  202 1    
   161   81  203 1    
   162   81  204 1    
   163   82   83 2    
   164   82   84 am   BACKBONE|DICT|INTERRES
   165   84   85 1    
   166   84  205 1    
   167   85   86 1    
   168   85   87 1    
   169   85  206 1    
   170   86  207 1    
   171   86  208 1    
   172   86  209 1    
   173   87   88 2    
   174   87   89 am   BACKBONE|DICT|INTERRES
   175   89   90 1    
   176   89  210 1    
   177   90   91 1    
   178   90   92 1    
   179   90  211 1    
   180   91  212 1    
   181   91  213 1    
   182   91  214 1    
   183   92   93 2    
   184   92   94 am   BACKBONE|DICT|INTERRES
   185   94   95 1    
   186   94  215 1    
   187   95   96 1    
   188   95   97 1    
   189   95  216 1    
   190   96  217 1    
   191   96  218 1    
   192   96  219 1    
   193   97   98 2    
   194   97   99 am   BACKBONE|DICT|INTERRES
   195   99  100 1    
   196   99  220 1    
   197  100  101 1    
   198  100  102 1    
   199  100  221 1    
   200  101  222 1    
   201  101  223 1    
   202  101  224 1    
   203  102  103 2    
   204  102  104 am   BACKBONE|DICT|INTERRES
   205  104  105 1    
   206  104  225 1    
   207  105  106 1    
   208  105  107 1    
   209  105  226 1    
   210  106  227 1    
   211  106  228 1    
   212  106  229 1    
   213  107  108 2    
   214  107  109 am   BACKBONE|DICT|INTERRES
   215  109  110 1    
   216  109  230 1    
   217  110  111 1    
   218  110  112 1    
   219  110  231 1    
   220  111  232 1    
   221  111  233 1    
   222  111  234 1    
   223  112  113 2    
   224  112  114 am   BACKBONE|DICT|INTERRES
   225  114  115 1    
   226  114  235 1    
   227  115  116 1    
   228  115  117 1    
   229  115  236 1    
   230  116  237 1    
   231  116  238 1    
   232  116  239 1    
   233  117  118 2    
   234  117  119 am   BACKBONE|DICT|INTERRES
   235  119  120 1    
   236  119  240 1    
   237  120  121 1    
   238  120  124 1    
   239  120  241 1    
   240  121  122 am   BACKBONE|DICT|INTERRES
   241  121  123 2    
   242  122  242 1    
   243  122  243 1    
   244  124  125 1    
   245  124  244 1    
   246  124  245 1    
   247  125  126 1    
   248  126  246 1    
   249  126  247 1    
@<TRIPOS>SUBSTRUCTURE
     1 UNK         1 GROUP             0       ****    0 ROOT    
