@<TRIPOS>MOLECULE
3R540
247   249    1
SMALL
USER_CHARGES


@<TRIPOS>ATOM
      1 CA          5.1694  -17.3906  -48.1638 C.3       0 UNK        -0.1800 
      2 C           3.7408  -16.9717  -47.8500 C.2       0 UNK         0.5000 
      3 O           3.4179  -16.7235  -46.6873 O.2       0 UNK        -0.5000 
      4 N           2.8835  -16.8960  -48.8779 N.am      1 UNK        -0.5000 
      5 CA          1.4731  -16.5127  -48.7706 C.3       1 UNK         0.1400 
      6 C6          0.7102  -16.6281  -50.1145 C.3       23 UNK        -0.0398 
      7 S7          0.6237  -18.3242  -50.7864 S.3       23 UNK        -0.2404 
      8 C8         -0.3937  -19.2100  -49.5595 C.3       23 UNK        -0.0205 
      9 C9         -1.7605  -18.5822  -49.3319 C.ar      23 UNK        -0.0193 
     10 C10        -2.8455  -18.9229  -50.1430 C.ar      23 UNK        -0.1150 
     11 C11        -4.1074  -18.3713  -49.9079 C.ar      23 UNK        -0.0193 
     12 C12        -4.2827  -17.4790  -48.8447 C.ar      23 UNK        -0.1150 
     13 C13        -3.2080  -17.1346  -48.0196 C.ar      23 UNK        -0.0193 
     14 C14        -1.9503  -17.6864  -48.2781 C.ar      23 UNK        -0.1150 
     15 C15        -3.4091  -16.1596  -46.8629 C.3       23 UNK        -0.0205 
     16 S16        -2.5483  -16.6548  -45.3297 S.3       23 UNK        -0.2404 
     17 C17        -3.4939  -18.1382  -44.8321 C.3       23 UNK        -0.0398 
     18 CA         -2.8996  -19.4628  -45.3745 C.3       11 UNK         0.1400 
     19 N          -1.4829  -19.6437  -45.0346 N.am      11 UNK        -0.5000 
     20 C          -0.6460  -20.4076  -45.7495 C.2       10 UNK         0.5000 
     21 O          -0.9886  -21.0419  -46.7450 O.2       10 UNK        -0.5000 
     22 CA          0.8071  -20.5204  -45.2665 C.3       10 UNK         0.1400 
     23 CB          1.6319  -19.3107  -45.7268 C.3       10 UNK        -0.1800 
     24 N           0.9367  -20.6824  -43.8203 N.am      10 UNK        -0.5000 
     25 C           0.4859  -21.7360  -43.1258 C.2       9 UNK         0.5000 
     26 O          -0.2111  -22.6262  -43.6126 O.2       9 UNK        -0.5000 
     27 CA          0.8735  -21.8022  -41.6414 C.3       9 UNK         0.1400 
     28 CB          2.3557  -22.1765  -41.4842 C.3       9 UNK        -0.1800 
     29 N           0.6287  -20.5187  -40.9913 N.am      9 UNK        -0.5000 
     30 C          -0.4561  -20.2329  -40.2598 C.2       8 UNK         0.5000 
     31 O          -1.3265  -21.0550  -39.9725 O.2       8 UNK        -0.5000 
     32 CA         -0.6097  -18.7763  -39.7767 C.3       8 UNK         0.1400 
     33 CB         -0.0455  -18.6183  -38.3567 C.3       8 UNK        -0.1800 
     34 N           0.0274  -17.7894  -40.6509 N.am      8 UNK        -0.5000 
     35 C          -0.2905  -17.5770  -41.9356 C.2       7 UNK         0.5000 
     36 O          -1.1610  -18.2018  -42.5394 O.2       7 UNK        -0.5000 
     37 CA          0.5495  -16.5315  -42.6898 C.3       7 UNK         0.1400 
     38 CB         -0.0684  -15.1375  -42.5140 C.3       7 UNK        -0.1800 
     39 N           1.9591  -16.4939  -42.2854 N.am      7 UNK        -0.5000 
     40 C           2.8059  -17.5375  -42.3032 C.2       6 UNK         0.5000 
     41 O           2.4678  -18.6841  -42.5972 O.2       6 UNK        -0.5000 
     42 CA          4.2725  -17.2781  -41.9144 C.3       6 UNK         0.1400 
     43 CB          5.1395  -17.1956  -43.1780 C.3       6 UNK        -0.1800 
     44 N           4.4550  -16.0667  -41.1128 N.am      6 UNK        -0.5000 
     45 C           4.0564  -15.9450  -39.8372 C.2       5 UNK         0.5000 
     46 O           3.5223  -16.8572  -39.2047 O.2       5 UNK        -0.5000 
     47 CA          4.2598  -14.5782  -39.1519 C.3       5 UNK         0.1400 
     48 CB          5.5179  -14.6029  -38.2708 C.3       5 UNK        -0.1800 
     49 N           4.3503  -13.4441  -40.0747 N.am      5 UNK        -0.5000 
     50 C           3.3858  -13.0469  -40.9153 C.2       4 UNK         0.5000 
     51 O           2.3010  -13.6192  -41.0211 O.2       4 UNK        -0.5000 
     52 CA          3.6815  -11.8306  -41.8160 C.3       4 UNK         0.1400 
     53 CB          4.9791  -11.0730  -41.4538 C.3       4 UNK        -0.1800 
     54 N           3.6895  -12.1986  -43.2340 N.am      4 UNK        -0.5000 
     55 C           4.4486  -13.1267  -43.8320 C.2       3 UNK         0.5000 
     56 O           5.2454  -13.8523  -43.2326 O.2       3 UNK        -0.5000 
     57 CA          4.2655  -13.2580  -45.3578 C.3       3 UNK         0.1400 
     58 CB          5.3649  -14.1050  -46.0217 C.3       3 UNK        -0.1800 
     59 N           2.9519  -13.8042  -45.7083 N.am      3 UNK        -0.5000 
     60 C           1.8090  -13.1000  -45.7214 C.2       2 UNK         0.5000 
     61 O           1.7527  -11.9148  -45.3859 O.2       2 UNK        -0.5000 
     62 CA          0.5160  -13.8241  -46.1648 C.3       2 UNK         0.1400 
     63 CB         -0.4817  -12.8774  -46.8642 C.3       2 UNK        -0.1800 
     64 N           0.7460  -15.0271  -46.9709 N.am      2 UNK        -0.5000 
     65 C           1.3187  -15.0964  -48.1817 C.2       1 UNK         0.5000 
     66 O           1.7342  -14.1253  -48.8168 O.2       1 UNK        -0.5000 
     67 C          -3.7537  -20.6696  -44.9375 C.2       11 UNK         0.5000 
     68 O          -4.8203  -20.8882  -45.5122 O.2       11 UNK        -0.5000 
     69 N          -3.2744  -21.4400  -43.9496 N.am      12 UNK        -0.5000 
     70 CA         -3.8987  -22.6855  -43.5053 C.3       12 UNK         0.1400 
     71 CB         -3.3943  -23.0472  -42.0997 C.3       12 UNK        -0.1800 
     72 C          -3.6417  -23.8287  -44.5029 C.2       12 UNK         0.5000 
     73 O          -4.5728  -24.5588  -44.8445 O.2       12 UNK        -0.5000 
     74 N          -2.3896  -23.9492  -44.9662 N.am      13 UNK        -0.5000 
     75 CA         -1.9691  -24.9215  -45.9753 C.3       13 UNK         0.1400 
     76 CB         -0.4362  -25.0306  -45.9547 C.3       13 UNK        -0.1800 
     77 C          -2.4570  -24.5622  -47.3911 C.2       13 UNK         0.5000 
     78 O          -2.7498  -25.4626  -48.1769 O.2       13 UNK        -0.5000 
     79 N          -2.4960  -23.2558  -47.6907 N.am      14 UNK        -0.5000 
     80 CA         -2.8357  -22.6091  -48.9643 C.3       14 UNK         0.1400 
     81 CB         -4.2549  -22.9800  -49.4344 C.3       14 UNK        -0.1800 
     82 C          -1.7749  -22.7811  -50.0738 C.2       14 UNK         0.5000 
     83 O          -1.9615  -22.2415  -51.1646 O.2       14 UNK        -0.5000 
     84 N          -0.6637  -23.4687  -49.7688 N.am      15 UNK        -0.5000 
     85 CA          0.5337  -23.6650  -50.5934 C.3       15 UNK         0.1400 
     86 CB          1.3850  -22.3751  -50.5777 C.3       15 UNK        -0.1800 
     87 C           0.2254  -24.1888  -52.0166 C.2       15 UNK         0.5000 
     88 O          -0.6561  -25.0349  -52.1797 O.2       15 UNK        -0.5000 
     89 N           0.9570  -23.6833  -53.0189 N.am      16 UNK        -0.5000 
     90 CA          0.7494  -23.9734  -54.4394 C.3       16 UNK         0.1400 
     91 CB          2.0456  -23.6568  -55.2020 C.3       16 UNK        -0.1800 
     92 C          -0.4370  -23.1963  -55.0462 C.2       16 UNK         0.5000 
     93 O          -0.9209  -23.5772  -56.1126 O.2       16 UNK        -0.5000 
     94 N          -0.8778  -22.1247  -54.3698 N.am      17 UNK        -0.5000 
     95 CA         -2.0498  -21.3227  -54.7252 C.3       17 UNK         0.1400 
     96 CB         -2.0723  -20.0502  -53.8601 C.3       17 UNK        -0.1800 
     97 C          -3.3562  -22.1277  -54.6010 C.2       17 UNK         0.5000 
     98 O          -4.1723  -22.1101  -55.5252 O.2       17 UNK        -0.5000 
     99 N          -3.4860  -22.8613  -53.4858 N.am      18 UNK        -0.5000 
    100 CA        -4.5262  -23.8437  -53.1800 C.3       18 UNK         0.1400 
    101 CB        -4.2615  -25.1358  -53.9860 C.3       18 UNK        -0.1800 
    102 C         -5.9462  -23.2627  -53.3528 C.2       18 UNK         0.5000 
    103 O         -6.2697  -22.2640  -52.7081 O.2       18 UNK        -0.5000 
    104 N         -6.7469  -23.8857  -54.2250 N.am      19 UNK        -0.5000 
    105 CA        -8.0546  -23.4067  -54.6728 C.3       19 UNK         0.1400 
    106 CB        -9.0884  -24.5221  -54.4397 C.3       19 UNK        -0.1800 
    107 C         -8.0248  -22.9766  -56.1551 C.2       19 UNK         0.5000 
    108 O         -9.0764  -22.6415  -56.7030 O.2       19 UNK        -0.5000 
    109 N         -6.8426  -23.0052  -56.7914 N.am      20 UNK        -0.5000 
    110 CA        -6.6300  -22.5238  -58.1578 C.3       20 UNK         0.1400 
    111 CB        -5.3473  -23.1474  -58.7306 C.3       20 UNK        -0.1800 
    112 C         -6.5632  -20.9874  -58.1882 C.2       20 UNK         0.5000 
    113 O         -7.1896  -20.3604  -59.0438 O.2       20 UNK        -0.5000 
    114 N         -5.8385  -20.4206  -57.2182 N.am      21 UNK        -0.5000 
    115 CA        -5.8643  -19.0084  -56.8540 C.3       21 UNK         0.1400 
    116 CB        -4.4179  -18.5433  -56.6187 C.3       21 UNK        -0.1800 
    117 C         -6.7420  -18.8218  -55.5991 C.2       21 UNK         0.5000 
    118 O         -7.3251  -19.7882  -55.1015 O.2       21 UNK        -0.5000 
    119 N         -6.8346  -17.5755  -55.1181 N.am      22 UNK        -0.5000 
    120 CA        -7.6277  -17.1599  -53.9425 C.3       22 UNK         0.1400 
    121 C         -9.1742  -17.1949  -54.1557 C.2       22 UNK         0.5000 
    122 N         -9.6740  -17.2914  -55.3819 N.am      22 UNK        -0.7600 
    123 O         -9.9406  -17.0961  -53.2009 O.2       22 UNK        -0.5000 
    124 C124       -7.1996  -17.8625  -52.6197 C.3       23 UNK        -0.0398 
    125 S125       -5.4486  -17.5887  -52.1898 S.3       23 UNK        -0.2404 
    126 C126       -5.2851  -18.7436  -50.7938 C.3       23 UNK        -0.0205 
    127 H127        5.4302  -18.2822  -47.5937 H         1 UNK         0.0600 
    128 H128        5.8624  -16.5954  -47.8899 H         1 UNK         0.0600 
    129 H129        5.3043  -17.6114  -49.2228 H         1 UNK         0.0600 
    130 H130        3.2076  -17.1032  -49.8115 H         1 UNK         0.3000 
    131 H131        1.0283  -17.2132  -48.0657 H         1 UNK         0.0600 
    132 H132        1.1853  -15.9979  -50.8683 H         1 UNK         0.0800 
    133 H133       -0.3087  -16.2490  -50.0205 H         1 UNK         0.0800 
    134 H134        0.1501  -19.2893  -48.6196 H         1 UNK         0.0800 
    135 H135       -0.5274  -20.2335  -49.9017 H         1 UNK         0.0800 
    136 H136       -2.7123  -19.6238  -50.9524 H         1 UNK         0.1150 
    137 H137       -5.2591  -17.0522  -48.6625 H         1 UNK         0.1150 
    138 H138       -1.1232  -17.4354  -47.6345 H         1 UNK         0.1150 
    139 H139       -3.0366  -15.1828  -47.1712 H         1 UNK         0.0800 
    140 H140       -4.4704  -16.0289  -46.6461 H         1 UNK         0.0800 
    141 H141       -4.5272  -18.0214  -45.1633 H         1 UNK         0.0800 
    142 H142       -3.5305  -18.1582  -43.7419 H         1 UNK         0.0800 
    143 H143       -2.9826  -19.4318  -46.4613 H         1 UNK         0.0600 
    144 H144       -1.1586  -19.1600  -44.2014 H         1 UNK         0.3000 
    145 H145        1.2364  -21.4113  -45.7297 H         1 UNK         0.0600 
    146 H146        2.6677  -19.3873  -45.3954 H         1 UNK         0.0600 
    147 H147        1.2297  -18.3738  -45.3427 H         1 UNK         0.0600 
    148 H148        1.6504  -19.2421  -46.8138 H         1 UNK         0.0600 
    149 H149        1.5009  -19.9817  -43.3433 H         1 UNK         0.3000 
    150 H150        0.2779  -22.5889  -41.1734 H         1 UNK         0.0600 
    151 H151        2.5716  -23.1281  -41.9718 H         1 UNK         0.0600 
    152 H152        2.6233  -22.2819  -40.4328 H         1 UNK         0.0600 
    153 H153        3.0145  -21.4253  -41.9219 H         1 UNK         0.0600 
    154 H154        1.2700  -19.7688  -41.2192 H         1 UNK         0.3000 
    155 H155       -1.6783  -18.5532  -39.7495 H         1 UNK         0.0600 
    156 H156       -0.5092  -19.3274  -37.6696 H         1 UNK         0.0600 
    157 H157       -0.2339  -17.6182  -37.9659 H         1 UNK         0.0600 
    158 H158        1.0314  -18.7912  -38.3314 H         1 UNK         0.0600 
    159 H159        0.7817  -17.2497  -40.2506 H         1 UNK         0.3000 
    160 H160        0.5218  -16.7841  -43.7506 H         1 UNK         0.0600 
    161 H161        0.5267  -14.3715  -43.0097 H         1 UNK         0.0600 
    162 H162       -1.0738  -15.0995  -42.9356 H         1 UNK         0.0600 
    163 H163       -0.1438  -14.8625  -41.4612 H         1 UNK         0.0600 
    164 H164        2.3094  -15.5944  -41.9775 H         1 UNK         0.3000 
    165 H165        4.6136  -18.1314  -41.3244 H         1 UNK         0.0600 
    166 H166        6.1810  -16.9828  -42.9370 H         1 UNK         0.0600 
    167 H167        5.1158  -18.1370  -43.7286 H         1 UNK         0.0600 
    168 H168        4.7815  -16.4195  -43.8532 H         1 UNK         0.0600 
    169 H169        4.8616  -15.2659  -41.5836 H         1 UNK         0.3000 
    170 H170        3.3946  -14.4096  -38.5075 H         1 UNK         0.0600 
    171 H171        6.4219  -14.7403  -38.8654 H         1 UNK         0.0600 
    172 H172        5.6236  -13.6763  -37.7062 H         1 UNK         0.0600 
    173 H173        5.4736  -15.4184  -37.5475 H         1 UNK         0.0600 
    174 H174        5.2231  -12.9367  -40.0783 H         1 UNK         0.3000 
    175 H175        2.8470  -11.1416  -41.6785 H         1 UNK         0.0600 
    176 H176        5.8705  -11.6849  -41.5965 H         1 UNK         0.0600 
    177 H177        5.0921  -10.1830  -42.0730 H         1 UNK         0.0600 
    178 H178        4.9642  -10.7376  -40.4159 H         1 UNK         0.0600 
    179 H179        3.0033  -11.7286  -43.8164 H         1 UNK         0.3000 
    180 H180        4.3467  -12.2526  -45.7766 H         1 UNK         0.0600 
    181 H181        5.2471  -14.1204  -47.1053 H         1 UNK         0.0600 
    182 H182        5.3551  -15.1357  -45.6704 H         1 UNK         0.0600 
    183 H183        6.3536  -13.6970  -45.8085 H         1 UNK         0.0600 
    184 H184        2.9322  -14.7814  -45.9803 H         1 UNK         0.3000 
    185 H185        0.0349  -14.1717  -45.2518 H         1 UNK         0.0600 
    186 H186       -1.3819  -13.4082  -47.1716 H         1 UNK         0.0600 
    187 H187       -0.7945  -12.0748  -46.1953 H         1 UNK         0.0600 
    188 H188       -0.0477  -12.4121  -47.7495 H         1 UNK         0.0600 
    189 H189        0.4812  -15.8915  -46.5219 H         1 UNK         0.3000 
    190 H190       -2.3779  -21.2078  -43.5471 H         1 UNK         0.3000 
    191 H191       -4.9782  -22.5313  -43.4420 H         1 UNK         0.0600 
    192 H192       -3.6213  -22.2562  -41.3847 H         1 UNK         0.0600 
    193 H193       -2.3173  -23.2130  -42.0804 H         1 UNK         0.0600 
    194 H194       -3.8716  -23.9587  -41.7382 H         1 UNK         0.0600 
    195 H195       -1.6632  -23.3493  -44.5828 H         1 UNK         0.3000 
    196 H196       -2.3856  -25.8965  -45.7133 H         1 UNK         0.0600 
    197 H197       -0.0784  -25.3494  -44.9754 H         1 UNK         0.0600 
    198 H198        0.0388  -24.0762  -46.1870 H         1 UNK         0.0600 
    199 H199       -0.0843  -25.7620  -46.6835 H         1 UNK         0.0600 
    200 H200       -2.1424  -22.6063  -46.9948 H         1 UNK         0.3000 
    201 H201       -2.8469  -21.5410  -48.7432 H         1 UNK         0.0600 
    202 H202       -4.9877  -22.7984  -48.6481 H         1 UNK         0.0600 
    203 H203       -4.3276  -24.0272  -49.7264 H         1 UNK         0.0600 
    204 H204       -4.5496  -22.3768  -50.2941 H         1 UNK         0.0600 
    205 H205       -0.6347  -23.8944  -48.8553 H         1 UNK         0.3000 
    206 H206        1.1114  -24.4492  -50.1024 H         1 UNK         0.0600 
    207 H207        0.9238  -21.5774  -51.1610 H         1 UNK         0.0600 
    208 H208        1.5187  -22.0047  -49.5609 H         1 UNK         0.0600 
    209 H209        2.3824  -22.5510  -50.9821 H         1 UNK         0.0600 
    210 H210        1.6742  -23.0073  -52.7992 H         1 UNK         0.3000 
    211 H211        0.5378  -25.0387  -54.5542 H         1 UNK         0.0600 
    212 H212        2.3121  -22.6020  -55.1235 H         1 UNK         0.0600 
    213 H213        1.9425  -23.8910  -56.2625 H         1 UNK         0.0600 
    214 H214        2.8812  -24.2445  -54.8213 H         1 UNK         0.0600 
    215 H215       -0.4393  -21.9085  -53.4872 H         1 UNK         0.3000 
    216 H216       -1.9581  -21.0205  -55.7706 H         1 UNK         0.0600 
    217 H217       -3.0694  -19.6141  -53.7917 H         1 UNK         0.0600 
    218 H218       -1.4089  -19.2895  -54.2715 H         1 UNK         0.0600 
    219 H219       -1.7407  -20.2504  -52.8433 H         1 UNK         0.0600 
    220 H220       -2.7927  -22.7265  -52.7529 H         1 UNK         0.3000 
    221 H221       -4.4201  -24.0903  -52.1243 H         1 UNK         0.0600 
    222 H222       -4.3220  -24.9702  -55.0624 H         1 UNK         0.0600 
    223 H223       -3.2643  -25.5224  -53.7730 H         1 UNK         0.0600 
    224 H224       -4.9685  -25.9231  -53.7217 H         1 UNK         0.0600 
    225 H225       -6.3956  -24.7102  -54.6910 H         1 UNK         0.3000 
    226 H226       -8.3594  -22.5298  -54.0978 H         1 UNK         0.0600 
    227 H227       -9.1232  -24.8120  -53.3894 H         1 UNK         0.0600 
    228 H228      -10.0911  -24.1943  -54.7168 H         1 UNK         0.0600 
    229 H229       -8.8589  -25.4125  -55.0263 H         1 UNK         0.0600 
    230 H230       -6.0098  -23.1998  -56.2512 H         1 UNK         0.3000 
    231 H231       -7.4683  -22.8410  -58.7818 H         1 UNK         0.0600 
    232 H232       -5.1775  -22.8143  -59.7552 H         1 UNK         0.0600 
    233 H233       -5.4135  -24.2353  -58.7491 H         1 UNK         0.0600 
    234 H234       -4.4666  -22.8759  -58.1475 H         1 UNK         0.0600 
    235 H235       -5.3813  -21.0331  -56.5479 H         1 UNK         0.3000 
    236 H236       -6.2971  -18.4121  -57.6596 H         1 UNK         0.0600 
    237 H237       -3.9593  -19.0825  -55.7932 H         1 UNK         0.0600 
    238 H238       -3.8042  -18.7085  -57.5043 H         1 UNK         0.0600 
    239 H239       -4.3688  -17.4790  -56.3873 H         1 UNK         0.0600 
    240 H240       -6.3348  -16.8332  -55.5856 H         1 UNK         0.3000 
    241 H241       -7.4071  -16.0995  -53.8167 H         1 UNK         0.0600 
    242 H242       -9.0652  -17.3613  -56.1812 H         1 UNK         0.3800 
    243 H243      -10.6738  -17.3008  -55.5105 H         1 UNK         0.3800 
    244 H244       -7.3929  -18.9350  -52.6673 H         1 UNK         0.0800 
    245 H245       -7.7916  -17.4880  -51.7830 H         1 UNK         0.0800 
    246 H246       -5.1701  -19.7593  -51.1775 H         1 UNK         0.0800 
    247 H247       -6.2009  -18.7407  -50.2006 H         1 UNK         0.0800 
@<TRIPOS>BOND
     1    1    2 1    
     2    1  127 1    
     3    1  128 1    
     4    1  129 1    
     5    2    3 2    
     6    2    4 am   BACKBONE|DICT|INTERRES
     7    4    5 1    
     8    4  130 1    
     9    5    6 1    
    10    5   65 1    
    11    5  131 1    
    12    6    7 1    
    13    6  132 1    
    14    6  133 1    
    15    7    8 1    
    16    8    9 1    
    17    8  134 1    
    18    8  135 1    
    19    9   10 ar   
    20    9   14 ar   
    21   10   11 ar   
    22   10  136 1    
    23   11   12 ar   
    24   11  126 1    
    25   12   13 ar   
    26   12  137 1    
    27   13   14 ar   
    28   13   15 1    
    29   14  138 1    
    30   15   16 1    
    31   15  139 1    
    32   15  140 1    
    33   16   17 1    
    34   17   18 1    
    35   17  141 1    
    36   17  142 1    
    37   18   19 1    
    38   18   67 1    
    39   18  143 1    
    40   19   20 am   BACKBONE|DICT|INTERRES
    41   19  144 1    
    42   20   21 2    
    43   20   22 1    
    44   22   23 1    
    45   22   24 1    
    46   22  145 1    
    47   23  146 1    
    48   23  147 1    
    49   23  148 1    
    50   24   25 am   BACKBONE|DICT|INTERRES
    51   24  149 1    
    52   25   26 2    
    53   25   27 1    
    54   27   28 1    
    55   27   29 1    
    56   27  150 1    
    57   28  151 1    
    58   28  152 1    
    59   28  153 1    
    60   29   30 am   BACKBONE|DICT|INTERRES
    61   29  154 1    
    62   30   31 2    
    63   30   32 1    
    64   32   33 1    
    65   32   34 1    
    66   32  155 1    
    67   33  156 1    
    68   33  157 1    
    69   33  158 1    
    70   34   35 am   BACKBONE|DICT|INTERRES
    71   34  159 1    
    72   35   36 2    
    73   35   37 1    
    74   37   38 1    
    75   37   39 1    
    76   37  160 1    
    77   38  161 1    
    78   38  162 1    
    79   38  163 1    
    80   39   40 am   BACKBONE|DICT|INTERRES
    81   39  164 1    
    82   40   41 2    
    83   40   42 1    
    84   42   43 1    
    85   42   44 1    
    86   42  165 1    
    87   43  166 1    
    88   43  167 1    
    89   43  168 1    
    90   44   45 am   BACKBONE|DICT|INTERRES
    91   44  169 1    
    92   45   46 2    
    93   45   47 1    
    94   47   48 1    
    95   47   49 1    
    96   47  170 1    
    97   48  171 1    
    98   48  172 1    
    99   48  173 1    
   100   49   50 am   BACKBONE|DICT|INTERRES
   101   49  174 1    
   102   50   51 2    
   103   50   52 1    
   104   52   53 1    
   105   52   54 1    
   106   52  175 1    
   107   53  176 1    
   108   53  177 1    
   109   53  178 1    
   110   54   55 am   BACKBONE|DICT|INTERRES
   111   54  179 1    
   112   55   56 2    
   113   55   57 1    
   114   57   58 1    
   115   57   59 1    
   116   57  180 1    
   117   58  181 1    
   118   58  182 1    
   119   58  183 1    
   120   59   60 am   BACKBONE|DICT|INTERRES
   121   59  184 1    
   122   60   61 2    
   123   60   62 1    
   124   62   63 1    
   125   62   64 1    
   126   62  185 1    
   127   63  186 1    
   128   63  187 1    
   129   63  188 1    
   130   64   65 am   BACKBONE|DICT|INTERRES
   131   64  189 1    
   132   65   66 2    
   133   67   68 2    
   134   67   69 am   BACKBONE|DICT|INTERRES
   135   69   70 1    
   136   69  190 1    
   137   70   71 1    
   138   70   72 1    
   139   70  191 1    
   140   71  192 1    
   141   71  193 1    
   142   71  194 1    
   143   72   73 2    
   144   72   74 am   BACKBONE|DICT|INTERRES
   145   74   75 1    
   146   74  195 1    
   147   75   76 1    
   148   75   77 1    
   149   75  196 1    
   150   76  197 1    
   151   76  198 1    
   152   76  199 1    
   153   77   78 2    
   154   77   79 am   BACKBONE|DICT|INTERRES
   155   79   80 1    
   156   79  200 1    
   157   80   81 1    
   158   80   82 1    
   159   80  201 1    
   160   81  202 1    
   161   81  203 1    
   162   81  204 1    
   163   82   83 2    
   164   82   84 am   BACKBONE|DICT|INTERRES
   165   84   85 1    
   166   84  205 1    
   167   85   86 1    
   168   85   87 1    
   169   85  206 1    
   170   86  207 1    
   171   86  208 1    
   172   86  209 1    
   173   87   88 2    
   174   87   89 am   BACKBONE|DICT|INTERRES
   175   89   90 1    
   176   89  210 1    
   177   90   91 1    
   178   90   92 1    
   179   90  211 1    
   180   91  212 1    
   181   91  213 1    
   182   91  214 1    
   183   92   93 2    
   184   92   94 am   BACKBONE|DICT|INTERRES
   185   94   95 1    
   186   94  215 1    
   187   95   96 1    
   188   95   97 1    
   189   95  216 1    
   190   96  217 1    
   191   96  218 1    
   192   96  219 1    
   193   97   98 2    
   194   97   99 am   BACKBONE|DICT|INTERRES
   195   99  100 1    
   196   99  220 1    
   197  100  101 1    
   198  100  102 1    
   199  100  221 1    
   200  101  222 1    
   201  101  223 1    
   202  101  224 1    
   203  102  103 2    
   204  102  104 am   BACKBONE|DICT|INTERRES
   205  104  105 1    
   206  104  225 1    
   207  105  106 1    
   208  105  107 1    
   209  105  226 1    
   210  106  227 1    
   211  106  228 1    
   212  106  229 1    
   213  107  108 2    
   214  107  109 am   BACKBONE|DICT|INTERRES
   215  109  110 1    
   216  109  230 1    
   217  110  111 1    
   218  110  112 1    
   219  110  231 1    
   220  111  232 1    
   221  111  233 1    
   222  111  234 1    
   223  112  113 2    
   224  112  114 am   BACKBONE|DICT|INTERRES
   225  114  115 1    
   226  114  235 1    
   227  115  116 1    
   228  115  117 1    
   229  115  236 1    
   230  116  237 1    
   231  116  238 1    
   232  116  239 1    
   233  117  118 2    
   234  117  119 am   BACKBONE|DICT|INTERRES
   235  119  120 1    
   236  119  240 1    
   237  120  121 1    
   238  120  124 1    
   239  120  241 1    
   240  121  122 am   BACKBONE|DICT|INTERRES
   241  121  123 2    
   242  122  242 1    
   243  122  243 1    
   244  124  125 1    
   245  124  244 1    
   246  124  245 1    
   247  125  126 1    
   248  126  246 1    
   249  126  247 1    
@<TRIPOS>SUBSTRUCTURE
     1 UNK         1 GROUP             0       ****    0 ROOT    
