@<TRIPOS>MOLECULE
3R540
247   249    1
SMALL
USER_CHARGES


@<TRIPOS>ATOM
      1 CA          4.5825  -14.6632  -43.7452 C.3       0 UNK        -0.1800 
      2 C           3.4584  -14.4405  -44.7461 C.2       0 UNK         0.5000 
      3 O           2.3688  -14.9906  -44.5777 O.2       0 UNK        -0.5000 
      4 N           3.7310  -13.6416  -45.7797 N.am      1 UNK        -0.5000 
      5 CA          2.7753  -13.1791  -46.7858 C.3       1 UNK         0.1400 
      6 C6          2.6459  -14.1472  -47.9926 C.3       23 UNK        -0.0398 
      7 S7          1.1019  -13.8697  -48.9310 S.3       23 UNK        -0.2404 
      8 C8          0.1390  -15.3643  -48.5516 C.3       23 UNK        -0.0205 
      9 C9          0.4768  -16.5122  -49.4901 C.ar      23 UNK        -0.0193 
     10 C10         0.0166  -16.4934  -50.8095 C.ar      23 UNK        -0.1150 
     11 C11         0.3107  -17.5466  -51.6795 C.ar      23 UNK        -0.0193 
     12 C12         1.0686  -18.6269  -51.2187 C.ar      23 UNK        -0.1150 
     13 C13         1.5174  -18.6693  -49.8948 C.ar      23 UNK        -0.0193 
     14 C14         1.2278  -17.6011  -49.0407 C.ar      23 UNK        -0.1150 
     15 C15         2.3291  -19.8551  -49.3860 C.3       23 UNK        -0.0205 
     16 S16         1.5175  -21.4642  -49.6678 S.3       23 UNK        -0.2404 
     17 C17        -0.0825  -21.2927  -48.8047 C.3       23 UNK        -0.0398 
     18 CA         -0.3369  -22.4834  -47.8452 C.3       11 UNK         0.1400 
     19 N           0.2525  -22.2797  -46.5185 N.am      11 UNK        -0.5000 
     20 C           0.3808  -23.2422  -45.5944 C.2       10 UNK         0.5000 
     21 O           0.0334  -24.4088  -45.7720 O.2       10 UNK        -0.5000 
     22 CA          0.9346  -22.8266  -44.2217 C.3       10 UNK         0.1400 
     23 CB          2.4504  -22.5866  -44.2824 C.3       10 UNK        -0.1800 
     24 N           0.2555  -21.6469  -43.6864 N.am      10 UNK        -0.5000 
     25 C          -1.0396  -21.6176  -43.3389 C.2       9 UNK         0.5000 
     26 O          -1.7897  -22.5904  -43.4149 O.2       9 UNK        -0.5000 
     27 CA         -1.6019  -20.2695  -42.8547 C.3       9 UNK         0.1400 
     28 CB         -1.2906  -20.0582  -41.3657 C.3       9 UNK        -0.1800 
     29 N          -1.0932  -19.1331  -43.6196 N.am      9 UNK        -0.5000 
     30 C          -1.3068  -18.9268  -44.9265 C.2       8 UNK         0.5000 
     31 O          -1.9818  -19.6660  -45.6410 O.2       8 UNK        -0.5000 
     32 CA         -0.5751  -17.7278  -45.5540 C.3       8 UNK         0.1400 
     33 CB         -1.2478  -16.4046  -45.1494 C.3       8 UNK        -0.1800 
     34 N           0.8452  -17.7001  -45.1941 N.am      8 UNK        -0.5000 
     35 C           1.7115  -18.6966  -45.4387 C.2       7 UNK         0.5000 
     36 O           1.4134  -19.7302  -46.0338 O.2       7 UNK        -0.5000 
     37 CA          3.1416  -18.5286  -44.9103 C.3       7 UNK         0.1400 
     38 CB          4.0226  -17.8092  -45.9419 C.3       7 UNK        -0.1800 
     39 N           3.1473  -17.8087  -43.6376 N.am      7 UNK        -0.5000 
     40 C           2.9124  -18.3973  -42.4575 C.2       6 UNK         0.5000 
     41 O           2.7154  -19.6054  -42.3225 O.2       6 UNK        -0.5000 
     42 CA          2.8541  -17.4770  -41.2246 C.3       6 UNK         0.1400 
     43 CB          4.2679  -17.1735  -40.7053 C.3       6 UNK        -0.1800 
     44 N           2.1337  -16.2191  -41.4496 N.am      6 UNK        -0.5000 
     45 C           0.8334  -16.1419  -41.7708 C.2       5 UNK         0.5000 
     46 O           0.1437  -17.1289  -42.0230 O.2       5 UNK        -0.5000 
     47 CA          0.1643  -14.7559  -41.7954 C.3       5 UNK         0.1400 
     48 CB         -0.8816  -14.6768  -40.6674 C.3       5 UNK        -0.1800 
     49 N           1.1183  -13.6544  -41.6326 N.am      5 UNK        -0.5000 
     50 C           1.1915  -12.5085  -42.3261 C.2       4 UNK         0.5000 
     51 O           2.0623  -11.6760  -42.0624 O.2       4 UNK        -0.5000 
     52 CA          0.1867  -12.1937  -43.4616 C.3       4 UNK         0.1400 
     53 CB         -1.2484  -11.9655  -42.9358 C.3       4 UNK        -0.1800 
     54 N           0.6314  -10.9710  -44.1277 N.am      4 UNK        -0.5000 
     55 C           0.2630  -10.5474  -45.3424 C.2       3 UNK         0.5000 
     56 O          -0.4671  -11.1941  -46.0925 O.2       3 UNK        -0.5000 
     57 CA          0.8034   -9.1802  -45.8108 C.3       3 UNK         0.1400 
     58 CB         -0.3418   -8.1570  -45.8738 C.3       3 UNK        -0.1800 
     59 N           1.8461   -8.6479  -44.9233 N.am      3 UNK        -0.5000 
     60 C           3.1790   -8.7565  -45.0395 C.2       2 UNK         0.5000 
     61 O           3.9226   -8.2866  -44.1795 O.2       2 UNK        -0.5000 
     62 CA          3.7939   -9.5105  -46.2373 C.3       2 UNK         0.1400 
     63 CB          5.3257   -9.3636  -46.3252 C.3       2 UNK        -0.1800 
     64 N           3.4551  -10.9256  -46.1320 N.am      2 UNK        -0.5000 
     65 C           3.1554  -11.7299  -47.1599 C.2       1 UNK         0.5000 
     66 O           3.1978  -11.3672  -48.3358 O.2       1 UNK        -0.5000 
     67 C          -1.8350  -22.8403  -47.7663 C.2       11 UNK         0.5000 
     68 O          -2.2825  -23.6979  -48.5299 O.2       11 UNK        -0.5000 
     69 N          -2.5835  -22.2237  -46.8401 N.am      12 UNK        -0.5000 
     70 CA         -3.9865  -22.5499  -46.5698 C.3       12 UNK         0.1400 
     71 CB         -4.5823  -21.5448  -45.5741 C.3       12 UNK        -0.1800 
     72 C          -4.1818  -23.9930  -46.0700 C.2       12 UNK         0.5000 
     73 O          -5.1347  -24.6507  -46.4860 O.2       12 UNK        -0.5000 
     74 N          -3.2716  -24.4645  -45.2093 N.am      13 UNK        -0.5000 
     75 CA         -3.2784  -25.8222  -44.6733 C.3       13 UNK         0.1400 
     76 CB         -2.4219  -25.8719  -43.3978 C.3       13 UNK        -0.1800 
     77 C          -2.7979  -26.8670  -45.6962 C.2       13 UNK         0.5000 
     78 O          -3.4874  -27.8640  -45.9139 O.2       13 UNK        -0.5000 
     79 N          -1.6117  -26.6432  -46.2764 N.am      14 UNK        -0.5000 
     80 CA         -0.8952  -27.6424  -47.0694 C.3       14 UNK         0.1400 
     81 CB          0.6117  -27.3464  -47.0117 C.3       14 UNK        -0.1800 
     82 C          -1.3572  -27.7281  -48.5321 C.2       14 UNK         0.5000 
     83 O          -1.3736  -28.8272  -49.0881 O.2       14 UNK        -0.5000 
     84 N          -1.6880  -26.5812  -49.1385 N.am      15 UNK        -0.5000 
     85 CA         -1.9563  -26.4581  -50.5746 C.3       15 UNK         0.1400 
     86 CB         -0.9309  -25.4796  -51.1767 C.3       15 UNK        -0.1800 
     87 C          -3.3916  -25.9966  -50.8759 C.2       15 UNK         0.5000 
     88 O          -3.7104  -25.7686  -52.0441 O.2       15 UNK        -0.5000 
     89 N          -4.2201  -25.8153  -49.8358 N.am      16 UNK        -0.5000 
     90 CA         -5.5748  -25.2501  -49.8898 C.3       16 UNK         0.1400 
     91 CB         -6.5406  -26.2121  -50.6137 C.3       16 UNK        -0.1800 
     92 C          -5.5877  -23.8244  -50.4836 C.2       16 UNK         0.5000 
     93 O          -6.4785  -23.4892  -51.2644 O.2       16 UNK        -0.5000 
     94 N          -4.5567  -23.0333  -50.1454 N.am      17 UNK        -0.5000 
     95 CA         -4.2497  -21.7021  -50.6813 C.3       17 UNK         0.1400 
     96 CB         -5.3260  -20.6772  -50.2653 C.3       17 UNK        -0.1800 
     97 C          -3.9899  -21.7462  -52.2015 C.2       17 UNK         0.5000 
     98 O          -4.4989  -20.9048  -52.9422 O.2       17 UNK        -0.5000 
     99 N          -3.2306  -22.7687  -52.6260 N.am      18 UNK        -0.5000 
    100 CA        -2.9302  -23.1476  -54.0110 C.3       18 UNK         0.1400 
    101 CB        -2.0381  -22.0886  -54.6880 C.3       18 UNK        -0.1800 
    102 C         -4.2134  -23.4608  -54.8056 C.2       18 UNK         0.5000 
    103 O         -4.4172  -22.9220  -55.8932 O.2       18 UNK        -0.5000 
    104 N         -5.0813  -24.2935  -54.2112 N.am      19 UNK        -0.5000 
    105 CA        -6.4398  -24.6156  -54.6675 C.3       19 UNK         0.1400 
    106 CB        -6.3946  -25.4962  -55.9331 C.3       19 UNK        -0.1800 
    107 C         -7.3085  -23.3480  -54.8362 C.2       19 UNK         0.5000 
    108 O         -7.9390  -23.1503  -55.8762 O.2       19 UNK        -0.5000 
    109 N         -7.2764  -22.4974  -53.8021 N.am      20 UNK        -0.5000 
    110 CA        -7.9263  -21.1919  -53.6579 C.3       20 UNK         0.1400 
    111 CB        -9.4598  -21.3239  -53.7562 C.3       20 UNK        -0.1800 
    112 C         -7.3840  -20.0693  -54.5701 C.2       20 UNK         0.5000 
    113 O         -7.9005  -18.9524  -54.4952 O.2       20 UNK        -0.5000 
    114 N         -6.3486  -20.3322  -55.3829 N.am      21 UNK        -0.5000 
    115 CA        -5.7454  -19.3530  -56.2946 C.3       21 UNK         0.1400 
    116 CB        -4.7575  -20.0532  -57.2378 C.3       21 UNK        -0.1800 
    117 C         -5.0607  -18.1726  -55.5780 C.2       21 UNK         0.5000 
    118 O         -5.0278  -17.0728  -56.1323 O.2       21 UNK        -0.5000 
    119 N         -4.5567  -18.4055  -54.3598 N.am      22 UNK        -0.5000 
    120 CA        -4.0087  -17.3680  -53.4710 C.3       22 UNK         0.1400 
    121 C         -5.0973  -16.5783  -52.6822 C.2       22 UNK         0.5000 
    122 N         -6.3847  -16.8821  -52.8107 N.am      22 UNK        -0.7600 
    123 O         -4.7682  -15.6551  -51.9426 O.2       22 UNK        -0.5000 
    124 C124       -2.9247  -17.9314  -52.5154 C.3       23 UNK        -0.0398 
    125 S125       -1.5290  -18.7080  -53.4003 S.3       23 UNK        -0.2404 
    126 C126       -0.1819  -17.5175  -53.1186 C.3       23 UNK        -0.0205 
    127 H127        4.9750  -15.6757  -43.8275 H         1 UNK         0.0600 
    128 H128        4.2168  -14.5109  -42.7305 H         1 UNK         0.0600 
    129 H129        5.4078  -13.9696  -43.9077 H         1 UNK         0.0600 
    130 H130        4.6575  -13.2448  -45.8663 H         1 UNK         0.3000 
    131 H131        1.7966  -13.1127  -46.3052 H         1 UNK         0.0600 
    132 H132        3.4988  -14.0538  -48.6666 H         1 UNK         0.0800 
    133 H133        2.6582  -15.1797  -47.6450 H         1 UNK         0.0800 
    134 H134       -0.9234  -15.1320  -48.6375 H         1 UNK         0.0800 
    135 H135        0.3081  -15.6481  -47.5141 H         1 UNK         0.0800 
    136 H136       -0.5669  -15.6525  -51.1578 H         1 UNK         0.1150 
    137 H137        1.2954  -19.4444  -51.8888 H         1 UNK         0.1150 
    138 H138        1.5855  -17.6164  -48.0233 H         1 UNK         0.1150 
    139 H139        3.2934  -19.8586  -49.8953 H         1 UNK         0.0800 
    140 H140        2.5493  -19.7547  -48.3244 H         1 UNK         0.0800 
    141 H141       -0.8413  -21.2365  -49.5874 H         1 UNK         0.0800 
    142 H142       -0.1355  -20.3433  -48.2691 H         1 UNK         0.0800 
    143 H143        0.1417  -23.3691  -48.2701 H         1 UNK         0.0600 
    144 H144        0.5828  -21.3409  -46.3025 H         1 UNK         0.3000 
    145 H145        0.7559  -23.6522  -43.5294 H         1 UNK         0.0600 
    146 H146        2.8471  -22.3153  -43.3039 H         1 UNK         0.0600 
    147 H147        2.9718  -23.4881  -44.6063 H         1 UNK         0.0600 
    148 H148        2.7104  -21.7930  -44.9816 H         1 UNK         0.0600 
    149 H149        0.8027  -20.8018  -43.6024 H         1 UNK         0.3000 
    150 H150       -2.6863  -20.2962  -42.9768 H         1 UNK         0.0600 
    151 H151       -1.6685  -20.8861  -40.7646 H         1 UNK         0.0600 
    152 H152       -1.7553  -19.1453  -40.9926 H         1 UNK         0.0600 
    153 H153       -0.2170  -19.9822  -41.1868 H         1 UNK         0.0600 
    154 H154       -0.5377  -18.4538  -43.1029 H         1 UNK         0.3000 
    155 H155       -0.6352  -17.8278  -46.6394 H         1 UNK         0.0600 
    156 H156       -1.4112  -16.3437  -44.0741 H         1 UNK         0.0600 
    157 H157       -2.2239  -16.3107  -45.6264 H         1 UNK         0.0600 
    158 H158       -0.6563  -15.5373  -45.4414 H         1 UNK         0.0600 
    159 H159        1.1810  -16.8737  -44.7163 H         1 UNK         0.3000 
    160 H160        3.5649  -19.5234  -44.7569 H         1 UNK         0.0600 
    161 H161        5.0241  -17.6275  -45.5522 H         1 UNK         0.0600 
    162 H162        3.5981  -16.8549  -46.2471 H         1 UNK         0.0600 
    163 H163        4.1311  -18.4138  -46.8430 H         1 UNK         0.0600 
    164 H164        3.2075  -16.8003  -43.6772 H         1 UNK         0.3000 
    165 H165        2.3205  -18.0210  -40.4421 H         1 UNK         0.0600 
    166 H166        4.2337  -16.6009  -39.7784 H         1 UNK         0.0600 
    167 H167        4.8113  -18.0957  -40.4950 H         1 UNK         0.0600 
    168 H168        4.8544  -16.6074  -41.4289 H         1 UNK         0.0600 
    169 H169        2.6491  -15.3692  -41.2864 H         1 UNK         0.3000 
    170 H170       -0.3385  -14.6907  -42.7585 H         1 UNK         0.0600 
    171 H171       -1.6792  -15.4048  -40.8221 H         1 UNK         0.0600 
    172 H172       -0.4344  -14.8846  -39.6944 H         1 UNK         0.0600 
    173 H173       -1.3468  -13.6942  -40.6046 H         1 UNK         0.0600 
    174 H174        1.7672  -13.7664  -40.8687 H         1 UNK         0.3000 
    175 H175        0.2035  -13.0074  -44.1892 H         1 UNK         0.0600 
    176 H176       -1.2538  -11.3508  -42.0348 H         1 UNK         0.0600 
    177 H177       -1.8779  -11.4679  -43.6733 H         1 UNK         0.0600 
    178 H178       -1.7500  -12.9024  -42.7049 H         1 UNK         0.0600 
    179 H179        1.2817  -10.4221  -43.5781 H         1 UNK         0.3000 
    180 H180        1.1816   -9.3067  -46.8252 H         1 UNK         0.0600 
    181 H181       -0.7926   -7.9947  -44.8939 H         1 UNK         0.0600 
    182 H182       -1.1321   -8.4929  -46.5467 H         1 UNK         0.0600 
    183 H183        0.0099   -7.1942  -46.2451 H         1 UNK         0.0600 
    184 H184        1.4952   -8.1444  -44.1218 H         1 UNK         0.3000 
    185 H185        3.3733   -9.0775  -47.1466 H         1 UNK         0.0600 
    186 H186        5.8237   -9.7964  -45.4568 H         1 UNK         0.0600 
    187 H187        5.7172   -9.8579  -47.2145 H         1 UNK         0.0600 
    188 H188        5.6156   -8.3139  -46.3846 H         1 UNK         0.0600 
    189 H189        3.4006  -11.2931  -45.1917 H         1 UNK         0.3000 
    190 H190       -2.1770  -21.4773  -46.2824 H         1 UNK         0.3000 
    191 H191       -4.5397  -22.4488  -47.5037 H         1 UNK         0.0600 
    192 H192       -4.0486  -21.5540  -44.6242 H         1 UNK         0.0600 
    193 H193       -5.6281  -21.7740  -45.3656 H         1 UNK         0.0600 
    194 H194       -4.5470  -20.5301  -45.9707 H         1 UNK         0.0600 
    195 H195       -2.5433  -23.8437  -44.8724 H         1 UNK         0.3000 
    196 H196       -4.3027  -26.0777  -44.3933 H         1 UNK         0.0600 
    197 H197       -2.4036  -26.8778  -42.9765 H         1 UNK         0.0600 
    198 H198       -2.8201  -25.2057  -42.6323 H         1 UNK         0.0600 
    199 H199       -1.3899  -25.5758  -43.5903 H         1 UNK         0.0600 
    200 H200       -1.0981  -25.7924  -46.0508 H         1 UNK         0.3000 
    201 H201       -1.0537  -28.6236  -46.6162 H         1 UNK         0.0600 
    202 H202        0.9707  -27.3237  -45.9826 H         1 UNK         0.0600 
    203 H203        0.8518  -26.3866  -47.4711 H         1 UNK         0.0600 
    204 H204        1.1813  -28.1131  -47.5385 H         1 UNK         0.0600 
    205 H205       -1.6809  -25.7153  -48.6111 H         1 UNK         0.3000 
    206 H206       -1.8337  -27.4190  -51.0777 H         1 UNK         0.0600 
    207 H207       -1.0415  -25.4083  -52.2592 H         1 UNK         0.0600 
    208 H208       -1.0366  -24.4746  -50.7677 H         1 UNK         0.0600 
    209 H209        0.0888  -25.8117  -50.9812 H         1 UNK         0.0600 
    210 H210       -3.8624  -26.0143  -48.9123 H         1 UNK         0.3000 
    211 H211       -5.9226  -25.1560  -48.8624 H         1 UNK         0.0600 
    212 H212       -6.2939  -26.3220  -51.6697 H         1 UNK         0.0600 
    213 H213       -7.5681  -25.8514  -50.5549 H         1 UNK         0.0600 
    214 H214       -6.5199  -27.2032  -50.1607 H         1 UNK         0.0600 
    215 H215       -3.8476  -23.4226  -49.5284 H         1 UNK         0.3000 
    216 H216       -3.3102  -21.3914  -50.2232 H         1 UNK         0.0600 
    217 H217       -5.0582  -19.6699  -50.5832 H         1 UNK         0.0600 
    218 H218       -5.4443  -20.6518  -49.1822 H         1 UNK         0.0600 
    219 H219       -6.2979  -20.9052  -50.7009 H         1 UNK         0.0600 
    220 H220       -2.9226  -23.4324  -51.9312 H         1 UNK         0.3000 
    221 H221       -2.3620  -24.0774  -53.9655 H         1 UNK         0.0600 
    222 H222       -2.5610  -21.1406  -54.8114 H         1 UNK         0.0600 
    223 H223       -1.1370  -21.9000  -54.1046 H         1 UNK         0.0600 
    224 H224       -1.7231  -22.4183  -55.6784 H         1 UNK         0.0600 
    225 H225       -4.7971  -24.7129  -53.3304 H         1 UNK         0.3000 
    226 H226       -6.9027  -25.2017  -53.8725 H         1 UNK         0.0600 
    227 H227       -7.3956  -25.8237  -56.2157 H         1 UNK         0.0600 
    228 H228       -5.9725  -24.9627  -56.7852 H         1 UNK         0.0600 
    229 H229       -5.7950  -26.3913  -55.7677 H         1 UNK         0.0600 
    230 H230       -6.7534  -22.7918  -52.9798 H         1 UNK         0.3000 
    231 H231       -7.6964  -20.8720  -52.6414 H         1 UNK         0.0600 
    232 H232       -9.8334  -22.0937  -53.0810 H         1 UNK         0.0600 
    233 H233       -9.7825  -21.5758  -54.7665 H         1 UNK         0.0600 
    234 H234       -9.9515  -20.3896  -53.4829 H         1 UNK         0.0600 
    235 H235       -5.9346  -21.2558  -55.3672 H         1 UNK         0.3000 
    236 H236       -6.5512  -18.9394  -56.9045 H         1 UNK         0.0600 
    237 H237       -4.3849  -19.3612  -57.9940 H         1 UNK         0.0600 
    238 H238       -3.8934  -20.4397  -56.6977 H         1 UNK         0.0600 
    239 H239       -5.2291  -20.8852  -57.7610 H         1 UNK         0.0600 
    240 H240       -4.6117  -19.3436  -53.9678 H         1 UNK         0.3000 
    241 H241       -3.5140  -16.6223  -54.0959 H         1 UNK         0.0600 
    242 H242       -7.0675  -16.3502  -52.2949 H         1 UNK         0.3800 
    243 H243       -6.6953  -17.6146  -53.4373 H         1 UNK         0.3800 
    244 H244       -2.5405  -17.1427  -51.8682 H         1 UNK         0.0800 
    245 H245       -3.3563  -18.6763  -51.8484 H         1 UNK         0.0800 
    246 H246        0.6473  -17.7619  -53.7840 H         1 UNK         0.0800 
    247 H247       -0.5146  -16.5172  -53.4003 H         1 UNK         0.0800 
@<TRIPOS>BOND
     1    1    2 1    
     2    1  127 1    
     3    1  128 1    
     4    1  129 1    
     5    2    3 2    
     6    2    4 am   BACKBONE|DICT|INTERRES
     7    4    5 1    
     8    4  130 1    
     9    5    6 1    
    10    5   65 1    
    11    5  131 1    
    12    6    7 1    
    13    6  132 1    
    14    6  133 1    
    15    7    8 1    
    16    8    9 1    
    17    8  134 1    
    18    8  135 1    
    19    9   10 ar   
    20    9   14 ar   
    21   10   11 ar   
    22   10  136 1    
    23   11   12 ar   
    24   11  126 1    
    25   12   13 ar   
    26   12  137 1    
    27   13   14 ar   
    28   13   15 1    
    29   14  138 1    
    30   15   16 1    
    31   15  139 1    
    32   15  140 1    
    33   16   17 1    
    34   17   18 1    
    35   17  141 1    
    36   17  142 1    
    37   18   19 1    
    38   18   67 1    
    39   18  143 1    
    40   19   20 am   BACKBONE|DICT|INTERRES
    41   19  144 1    
    42   20   21 2    
    43   20   22 1    
    44   22   23 1    
    45   22   24 1    
    46   22  145 1    
    47   23  146 1    
    48   23  147 1    
    49   23  148 1    
    50   24   25 am   BACKBONE|DICT|INTERRES
    51   24  149 1    
    52   25   26 2    
    53   25   27 1    
    54   27   28 1    
    55   27   29 1    
    56   27  150 1    
    57   28  151 1    
    58   28  152 1    
    59   28  153 1    
    60   29   30 am   BACKBONE|DICT|INTERRES
    61   29  154 1    
    62   30   31 2    
    63   30   32 1    
    64   32   33 1    
    65   32   34 1    
    66   32  155 1    
    67   33  156 1    
    68   33  157 1    
    69   33  158 1    
    70   34   35 am   BACKBONE|DICT|INTERRES
    71   34  159 1    
    72   35   36 2    
    73   35   37 1    
    74   37   38 1    
    75   37   39 1    
    76   37  160 1    
    77   38  161 1    
    78   38  162 1    
    79   38  163 1    
    80   39   40 am   BACKBONE|DICT|INTERRES
    81   39  164 1    
    82   40   41 2    
    83   40   42 1    
    84   42   43 1    
    85   42   44 1    
    86   42  165 1    
    87   43  166 1    
    88   43  167 1    
    89   43  168 1    
    90   44   45 am   BACKBONE|DICT|INTERRES
    91   44  169 1    
    92   45   46 2    
    93   45   47 1    
    94   47   48 1    
    95   47   49 1    
    96   47  170 1    
    97   48  171 1    
    98   48  172 1    
    99   48  173 1    
   100   49   50 am   BACKBONE|DICT|INTERRES
   101   49  174 1    
   102   50   51 2    
   103   50   52 1    
   104   52   53 1    
   105   52   54 1    
   106   52  175 1    
   107   53  176 1    
   108   53  177 1    
   109   53  178 1    
   110   54   55 am   BACKBONE|DICT|INTERRES
   111   54  179 1    
   112   55   56 2    
   113   55   57 1    
   114   57   58 1    
   115   57   59 1    
   116   57  180 1    
   117   58  181 1    
   118   58  182 1    
   119   58  183 1    
   120   59   60 am   BACKBONE|DICT|INTERRES
   121   59  184 1    
   122   60   61 2    
   123   60   62 1    
   124   62   63 1    
   125   62   64 1    
   126   62  185 1    
   127   63  186 1    
   128   63  187 1    
   129   63  188 1    
   130   64   65 am   BACKBONE|DICT|INTERRES
   131   64  189 1    
   132   65   66 2    
   133   67   68 2    
   134   67   69 am   BACKBONE|DICT|INTERRES
   135   69   70 1    
   136   69  190 1    
   137   70   71 1    
   138   70   72 1    
   139   70  191 1    
   140   71  192 1    
   141   71  193 1    
   142   71  194 1    
   143   72   73 2    
   144   72   74 am   BACKBONE|DICT|INTERRES
   145   74   75 1    
   146   74  195 1    
   147   75   76 1    
   148   75   77 1    
   149   75  196 1    
   150   76  197 1    
   151   76  198 1    
   152   76  199 1    
   153   77   78 2    
   154   77   79 am   BACKBONE|DICT|INTERRES
   155   79   80 1    
   156   79  200 1    
   157   80   81 1    
   158   80   82 1    
   159   80  201 1    
   160   81  202 1    
   161   81  203 1    
   162   81  204 1    
   163   82   83 2    
   164   82   84 am   BACKBONE|DICT|INTERRES
   165   84   85 1    
   166   84  205 1    
   167   85   86 1    
   168   85   87 1    
   169   85  206 1    
   170   86  207 1    
   171   86  208 1    
   172   86  209 1    
   173   87   88 2    
   174   87   89 am   BACKBONE|DICT|INTERRES
   175   89   90 1    
   176   89  210 1    
   177   90   91 1    
   178   90   92 1    
   179   90  211 1    
   180   91  212 1    
   181   91  213 1    
   182   91  214 1    
   183   92   93 2    
   184   92   94 am   BACKBONE|DICT|INTERRES
   185   94   95 1    
   186   94  215 1    
   187   95   96 1    
   188   95   97 1    
   189   95  216 1    
   190   96  217 1    
   191   96  218 1    
   192   96  219 1    
   193   97   98 2    
   194   97   99 am   BACKBONE|DICT|INTERRES
   195   99  100 1    
   196   99  220 1    
   197  100  101 1    
   198  100  102 1    
   199  100  221 1    
   200  101  222 1    
   201  101  223 1    
   202  101  224 1    
   203  102  103 2    
   204  102  104 am   BACKBONE|DICT|INTERRES
   205  104  105 1    
   206  104  225 1    
   207  105  106 1    
   208  105  107 1    
   209  105  226 1    
   210  106  227 1    
   211  106  228 1    
   212  106  229 1    
   213  107  108 2    
   214  107  109 am   BACKBONE|DICT|INTERRES
   215  109  110 1    
   216  109  230 1    
   217  110  111 1    
   218  110  112 1    
   219  110  231 1    
   220  111  232 1    
   221  111  233 1    
   222  111  234 1    
   223  112  113 2    
   224  112  114 am   BACKBONE|DICT|INTERRES
   225  114  115 1    
   226  114  235 1    
   227  115  116 1    
   228  115  117 1    
   229  115  236 1    
   230  116  237 1    
   231  116  238 1    
   232  116  239 1    
   233  117  118 2    
   234  117  119 am   BACKBONE|DICT|INTERRES
   235  119  120 1    
   236  119  240 1    
   237  120  121 1    
   238  120  124 1    
   239  120  241 1    
   240  121  122 am   BACKBONE|DICT|INTERRES
   241  121  123 2    
   242  122  242 1    
   243  122  243 1    
   244  124  125 1    
   245  124  244 1    
   246  124  245 1    
   247  125  126 1    
   248  126  246 1    
   249  126  247 1    
@<TRIPOS>SUBSTRUCTURE
     1 UNK         1 GROUP             0       ****    0 ROOT    
