@<TRIPOS>MOLECULE
3R540
247   249    1
SMALL
USER_CHARGES


@<TRIPOS>ATOM
      1 CA         -3.0395  -15.6543  -47.4466 C.3       0 UNK        -0.1800 
      2 C          -1.7125  -15.4289  -48.1581 C.2       0 UNK         0.5000 
      3 O          -1.6907  -14.8094  -49.2210 O.2       0 UNK        -0.5000 
      4 N          -0.6152  -15.9511  -47.5941 N.am      1 UNK        -0.5000 
      5 CA          0.7380  -15.8674  -48.1582 C.3       1 UNK         0.1400 
      6 C6          1.6509  -16.9865  -47.5742 C.3       23 UNK        -0.0398 
      7 S7          3.4649  -16.7663  -47.6584 S.3       23 UNK        -0.2404 
      8 C8          3.8123  -16.8618  -49.4453 C.3       23 UNK        -0.0205 
      9 C9          3.1986  -18.0818  -50.1188 C.ar      23 UNK        -0.0193 
     10 C10         2.0910  -17.9278  -50.9547 C.ar      23 UNK        -0.1150 
     11 C11         1.5285  -19.0276  -51.6050 C.ar      23 UNK        -0.0193 
     12 C12         2.0851  -20.2962  -51.4176 C.ar      23 UNK        -0.1150 
     13 C13         3.1965  -20.4671  -50.5825 C.ar      23 UNK        -0.0193 
     14 C14         3.7480  -19.3544  -49.9368 C.ar      23 UNK        -0.1150 
     15 C15         3.8410  -21.8394  -50.4232 C.3       23 UNK        -0.0205 
     16 S16         2.6967  -23.1093  -49.7926 S.3       23 UNK        -0.2404 
     17 C17         2.5416  -22.6415  -48.0363 C.3       23 UNK        -0.0398 
     18 CA          1.2990  -23.2873  -47.3742 C.3       11 UNK         0.1400 
     19 N           1.4076  -23.3562  -45.9148 N.am      11 UNK        -0.5000 
     20 C           0.5998  -24.0832  -45.1274 C.2       10 UNK         0.5000 
     21 O          -0.2985  -24.8098  -45.5503 O.2       10 UNK        -0.5000 
     22 CA          0.7994  -23.9414  -43.6080 C.3       10 UNK         0.1400 
     23 CB          1.9219  -24.8687  -43.1196 C.3       10 UNK        -0.1800 
     24 N           1.0946  -22.5665  -43.2058 N.am      10 UNK        -0.5000 
     25 C           0.2364  -21.5429  -43.3174 C.2       9 UNK         0.5000 
     26 O          -0.9130  -21.6532  -43.7406 O.2       9 UNK        -0.5000 
     27 CA          0.7762  -20.1521  -42.9412 C.3       9 UNK         0.1400 
     28 CB          0.6727  -19.9313  -41.4255 C.3       9 UNK        -0.1800 
     29 N           2.1617  -19.9318  -43.3629 N.am      9 UNK        -0.5000 
     30 C           2.6152  -20.0128  -44.6207 C.2       8 UNK         0.5000 
     31 O           1.9107  -20.3199  -45.5847 O.2       8 UNK        -0.5000 
     32 CA          4.0942  -19.6410  -44.8224 C.3       8 UNK         0.1400 
     33 CB          4.6326  -20.0826  -46.1936 C.3       8 UNK        -0.1800 
     34 N           4.2350  -18.1942  -44.6991 N.am      8 UNK        -0.5000 
     35 C           4.3542  -17.5267  -43.5442 C.2       7 UNK         0.5000 
     36 O           4.4573  -18.0692  -42.4442 O.2       7 UNK        -0.5000 
     37 CA          4.2364  -15.9985  -43.6340 C.3       7 UNK         0.1400 
     38 CB          5.4412  -15.3854  -44.3647 C.3       7 UNK        -0.1800 
     39 N           3.0074  -15.6444  -44.3459 N.am      7 UNK        -0.5000 
     40 C           1.7647  -15.5785  -43.8485 C.2       6 UNK         0.5000 
     41 O           0.7957  -15.4394  -44.5954 O.2       6 UNK        -0.5000 
     42 CA          1.5257  -15.5960  -42.3286 C.3       6 UNK         0.1400 
     43 CB          1.8304  -14.2101  -41.7257 C.3       6 UNK        -0.1800 
     44 N           0.1269  -15.9450  -42.0830 N.am      6 UNK        -0.5000 
     45 C          -0.3595  -16.4152  -40.9280 C.2       5 UNK         0.5000 
     46 O           0.3259  -16.5557  -39.9141 O.2       5 UNK        -0.5000 
     47 CA         -1.8535  -16.7851  -40.9045 C.3       5 UNK         0.1400 
     48 CB         -2.4057  -17.0086  -39.4830 C.3       5 UNK        -0.1800 
     49 N          -2.6422  -15.7632  -41.5885 N.am      5 UNK        -0.5000 
     50 C          -3.7597  -15.9925  -42.2894 C.2       4 UNK         0.5000 
     51 O          -4.2732  -17.1056  -42.4088 O.2       4 UNK        -0.5000 
     52 CA         -4.4214  -14.7805  -42.9824 C.3       4 UNK         0.1400 
     53 CB         -5.6214  -14.2850  -42.1604 C.3       4 UNK        -0.1800 
     54 N          -3.5226  -13.6477  -43.2378 N.am      4 UNK        -0.5000 
     55 C          -2.4369  -13.6967  -44.0196 C.2       3 UNK         0.5000 
     56 O          -2.0583  -14.7265  -44.5818 O.2       3 UNK        -0.5000 
     57 CA         -1.6284  -12.3980  -44.1778 C.3       3 UNK         0.1400 
     58 CB         -1.2529  -11.7785  -42.8168 C.3       3 UNK        -0.1800 
     59 N          -0.4273  -12.7149  -44.9413 N.am      3 UNK        -0.5000 
     60 C           0.3042  -11.8650  -45.6725 C.2       2 UNK         0.5000 
     61 O           0.0892  -10.6535  -45.7239 O.2       2 UNK        -0.5000 
     62 CA          1.4516  -12.4625  -46.5087 C.3       2 UNK         0.1400 
     63 CB          2.7893  -12.3524  -45.7588 C.3       2 UNK        -0.1800 
     64 N           1.1860  -13.8637  -46.8327 N.am      2 UNK        -0.5000 
     65 C           1.2842  -14.4258  -48.0403 C.2       1 UNK         0.5000 
     66 O           1.7254  -13.8496  -49.0358 O.2       1 UNK        -0.5000 
     67 C          -0.0022  -22.5793  -47.7902 C.2       11 UNK         0.5000 
     68 O          -0.7377  -23.1080  -48.6220 O.2       11 UNK        -0.5000 
     69 N          -0.2902  -21.4319  -47.1574 N.am      12 UNK        -0.5000 
     70 CA         -1.5166  -20.6623  -47.3604 C.3       12 UNK         0.1400 
     71 CB         -1.4584  -19.3641  -46.5431 C.3       12 UNK        -0.1800 
     72 C          -2.7852  -21.4675  -47.0273 C.2       12 UNK         0.5000 
     73 O          -3.7313  -21.4451  -47.8146 O.2       12 UNK        -0.5000 
     74 N          -2.7651  -22.1900  -45.8981 N.am      13 UNK        -0.5000 
     75 CA         -3.8376  -23.0801  -45.4545 C.3       13 UNK         0.1400 
     76 CB         -3.5483  -23.5714  -44.0282 C.3       13 UNK        -0.1800 
     77 C          -4.0611  -24.2675  -46.4069 C.2       13 UNK         0.5000 
     78 O          -5.2026  -24.5205  -46.7945 O.2       13 UNK        -0.5000 
     79 N          -2.9736  -24.9480  -46.8016 N.am      14 UNK        -0.5000 
     80 CA         -2.9912  -26.0630  -47.7557 C.3       14 UNK         0.1400 
     81 CB         -1.5907  -26.6871  -47.8455 C.3       14 UNK        -0.1800 
     82 C          -3.4878  -25.6509  -49.1542 C.2       14 UNK         0.5000 
     83 O          -4.1746  -26.4297  -49.8154 O.2       14 UNK        -0.5000 
     84 N          -3.1700  -24.4140  -49.5513 N.am      15 UNK        -0.5000 
     85 CA         -3.6197  -23.7653  -50.7788 C.3       15 UNK         0.1400 
     86 CB         -2.5650  -22.7295  -51.1878 C.3       15 UNK        -0.1800 
     87 C          -5.0243  -23.1312  -50.6710 C.2       15 UNK         0.5000 
     88 O          -5.3968  -22.3700  -51.5637 O.2       15 UNK        -0.5000 
     89 N          -5.7807  -23.4443  -49.6069 N.am      16 UNK        -0.5000 
     90 CA         -7.1663  -23.0314  -49.3568 C.3       16 UNK         0.1400 
     91 CB         -8.1165  -23.6822  -50.3846 C.3       16 UNK        -0.1800 
     92 C          -7.3188  -21.4994  -49.2762 C.2       16 UNK         0.5000 
     93 O          -8.1398  -20.9158  -49.9860 O.2       16 UNK        -0.5000 
     94 N          -6.4900  -20.8888  -48.4178 N.am      17 UNK        -0.5000 
     95 CA         -6.2765  -19.4487  -48.2555 C.3       17 UNK         0.1400 
     96 CB         -7.5676  -18.7099  -47.8432 C.3       17 UNK        -0.1800 
     97 C          -5.5923  -18.8624  -49.5035 C.2       17 UNK         0.5000 
     98 O          -6.1089  -17.9310  -50.1223 O.2       17 UNK        -0.5000 
     99 N          -4.4463  -19.4621  -49.8598 N.am      18 UNK        -0.5000 
    100 CA        -3.5322  -19.1399  -50.9664 C.3       18 UNK         0.1400 
    101 CB        -2.9944  -17.7017  -50.8415 C.3       18 UNK        -0.1800 
    102 C         -4.0664  -19.4077  -52.3886 C.2       18 UNK         0.5000 
    103 O         -3.2736  -19.7693  -53.2594 O.2       18 UNK        -0.5000 
    104 N         -5.3741  -19.2263  -52.5980 N.am      19 UNK        -0.5000 
    105 CA        -6.0752  -19.1896  -53.8824 C.3       19 UNK         0.1400 
    106 CB        -7.5763  -19.0110  -53.6066 C.3       19 UNK        -0.1800 
    107 C         -5.8512  -20.3799  -54.8360 C.2       19 UNK         0.5000 
    108 O         -5.8977  -20.1817  -56.0511 O.2       19 UNK        -0.5000 
    109 N         -5.6348  -21.5887  -54.2999 N.am      20 UNK        -0.5000 
    110 CA        -5.4337  -22.7971  -55.1037 C.3       20 UNK         0.1400 
    111 CB        -5.7996  -24.0383  -54.2755 C.3       20 UNK        -0.1800 
    112 C         -4.0039  -22.9255  -55.6632 C.2       20 UNK         0.5000 
    113 O         -3.8140  -23.6592  -56.6346 O.2       20 UNK        -0.5000 
    114 N         -3.0306  -22.2370  -55.0508 N.am      21 UNK        -0.5000 
    115 CA        -1.6220  -22.2683  -55.4512 C.3       21 UNK         0.1400 
    116 CB        -0.7461  -22.5759  -54.2267 C.3       21 UNK        -0.1800 
    117 C         -1.1890  -20.9465  -56.1014 C.2       21 UNK         0.5000 
    118 O         -0.4662  -20.9743  -57.0986 O.2       21 UNK        -0.5000 
    119 N         -1.6330  -19.8218  -55.5322 N.am      22 UNK        -0.5000 
    120 CA        -1.3117  -18.4642  -55.9761 C.3       22 UNK         0.1400 
    121 C         -2.5702  -17.8266  -56.6154 C.2       22 UNK         0.5000 
    122 N         -2.5645  -17.5927  -57.9206 N.am      22 UNK        -0.7600 
    123 O         -3.5422  -17.5137  -55.9328 O.2       22 UNK        -0.5000 
    124 C124       -0.7830  -17.6025  -54.8023 C.3       23 UNK        -0.0398 
    125 S125        0.8127  -18.2031  -54.1435 S.3       23 UNK        -0.2404 
    126 C126        0.3214  -18.8229  -52.5048 C.3       23 UNK        -0.0205 
    127 H127       -2.9300  -16.3096  -46.5825 H         1 UNK         0.0600 
    128 H128       -3.4470  -14.7035  -47.1034 H         1 UNK         0.0600 
    129 H129       -3.7590  -16.1104  -48.1267 H         1 UNK         0.0600 
    130 H130       -0.6931  -16.3806  -46.6826 H         1 UNK         0.3000 
    131 H131        0.6506  -16.0648  -49.2276 H         1 UNK         0.0600 
    132 H132        1.4241  -17.1296  -46.5179 H         1 UNK         0.0800 
    133 H133        1.3961  -17.9411  -48.0362 H         1 UNK         0.0800 
    134 H134        3.4611  -15.9453  -49.9217 H         1 UNK         0.0800 
    135 H135        4.8933  -16.8787  -49.5903 H         1 UNK         0.0800 
    136 H136        1.6706  -16.9454  -51.1165 H         1 UNK         0.1150 
    137 H137        1.6608  -21.1500  -51.9274 H         1 UNK         0.1150 
    138 H138        4.6170  -19.4715  -49.3052 H         1 UNK         0.1150 
    139 H139        4.2109  -22.1601  -51.3979 H         1 UNK         0.0800 
    140 H140        4.7124  -21.7900  -49.7682 H         1 UNK         0.0800 
    141 H141        2.5259  -21.5544  -47.9402 H         1 UNK         0.0800 
    142 H142        3.4489  -22.9804  -47.5350 H         1 UNK         0.0800 
    143 H143        1.2323  -24.3199  -47.7251 H         1 UNK         0.0600 
    144 H144        2.0664  -22.7268  -45.4812 H         1 UNK         0.3000 
    145 H145       -0.1300  -24.2442  -43.1208 H         1 UNK         0.0600 
    146 H146        2.0186  -24.8327  -42.0343 H         1 UNK         0.0600 
    147 H147        1.7173  -25.9050  -43.3921 H         1 UNK         0.0600 
    148 H148        2.8862  -24.5997  -43.5523 H         1 UNK         0.0600 
    149 H149        2.0200  -22.3822  -42.8477 H         1 UNK         0.3000 
    150 H150        0.1582  -19.4046  -43.4428 H         1 UNK         0.0600 
    151 H151       -0.3658  -19.9718  -41.0942 H         1 UNK         0.0600 
    152 H152        1.0714  -18.9589  -41.1396 H         1 UNK         0.0600 
    153 H153        1.2255  -20.6890  -40.8686 H         1 UNK         0.0600 
    154 H154        2.8109  -19.6321  -42.6463 H         1 UNK         0.3000 
    155 H155        4.6856  -20.1392  -44.0513 H         1 UNK         0.0600 
    156 H156        5.6680  -19.7709  -46.3310 H         1 UNK         0.0600 
    157 H157        4.0467  -19.6640  -47.0113 H         1 UNK         0.0600 
    158 H158        4.6052  -21.1679  -46.2898 H         1 UNK         0.0600 
    159 H159        4.1119  -17.6698  -45.5546 H         1 UNK         0.3000 
    160 H160        4.2302  -15.5963  -42.6210 H         1 UNK         0.0600 
    161 H161        5.5170  -15.7309  -45.3963 H         1 UNK         0.0600 
    162 H162        6.3744  -15.6436  -43.8624 H         1 UNK         0.0600 
    163 H163        5.3735  -14.2975  -44.3839 H         1 UNK         0.0600 
    164 H164        3.1120  -15.5591  -45.3455 H         1 UNK         0.3000 
    165 H165        2.1563  -16.3574  -41.8674 H         1 UNK         0.0600 
    166 H166        1.2644  -13.4253  -42.2260 H         1 UNK         0.0600 
    167 H167        1.5915  -14.1707  -40.6631 H         1 UNK         0.0600 
    168 H168        2.8839  -13.9509  -41.8248 H         1 UNK         0.0600 
    169 H169       -0.4692  -15.8757  -42.9014 H         1 UNK         0.3000 
    170 H170       -1.9335  -17.7268  -41.4517 H         1 UNK         0.0600 
    171 H171       -1.8547  -17.7950  -38.9658 H         1 UNK         0.0600 
    172 H172       -2.3354  -16.1027  -38.8801 H         1 UNK         0.0600 
    173 H173       -3.4520  -17.3134  -39.5087 H         1 UNK         0.0600 
    174 H174       -2.2823  -14.8205  -41.5470 H         1 UNK         0.3000 
    175 H175       -4.7916  -15.1293  -43.9489 H         1 UNK         0.0600 
    176 H176       -6.1607  -13.4955  -42.6842 H         1 UNK         0.0600 
    177 H177       -6.3310  -15.0929  -41.9764 H         1 UNK         0.0600 
    178 H178       -5.3100  -13.8948  -41.1906 H         1 UNK         0.0600 
    179 H179       -3.7725  -12.7723  -42.8010 H         1 UNK         0.3000 
    180 H180       -2.2354  -11.6921  -44.7480 H         1 UNK         0.0600 
    181 H181       -0.8129  -12.5147  -42.1450 H         1 UNK         0.0600 
    182 H182       -2.1307  -11.3676  -42.3176 H         1 UNK         0.0600 
    183 H183       -0.5413  -10.9606  -42.9302 H         1 UNK         0.0600 
    184 H184       -0.2306  -13.7103  -44.9636 H         1 UNK         0.3000 
    185 H185        1.5180  -11.8757  -47.4271 H         1 UNK         0.0600 
    186 H186        3.6021  -12.7997  -46.3312 H         1 UNK         0.0600 
    187 H187        3.0499  -11.3080  -45.5835 H         1 UNK         0.0600 
    188 H188        2.7508  -12.8449  -44.7872 H         1 UNK         0.0600 
    189 H189        0.8452  -14.4438  -46.0705 H         1 UNK         0.3000 
    190 H190        0.3842  -21.0597  -46.4940 H         1 UNK         0.3000 
    191 H191       -1.5615  -20.3943  -48.4180 H         1 UNK         0.0600 
    192 H192       -0.5781  -18.7783  -46.8018 H         1 UNK         0.0600 
    193 H193       -2.3347  -18.7444  -46.7359 H         1 UNK         0.0600 
    194 H194       -1.4233  -19.5609  -45.4714 H         1 UNK         0.0600 
    195 H195       -1.9634  -22.1072  -45.2787 H         1 UNK         0.3000 
    196 H196       -4.7612  -22.4981  -45.4293 H         1 UNK         0.0600 
    197 H197       -4.3377  -24.2359  -43.6748 H         1 UNK         0.0600 
    198 H198       -3.4893  -22.7366  -43.3297 H         1 UNK         0.0600 
    199 H199       -2.6070  -24.1191  -43.9735 H         1 UNK         0.0600 
    200 H200       -2.0652  -24.6949  -46.4232 H         1 UNK         0.3000 
    201 H201       -3.6782  -26.8194  -47.3712 H         1 UNK         0.0600 
    202 H202       -1.2675  -27.0701  -46.8775 H         1 UNK         0.0600 
    203 H203       -0.8495  -25.9618  -48.1836 H         1 UNK         0.0600 
    204 H204       -1.5778  -27.5229  -48.5462 H         1 UNK         0.0600 
    205 H205       -2.5424  -23.8683  -48.9677 H         1 UNK         0.3000 
    206 H206       -3.6716  -24.5152  -51.5698 H         1 UNK         0.0600 
    207 H207       -1.5961  -23.2010  -51.3517 H         1 UNK         0.0600 
    208 H208       -2.8412  -22.2231  -52.1113 H         1 UNK         0.0600 
    209 H209       -2.4361  -21.9761  -50.4127 H         1 UNK         0.0600 
    210 H210       -5.3712  -24.0296  -48.8887 H         1 UNK         0.3000 
    211 H211       -7.4308  -23.4205  -48.3724 H         1 UNK         0.0600 
    212 H212       -7.9351  -23.3163  -51.3958 H         1 UNK         0.0600 
    213 H213       -9.1579  -23.4683  -50.1422 H         1 UNK         0.0600 
    214 H214       -8.0017  -24.7661  -50.3955 H         1 UNK         0.0600 
    215 H215       -5.7907  -21.4649  -47.9622 H         1 UNK         0.3000 
    216 H216       -5.5670  -19.3359  -47.4343 H         1 UNK         0.0600 
    217 H217       -8.0201  -19.1680  -46.9639 H         1 UNK         0.0600 
    218 H218       -8.3123  -18.7018  -48.6391 H         1 UNK         0.0600 
    219 H219       -7.3523  -17.6702  -47.5941 H         1 UNK         0.0600 
    220 H220       -4.1661  -20.2559  -49.2908 H         1 UNK         0.3000 
    221 H221       -2.6728  -19.7980  -50.8475 H         1 UNK         0.0600 
    222 H222       -3.7878  -16.9635  -50.7308 H         1 UNK         0.0600 
    223 H223       -2.4269  -17.4090  -51.7233 H         1 UNK         0.0600 
    224 H224       -2.3306  -17.6143  -49.9827 H         1 UNK         0.0600 
    225 H225       -5.9119  -18.9172  -51.7953 H         1 UNK         0.3000 
    226 H226       -5.7203  -18.2986  -54.4032 H         1 UNK         0.0600 
    227 H227       -7.7690  -18.0947  -53.0482 H         1 UNK         0.0600 
    228 H228       -8.1440  -18.9502  -54.5361 H         1 UNK         0.0600 
    229 H229       -7.9764  -19.8455  -53.0285 H         1 UNK         0.0600 
    230 H230       -5.6019  -21.6960  -53.2872 H         1 UNK         0.3000 
    231 H231       -6.1164  -22.7631  -55.9556 H         1 UNK         0.0600 
    232 H232       -6.7828  -23.9364  -53.8157 H         1 UNK         0.0600 
    233 H233       -5.0737  -24.2226  -53.4853 H         1 UNK         0.0600 
    234 H234       -5.8240  -24.9291  -54.9042 H         1 UNK         0.0600 
    235 H235       -3.2832  -21.6027  -54.3018 H         1 UNK         0.3000 
    236 H236       -1.4479  -23.0608  -56.1819 H         1 UNK         0.0600 
    237 H237       -0.9966  -23.5467  -53.7994 H         1 UNK         0.0600 
    238 H238        0.3100  -22.6026  -54.4978 H         1 UNK         0.0600 
    239 H239       -0.8636  -21.8242  -53.4474 H         1 UNK         0.0600 
    240 H240       -2.2581  -19.8717  -54.7304 H         1 UNK         0.3000 
    241 H241       -0.5256  -18.4937  -56.7333 H         1 UNK         0.0600 
    242 H242       -3.3754  -17.1695  -58.3450 H         1 UNK         0.3800 
    243 H243       -1.7780  -17.8455  -58.4992 H         1 UNK         0.3800 
    244 H244       -0.6278  -16.5742  -55.1330 H         1 UNK         0.0800 
    245 H245       -1.5231  -17.5514  -54.0025 H         1 UNK         0.0800 
    246 H246       -0.3385  -18.1003  -52.0290 H         1 UNK         0.0800 
    247 H247       -0.2502  -19.7447  -52.6121 H         1 UNK         0.0800 
@<TRIPOS>BOND
     1    1    2 1    
     2    1  127 1    
     3    1  128 1    
     4    1  129 1    
     5    2    3 2    
     6    2    4 am   BACKBONE|DICT|INTERRES
     7    4    5 1    
     8    4  130 1    
     9    5    6 1    
    10    5   65 1    
    11    5  131 1    
    12    6    7 1    
    13    6  132 1    
    14    6  133 1    
    15    7    8 1    
    16    8    9 1    
    17    8  134 1    
    18    8  135 1    
    19    9   10 ar   
    20    9   14 ar   
    21   10   11 ar   
    22   10  136 1    
    23   11   12 ar   
    24   11  126 1    
    25   12   13 ar   
    26   12  137 1    
    27   13   14 ar   
    28   13   15 1    
    29   14  138 1    
    30   15   16 1    
    31   15  139 1    
    32   15  140 1    
    33   16   17 1    
    34   17   18 1    
    35   17  141 1    
    36   17  142 1    
    37   18   19 1    
    38   18   67 1    
    39   18  143 1    
    40   19   20 am   BACKBONE|DICT|INTERRES
    41   19  144 1    
    42   20   21 2    
    43   20   22 1    
    44   22   23 1    
    45   22   24 1    
    46   22  145 1    
    47   23  146 1    
    48   23  147 1    
    49   23  148 1    
    50   24   25 am   BACKBONE|DICT|INTERRES
    51   24  149 1    
    52   25   26 2    
    53   25   27 1    
    54   27   28 1    
    55   27   29 1    
    56   27  150 1    
    57   28  151 1    
    58   28  152 1    
    59   28  153 1    
    60   29   30 am   BACKBONE|DICT|INTERRES
    61   29  154 1    
    62   30   31 2    
    63   30   32 1    
    64   32   33 1    
    65   32   34 1    
    66   32  155 1    
    67   33  156 1    
    68   33  157 1    
    69   33  158 1    
    70   34   35 am   BACKBONE|DICT|INTERRES
    71   34  159 1    
    72   35   36 2    
    73   35   37 1    
    74   37   38 1    
    75   37   39 1    
    76   37  160 1    
    77   38  161 1    
    78   38  162 1    
    79   38  163 1    
    80   39   40 am   BACKBONE|DICT|INTERRES
    81   39  164 1    
    82   40   41 2    
    83   40   42 1    
    84   42   43 1    
    85   42   44 1    
    86   42  165 1    
    87   43  166 1    
    88   43  167 1    
    89   43  168 1    
    90   44   45 am   BACKBONE|DICT|INTERRES
    91   44  169 1    
    92   45   46 2    
    93   45   47 1    
    94   47   48 1    
    95   47   49 1    
    96   47  170 1    
    97   48  171 1    
    98   48  172 1    
    99   48  173 1    
   100   49   50 am   BACKBONE|DICT|INTERRES
   101   49  174 1    
   102   50   51 2    
   103   50   52 1    
   104   52   53 1    
   105   52   54 1    
   106   52  175 1    
   107   53  176 1    
   108   53  177 1    
   109   53  178 1    
   110   54   55 am   BACKBONE|DICT|INTERRES
   111   54  179 1    
   112   55   56 2    
   113   55   57 1    
   114   57   58 1    
   115   57   59 1    
   116   57  180 1    
   117   58  181 1    
   118   58  182 1    
   119   58  183 1    
   120   59   60 am   BACKBONE|DICT|INTERRES
   121   59  184 1    
   122   60   61 2    
   123   60   62 1    
   124   62   63 1    
   125   62   64 1    
   126   62  185 1    
   127   63  186 1    
   128   63  187 1    
   129   63  188 1    
   130   64   65 am   BACKBONE|DICT|INTERRES
   131   64  189 1    
   132   65   66 2    
   133   67   68 2    
   134   67   69 am   BACKBONE|DICT|INTERRES
   135   69   70 1    
   136   69  190 1    
   137   70   71 1    
   138   70   72 1    
   139   70  191 1    
   140   71  192 1    
   141   71  193 1    
   142   71  194 1    
   143   72   73 2    
   144   72   74 am   BACKBONE|DICT|INTERRES
   145   74   75 1    
   146   74  195 1    
   147   75   76 1    
   148   75   77 1    
   149   75  196 1    
   150   76  197 1    
   151   76  198 1    
   152   76  199 1    
   153   77   78 2    
   154   77   79 am   BACKBONE|DICT|INTERRES
   155   79   80 1    
   156   79  200 1    
   157   80   81 1    
   158   80   82 1    
   159   80  201 1    
   160   81  202 1    
   161   81  203 1    
   162   81  204 1    
   163   82   83 2    
   164   82   84 am   BACKBONE|DICT|INTERRES
   165   84   85 1    
   166   84  205 1    
   167   85   86 1    
   168   85   87 1    
   169   85  206 1    
   170   86  207 1    
   171   86  208 1    
   172   86  209 1    
   173   87   88 2    
   174   87   89 am   BACKBONE|DICT|INTERRES
   175   89   90 1    
   176   89  210 1    
   177   90   91 1    
   178   90   92 1    
   179   90  211 1    
   180   91  212 1    
   181   91  213 1    
   182   91  214 1    
   183   92   93 2    
   184   92   94 am   BACKBONE|DICT|INTERRES
   185   94   95 1    
   186   94  215 1    
   187   95   96 1    
   188   95   97 1    
   189   95  216 1    
   190   96  217 1    
   191   96  218 1    
   192   96  219 1    
   193   97   98 2    
   194   97   99 am   BACKBONE|DICT|INTERRES
   195   99  100 1    
   196   99  220 1    
   197  100  101 1    
   198  100  102 1    
   199  100  221 1    
   200  101  222 1    
   201  101  223 1    
   202  101  224 1    
   203  102  103 2    
   204  102  104 am   BACKBONE|DICT|INTERRES
   205  104  105 1    
   206  104  225 1    
   207  105  106 1    
   208  105  107 1    
   209  105  226 1    
   210  106  227 1    
   211  106  228 1    
   212  106  229 1    
   213  107  108 2    
   214  107  109 am   BACKBONE|DICT|INTERRES
   215  109  110 1    
   216  109  230 1    
   217  110  111 1    
   218  110  112 1    
   219  110  231 1    
   220  111  232 1    
   221  111  233 1    
   222  111  234 1    
   223  112  113 2    
   224  112  114 am   BACKBONE|DICT|INTERRES
   225  114  115 1    
   226  114  235 1    
   227  115  116 1    
   228  115  117 1    
   229  115  236 1    
   230  116  237 1    
   231  116  238 1    
   232  116  239 1    
   233  117  118 2    
   234  117  119 am   BACKBONE|DICT|INTERRES
   235  119  120 1    
   236  119  240 1    
   237  120  121 1    
   238  120  124 1    
   239  120  241 1    
   240  121  122 am   BACKBONE|DICT|INTERRES
   241  121  123 2    
   242  122  242 1    
   243  122  243 1    
   244  124  125 1    
   245  124  244 1    
   246  124  245 1    
   247  125  126 1    
   248  126  246 1    
   249  126  247 1    
@<TRIPOS>SUBSTRUCTURE
     1 UNK         1 GROUP             0       ****    0 ROOT    
