@<TRIPOS>MOLECULE
3R540
247   249    1
SMALL
USER_CHARGES


@<TRIPOS>ATOM
      1 CA         -0.2151  -18.6007  -46.9527 C.3       0 UNK        -0.1800 
      2 C           0.0053  -17.5090  -47.9853 C.2       0 UNK         0.5000 
      3 O           1.0470  -16.8569  -47.9607 O.2       0 UNK        -0.5000 
      4 N          -0.9842  -17.3039  -48.8636 N.am      1 UNK        -0.5000 
      5 CA         -1.0553  -16.3538  -49.9814 C.3       1 UNK         0.1400 
      6 C6         -0.0455  -16.6393  -51.1366 C.3       23 UNK        -0.0398 
      7 S7          1.6248  -15.9050  -50.9978 S.3       23 UNK        -0.2404 
      8 C8          2.4898  -16.6739  -52.4007 C.3       23 UNK        -0.0205 
      9 C9          2.7855  -18.1495  -52.1715 C.ar      23 UNK        -0.0193 
     10 C10         2.2953  -19.1096  -53.0586 C.ar      23 UNK        -0.1150 
     11 C11         2.5965  -20.4630  -52.8813 C.ar      23 UNK        -0.0193 
     12 C12         3.4021  -20.8524  -51.8056 C.ar      23 UNK        -0.1150 
     13 C13         3.8937  -19.9025  -50.9002 C.ar      23 UNK        -0.0193 
     14 C14         3.5830  -18.5535  -51.0970 C.ar      23 UNK        -0.1150 
     15 C15         4.7937  -20.2927  -49.7267 C.3       23 UNK        -0.0205 
     16 S16         4.3480  -21.8568  -48.8967 S.3       23 UNK        -0.2404 
     17 C17         2.6242  -21.5253  -48.4158 C.3       23 UNK        -0.0398 
     18 CA          1.9928  -22.7292  -47.6779 C.3       11 UNK         0.1400 
     19 N           2.5455  -22.9030  -46.3316 N.am      11 UNK        -0.5000 
     20 C           2.2846  -23.9193  -45.4960 C.2       10 UNK         0.5000 
     21 O           1.5635  -24.8747  -45.7860 O.2       10 UNK        -0.5000 
     22 CA          2.8998  -23.8290  -44.0847 C.3       10 UNK         0.1400 
     23 CB          4.1524  -24.7129  -43.9883 C.3       10 UNK        -0.1800 
     24 N           3.2484  -22.4605  -43.6846 N.am      10 UNK        -0.5000 
     25 C           2.3666  -21.4743  -43.4706 C.2       9 UNK         0.5000 
     26 O           1.1466  -21.6068  -43.5877 O.2       9 UNK        -0.5000 
     27 CA          2.9604  -20.0922  -43.1529 C.3       9 UNK         0.1400 
     28 CB          2.8994  -19.1901  -44.3951 C.3       9 UNK        -0.1800 
     29 N           2.2704  -19.4324  -42.0462 N.am      9 UNK        -0.5000 
     30 C           2.3906  -19.7915  -40.7617 C.2       8 UNK         0.5000 
     31 O           3.0526  -20.7614  -40.3885 O.2       8 UNK        -0.5000 
     32 CA          1.6980  -18.9127  -39.7074 C.3       8 UNK         0.1400 
     33 CB          2.5538  -17.6729  -39.3997 C.3       8 UNK        -0.1800 
     34 N           0.3603  -18.4748  -40.1116 N.am      8 UNK        -0.5000 
     35 C          -0.7451  -18.6376  -39.3679 C.2       7 UNK         0.5000 
     36 O          -0.7632  -19.2570  -38.3030 O.2       7 UNK        -0.5000 
     37 CA         -2.0543  -17.9828  -39.8583 C.3       7 UNK         0.1400 
     38 CB         -2.3850  -16.7470  -39.0068 C.3       7 UNK        -0.1800 
     39 N          -2.0155  -17.5871  -41.2648 N.am      7 UNK        -0.5000 
     40 C          -2.1265  -18.4433  -42.2895 C.2       6 UNK         0.5000 
     41 O          -2.3648  -19.6421  -42.1462 O.2       6 UNK        -0.5000 
     42 CA         -1.9194  -17.8857  -43.7124 C.3       6 UNK         0.1400 
     43 CB         -3.2630  -17.7538  -44.4416 C.3       6 UNK        -0.1800 
     44 N          -1.2186  -16.6018  -43.7772 N.am      6 UNK        -0.5000 
     45 C           0.0243  -16.3701  -43.3274 C.2       5 UNK         0.5000 
     46 O           0.7346  -17.2370  -42.8194 O.2       5 UNK        -0.5000 
     47 CA          0.5397  -14.9201  -43.3916 C.3       5 UNK         0.1400 
     48 CB          1.3841  -14.7275  -44.6573 C.3       5 UNK        -0.1800 
     49 N          -0.5264  -13.9135  -43.3534 N.am      5 UNK        -0.5000 
     50 C          -1.4321  -13.7913  -42.3687 C.2       4 UNK         0.5000 
     51 O          -1.4170  -14.4798  -41.3476 O.2       4 UNK        -0.5000 
     52 CA         -2.5765  -12.7767  -42.5636 C.3       4 UNK         0.1400 
     53 CB         -2.3265  -11.5190  -41.7178 C.3       4 UNK        -0.1800 
     54 N          -2.8103  -12.3728  -43.9518 N.am      4 UNK        -0.5000 
     55 C          -3.1431  -13.1767  -44.9718 C.2       3 UNK         0.5000 
     56 O          -3.2778  -14.3971  -44.8682 O.2       3 UNK        -0.5000 
     57 CA         -3.3155  -12.5104  -46.3531 C.3       3 UNK         0.1400 
     58 CB         -3.4972  -10.9772  -46.2918 C.3       3 UNK        -0.1800 
     59 N          -2.2255  -12.8448  -47.2742 N.am      3 UNK        -0.5000 
     60 C          -0.9088  -12.6997  -47.0681 C.2       2 UNK         0.5000 
     61 O          -0.4165  -12.3142  -46.0052 O.2       2 UNK        -0.5000 
     62 CA         -0.0011  -13.0504  -48.2622 C.3       2 UNK         0.1400 
     63 CB          1.4939  -12.8196  -47.9785 C.3       2 UNK        -0.1800 
     64 N          -0.1866  -14.4313  -48.7016 N.am      2 UNK        -0.5000 
     65 C          -1.1277  -14.8721  -49.5427 C.2       1 UNK         0.5000 
     66 O          -2.0445  -14.1602  -49.9533 O.2       1 UNK        -0.5000 
     67 C           0.4580  -22.5999  -47.7036 C.2       11 UNK         0.5000 
     68 O          -0.1232  -22.8369  -48.7598 O.2       11 UNK        -0.5000 
     69 N          -0.1805  -22.2536  -46.5742 N.am      12 UNK        -0.5000 
     70 CA         -1.6296  -22.0703  -46.4418 C.3       12 UNK         0.1400 
     71 CB         -1.9564  -21.7054  -44.9885 C.3       12 UNK        -0.1800 
     72 C          -2.4739  -23.2801  -46.8856 C.2       12 UNK         0.5000 
     73 O          -3.5796  -23.0842  -47.3897 O.2       12 UNK        -0.5000 
     74 N          -1.9296  -24.4941  -46.7262 N.am      13 UNK        -0.5000 
     75 CA         -2.5488  -25.7449  -47.1648 C.3       13 UNK         0.1400 
     76 CB         -1.7986  -26.9225  -46.5245 C.3       13 UNK        -0.1800 
     77 C          -2.5901  -25.9018  -48.6984 C.2       13 UNK         0.5000 
     78 O          -3.5247  -26.5145  -49.2152 O.2       13 UNK        -0.5000 
     79 N          -1.5880  -25.3490  -49.3951 N.am      14 UNK        -0.5000 
     80 CA         -1.4863  -25.3594  -50.8548 C.3       14 UNK         0.1400 
     81 CB         -0.0049  -25.4165  -51.2623 C.3       14 UNK        -0.1800 
     82 C          -2.1603  -24.1192  -51.4584 C.2       14 UNK         0.5000 
     83 O          -2.9020  -24.2324  -52.4337 O.2       14 UNK        -0.5000 
     84 N          -1.9008  -22.9536  -50.8548 N.am      15 UNK        -0.5000 
     85 CA         -2.4148  -21.6501  -51.2639 C.3       15 UNK         0.1400 
     86 CB         -1.6212  -20.5517  -50.5370 C.3       15 UNK        -0.1800 
     87 C          -3.9230  -21.4729  -51.0228 C.2       15 UNK         0.5000 
     88 O          -4.4925  -20.5340  -51.5751 O.2       15 UNK        -0.5000 
     89 N          -4.5349  -22.3523  -50.2148 N.am      16 UNK        -0.5000 
     90 CA         -5.9163  -22.2831  -49.7282 C.3       16 UNK         0.1400 
     91 CB         -6.9289  -22.4862  -50.8738 C.3       16 UNK        -0.1800 
     92 C          -6.1240  -20.9878  -48.9213 C.2       16 UNK         0.5000 
     93 O          -6.9610  -20.1485  -49.2599 O.2       16 UNK        -0.5000 
     94 N          -5.2721  -20.8398  -47.8986 N.am      17 UNK        -0.5000 
     95 CA         -5.0583  -19.6470  -47.0860 C.3       17 UNK         0.1400 
     96 CB         -6.2874  -19.3557  -46.1957 C.3       17 UNK        -0.1800 
     97 C          -4.5944  -18.4612  -47.9564 C.2       17 UNK         0.5000 
     98 O          -3.5205  -18.5384  -48.5557 O.2       17 UNK        -0.5000 
     99 N          -5.3901  -17.3885  -47.9999 N.am      18 UNK        -0.5000 
    100 CA        -5.0900  -16.1432  -48.7041 C.3       18 UNK         0.1400 
    101 CB        -5.8341  -15.0047  -47.9885 C.3       18 UNK        -0.1800 
    102 C         -5.4506  -16.1653  -50.2041 C.2       18 UNK         0.5000 
    103 O         -5.1856  -15.1770  -50.8884 O.2       18 UNK        -0.5000 
    104 N         -6.0709  -17.2490  -50.6964 N.am      19 UNK        -0.5000 
    105 CA        -6.5583  -17.3565  -52.0769 C.3       19 UNK         0.1400 
    106 CB        -7.4779  -18.5788  -52.1983 C.3       19 UNK        -0.1800 
    107 C         -5.4437  -17.4128  -53.1413 C.2       19 UNK         0.5000 
    108 O         -5.6850  -17.0100  -54.2799 O.2       19 UNK        -0.5000 
    109 N         -4.2585  -17.9056  -52.7509 N.am      20 UNK        -0.5000 
    110 CA        -3.0619  -18.1041  -53.5763 C.3       20 UNK         0.1400 
    111 CB        -2.5145  -16.7510  -54.0783 C.3       20 UNK        -0.1800 
    112 C         -3.2904  -19.1275  -54.7105 C.2       20 UNK         0.5000 
    113 O         -2.8627  -18.8988  -55.8428 O.2       20 UNK        -0.5000 
    114 N         -3.9857  -20.2263  -54.3804 N.am      21 UNK        -0.5000 
    115 CA        -4.3353  -21.3242  -55.2827 C.3       21 UNK         0.1400 
    116 CB        -5.3213  -22.2710  -54.5746 C.3       21 UNK        -0.1800 
    117 C         -3.0923  -22.0627  -55.8182 C.2       21 UNK         0.5000 
    118 O         -2.7343  -21.8784  -56.9822 O.2       21 UNK        -0.5000 
    119 N         -2.4534  -22.8685  -54.9583 N.am      22 UNK        -0.5000 
    120 CA        -1.1875  -23.5838  -55.2127 C.3       22 UNK         0.1400 
    121 C         -1.2659  -24.6958  -56.3047 C.2       22 UNK         0.5000 
    122 N         -2.4446  -25.2016  -56.6467 N.am      22 UNK        -0.7600 
    123 O         -0.2459  -25.1352  -56.8291 O.2       22 UNK        -0.5000 
    124 C124        0.0173  -22.6212  -55.4086 C.3       23 UNK        -0.0398 
    125 S125        0.2695  -21.5177  -53.9740 S.3       23 UNK        -0.2404 
    126 C126        2.0876  -21.4914  -53.8816 C.3       23 UNK        -0.0205 
    127 H127        0.1086  -18.2452  -45.9768 H         1 UNK         0.0600 
    128 H128        0.3715  -19.4815  -47.2084 H         1 UNK         0.0600 
    129 H129       -1.2642  -18.8870  -46.8825 H         1 UNK         0.0600 
    130 H130       -1.8330  -17.8572  -48.7540 H         1 UNK         0.3000 
    131 H131       -2.0395  -16.5632  -50.4051 H         1 UNK         0.0600 
    132 H132        0.0556  -17.7166  -51.2754 H         1 UNK         0.0800 
    133 H133       -0.4635  -16.2641  -52.0698 H         1 UNK         0.0800 
    134 H134        3.4340  -16.1506  -52.5572 H         1 UNK         0.0800 
    135 H135        1.9032  -16.5249  -53.3085 H         1 UNK         0.0800 
    136 H136        1.6858  -18.8063  -53.8985 H         1 UNK         0.1150 
    137 H137        3.6517  -21.8959  -51.6763 H         1 UNK         0.1150 
    138 H138        3.9677  -17.8075  -50.4155 H         1 UNK         0.1150 
    139 H139        5.8183  -20.3732  -50.0913 H         1 UNK         0.0800 
    140 H140        4.7968  -19.5017  -48.9749 H         1 UNK         0.0800 
    141 H141        2.0699  -21.2979  -49.3287 H         1 UNK         0.0800 
    142 H142        2.5856  -20.6234  -47.8024 H         1 UNK         0.0800 
    143 H143        2.2241  -23.6363  -48.2406 H         1 UNK         0.0600 
    144 H144        3.1717  -22.1799  -46.0118 H         1 UNK         0.3000 
    145 H145        2.1565  -24.2075  -43.3800 H         1 UNK         0.0600 
    146 H146        4.5540  -24.7197  -42.9748 H         1 UNK         0.0600 
    147 H147        3.9227  -25.7464  -44.2516 H         1 UNK         0.0600 
    148 H148        4.9399  -24.3703  -44.6608 H         1 UNK         0.0600 
    149 H149        4.2334  -22.2678  -43.5715 H         1 UNK         0.3000 
    150 H150        4.0095  -20.2115  -42.8736 H         1 UNK         0.0600 
    151 H151        3.4435  -19.6307  -45.2314 H         1 UNK         0.0600 
    152 H152        3.3411  -18.2132  -44.1971 H         1 UNK         0.0600 
    153 H153        1.8715  -19.0305  -44.7186 H         1 UNK         0.0600 
    154 H154        1.6974  -18.6291  -42.2954 H         1 UNK         0.3000 
    155 H155        1.6447  -19.5114  -38.7959 H         1 UNK         0.0600 
    156 H156        2.6372  -17.0165  -40.2670 H         1 UNK         0.0600 
    157 H157        3.5640  -17.9569  -39.1021 H         1 UNK         0.0600 
    158 H158        2.1252  -17.0933  -38.5819 H         1 UNK         0.0600 
    159 H159        0.2917  -17.9827  -40.9953 H         1 UNK         0.3000 
    160 H160       -2.8571  -18.7106  -39.7222 H         1 UNK         0.0600 
    161 H161       -1.5983  -15.9943  -39.0693 H         1 UNK         0.0600 
    162 H162       -2.4985  -17.0152  -37.9557 H         1 UNK         0.0600 
    163 H163       -3.3188  -16.2839  -39.3264 H         1 UNK         0.0600 
    164 H164       -1.8197  -16.6106  -41.4539 H         1 UNK         0.3000 
    165 H165       -1.3092  -18.6154  -44.2416 H         1 UNK         0.0600 
    166 H166       -3.1194  -17.4719  -45.4846 H         1 UNK         0.0600 
    167 H167       -3.8088  -18.6970  -44.4227 H         1 UNK         0.0600 
    168 H168       -3.8986  -16.9996  -43.9759 H         1 UNK         0.0600 
    169 H169       -1.7493  -15.8223  -44.1496 H         1 UNK         0.3000 
    170 H170        1.1784  -14.7585  -42.5212 H         1 UNK         0.0600 
    171 H171        2.2242  -15.4232  -44.6777 H         1 UNK         0.0600 
    172 H172        0.7950  -14.9022  -45.5585 H         1 UNK         0.0600 
    173 H173        1.7945  -13.7190  -44.7096 H         1 UNK         0.0600 
    174 H174       -0.6054  -13.3074  -44.1636 H         1 UNK         0.3000 
    175 H175       -3.4902  -13.2547  -42.2049 H         1 UNK         0.0600 
    176 H176       -1.4384  -10.9811  -42.0519 H         1 UNK         0.0600 
    177 H177       -3.1736  -10.8345  -41.7669 H         1 UNK         0.0600 
    178 H178       -2.1795  -11.7757  -40.6677 H         1 UNK         0.0600 
    179 H179       -2.6791  -11.3925  -44.1542 H         1 UNK         0.3000 
    180 H180       -4.2265  -12.9275  -46.7795 H         1 UNK         0.0600 
    181 H181       -2.6000  -10.4666  -45.9397 H         1 UNK         0.0600 
    182 H182       -4.3213  -10.7027  -45.6318 H         1 UNK         0.0600 
    183 H183       -3.7334  -10.5771  -47.2779 H         1 UNK         0.0600 
    184 H184       -2.5050  -13.2134  -48.1771 H         1 UNK         0.3000 
    185 H185       -0.2810  -12.3799  -49.0774 H         1 UNK         0.0600 
    186 H186        1.8707  -13.4937  -47.2104 H         1 UNK         0.0600 
    187 H187        2.0899  -12.9783  -48.8775 H         1 UNK         0.0600 
    188 H188        1.6791  -11.7982  -47.6438 H         1 UNK         0.0600 
    189 H189        0.4971  -15.1145  -48.3826 H         1 UNK         0.3000 
    190 H190        0.3653  -22.1005  -45.7354 H         1 UNK         0.3000 
    191 H191       -1.9106  -21.2302  -47.0787 H         1 UNK         0.0600 
    192 H192       -3.0155  -21.4771  -44.8638 H         1 UNK         0.0600 
    193 H193       -1.3928  -20.8319  -44.6670 H         1 UNK         0.0600 
    194 H194       -1.7121  -22.5202  -44.3057 H         1 UNK         0.0600 
    195 H195       -1.0091  -24.5607  -46.3129 H         1 UNK         0.3000 
    196 H196       -3.5793  -25.7597  -46.8035 H         1 UNK         0.0600 
    197 H197       -2.2423  -27.8752  -46.8169 H         1 UNK         0.0600 
    198 H198       -1.8350  -26.8682  -45.4363 H         1 UNK         0.0600 
    199 H199       -0.7497  -26.9417  -46.8240 H         1 UNK         0.0600 
    200 H200       -0.8967  -24.8005  -48.8998 H         1 UNK         0.3000 
    201 H201       -1.9819  -26.2457  -51.2567 H         1 UNK         0.0600 
    202 H202        0.4753  -26.3134  -50.8709 H         1 UNK         0.0600 
    203 H203        0.5523  -24.5529  -50.8966 H         1 UNK         0.0600 
    204 H204        0.1010  -25.4387  -52.3475 H         1 UNK         0.0600 
    205 H205       -1.2547  -22.9462  -50.0661 H         1 UNK         0.3000 
    206 H206       -2.2455  -21.5387  -52.3355 H         1 UNK         0.0600 
    207 H207       -0.5592  -20.6053  -50.7792 H         1 UNK         0.0600 
    208 H208       -1.9687  -19.5577  -50.8174 H         1 UNK         0.0600 
    209 H209       -1.7233  -20.6338  -49.4549 H         1 UNK         0.0600 
    210 H210       -3.9593  -23.0621  -49.7836 H         1 UNK         0.3000 
    211 H211       -6.0449  -23.1098  -49.0279 H         1 UNK         0.0600 
    212 H212       -6.8424  -21.7233  -51.6448 H         1 UNK         0.0600 
    213 H213       -7.9523  -22.4571  -50.4984 H         1 UNK         0.0600 
    214 H214       -6.7848  -23.4546  -51.3527 H         1 UNK         0.0600 
    215 H215       -4.6219  -21.6047  -47.7315 H         1 UNK         0.3000 
    216 H216       -4.2211  -19.8805  -46.4287 H         1 UNK         0.0600 
    217 H217       -6.1085  -18.5025  -45.5402 H         1 UNK         0.0600 
    218 H218       -6.5083  -20.2084  -45.5535 H         1 UNK         0.0600 
    219 H219       -7.1845  -19.1454  -46.7786 H         1 UNK         0.0600 
    220 H220       -6.2692  -17.4226  -47.5042 H         1 UNK         0.3000 
    221 H221       -4.0190  -15.9439  -48.6305 H         1 UNK         0.0600 
    222 H222       -6.9154  -15.1380  -48.0384 H         1 UNK         0.0600 
    223 H223       -5.5516  -14.9508  -46.9368 H         1 UNK         0.0600 
    224 H224       -5.6028  -14.0391  -48.4398 H         1 UNK         0.0600 
    225 H225       -6.2560  -18.0351  -50.0856 H         1 UNK         0.3000 
    226 H226       -7.1578  -16.4678  -52.2854 H         1 UNK         0.0600 
    227 H227       -6.9327  -19.5009  -52.0075 H         1 UNK         0.0600 
    228 H228       -8.3061  -18.5259  -51.4914 H         1 UNK         0.0600 
    229 H229       -7.9051  -18.6515  -53.1992 H         1 UNK         0.0600 
    230 H230       -4.2200  -18.3023  -51.8206 H         1 UNK         0.3000 
    231 H231       -2.3061  -18.5389  -52.9222 H         1 UNK         0.0600 
    232 H232       -1.5139  -16.8672  -54.4963 H         1 UNK         0.0600 
    233 H233       -2.4532  -16.0229  -53.2699 H         1 UNK         0.0600 
    234 H234       -3.1453  -16.3224  -54.8576 H         1 UNK         0.0600 
    235 H235       -4.3058  -20.3100  -53.4189 H         1 UNK         0.3000 
    236 H236       -4.8520  -20.8919  -56.1420 H         1 UNK         0.0600 
    237 H237       -5.5897  -23.1093  -55.2184 H         1 UNK         0.0600 
    238 H238       -4.9103  -22.6822  -53.6525 H         1 UNK         0.0600 
    239 H239       -6.2447  -21.7513  -54.3181 H         1 UNK         0.0600 
    240 H240       -2.8480  -23.0348  -54.0393 H         1 UNK         0.3000 
    241 H241       -0.9858  -24.1424  -54.2996 H         1 UNK         0.0600 
    242 H242       -2.4909  -25.9269  -57.3451 H         1 UNK         0.3800 
    243 H243       -3.2901  -24.8647  -56.2152 H         1 UNK         0.3800 
    244 H244        0.9332  -23.1929  -55.5656 H         1 UNK         0.0800 
    245 H245       -0.1145  -22.0105  -56.3025 H         1 UNK         0.0800 
    246 H246        2.4443  -22.4905  -53.6264 H         1 UNK         0.0800 
    247 H247        2.4964  -21.2538  -54.8648 H         1 UNK         0.0800 
@<TRIPOS>BOND
     1    1    2 1    
     2    1  127 1    
     3    1  128 1    
     4    1  129 1    
     5    2    3 2    
     6    2    4 am   BACKBONE|DICT|INTERRES
     7    4    5 1    
     8    4  130 1    
     9    5    6 1    
    10    5   65 1    
    11    5  131 1    
    12    6    7 1    
    13    6  132 1    
    14    6  133 1    
    15    7    8 1    
    16    8    9 1    
    17    8  134 1    
    18    8  135 1    
    19    9   10 ar   
    20    9   14 ar   
    21   10   11 ar   
    22   10  136 1    
    23   11   12 ar   
    24   11  126 1    
    25   12   13 ar   
    26   12  137 1    
    27   13   14 ar   
    28   13   15 1    
    29   14  138 1    
    30   15   16 1    
    31   15  139 1    
    32   15  140 1    
    33   16   17 1    
    34   17   18 1    
    35   17  141 1    
    36   17  142 1    
    37   18   19 1    
    38   18   67 1    
    39   18  143 1    
    40   19   20 am   BACKBONE|DICT|INTERRES
    41   19  144 1    
    42   20   21 2    
    43   20   22 1    
    44   22   23 1    
    45   22   24 1    
    46   22  145 1    
    47   23  146 1    
    48   23  147 1    
    49   23  148 1    
    50   24   25 am   BACKBONE|DICT|INTERRES
    51   24  149 1    
    52   25   26 2    
    53   25   27 1    
    54   27   28 1    
    55   27   29 1    
    56   27  150 1    
    57   28  151 1    
    58   28  152 1    
    59   28  153 1    
    60   29   30 am   BACKBONE|DICT|INTERRES
    61   29  154 1    
    62   30   31 2    
    63   30   32 1    
    64   32   33 1    
    65   32   34 1    
    66   32  155 1    
    67   33  156 1    
    68   33  157 1    
    69   33  158 1    
    70   34   35 am   BACKBONE|DICT|INTERRES
    71   34  159 1    
    72   35   36 2    
    73   35   37 1    
    74   37   38 1    
    75   37   39 1    
    76   37  160 1    
    77   38  161 1    
    78   38  162 1    
    79   38  163 1    
    80   39   40 am   BACKBONE|DICT|INTERRES
    81   39  164 1    
    82   40   41 2    
    83   40   42 1    
    84   42   43 1    
    85   42   44 1    
    86   42  165 1    
    87   43  166 1    
    88   43  167 1    
    89   43  168 1    
    90   44   45 am   BACKBONE|DICT|INTERRES
    91   44  169 1    
    92   45   46 2    
    93   45   47 1    
    94   47   48 1    
    95   47   49 1    
    96   47  170 1    
    97   48  171 1    
    98   48  172 1    
    99   48  173 1    
   100   49   50 am   BACKBONE|DICT|INTERRES
   101   49  174 1    
   102   50   51 2    
   103   50   52 1    
   104   52   53 1    
   105   52   54 1    
   106   52  175 1    
   107   53  176 1    
   108   53  177 1    
   109   53  178 1    
   110   54   55 am   BACKBONE|DICT|INTERRES
   111   54  179 1    
   112   55   56 2    
   113   55   57 1    
   114   57   58 1    
   115   57   59 1    
   116   57  180 1    
   117   58  181 1    
   118   58  182 1    
   119   58  183 1    
   120   59   60 am   BACKBONE|DICT|INTERRES
   121   59  184 1    
   122   60   61 2    
   123   60   62 1    
   124   62   63 1    
   125   62   64 1    
   126   62  185 1    
   127   63  186 1    
   128   63  187 1    
   129   63  188 1    
   130   64   65 am   BACKBONE|DICT|INTERRES
   131   64  189 1    
   132   65   66 2    
   133   67   68 2    
   134   67   69 am   BACKBONE|DICT|INTERRES
   135   69   70 1    
   136   69  190 1    
   137   70   71 1    
   138   70   72 1    
   139   70  191 1    
   140   71  192 1    
   141   71  193 1    
   142   71  194 1    
   143   72   73 2    
   144   72   74 am   BACKBONE|DICT|INTERRES
   145   74   75 1    
   146   74  195 1    
   147   75   76 1    
   148   75   77 1    
   149   75  196 1    
   150   76  197 1    
   151   76  198 1    
   152   76  199 1    
   153   77   78 2    
   154   77   79 am   BACKBONE|DICT|INTERRES
   155   79   80 1    
   156   79  200 1    
   157   80   81 1    
   158   80   82 1    
   159   80  201 1    
   160   81  202 1    
   161   81  203 1    
   162   81  204 1    
   163   82   83 2    
   164   82   84 am   BACKBONE|DICT|INTERRES
   165   84   85 1    
   166   84  205 1    
   167   85   86 1    
   168   85   87 1    
   169   85  206 1    
   170   86  207 1    
   171   86  208 1    
   172   86  209 1    
   173   87   88 2    
   174   87   89 am   BACKBONE|DICT|INTERRES
   175   89   90 1    
   176   89  210 1    
   177   90   91 1    
   178   90   92 1    
   179   90  211 1    
   180   91  212 1    
   181   91  213 1    
   182   91  214 1    
   183   92   93 2    
   184   92   94 am   BACKBONE|DICT|INTERRES
   185   94   95 1    
   186   94  215 1    
   187   95   96 1    
   188   95   97 1    
   189   95  216 1    
   190   96  217 1    
   191   96  218 1    
   192   96  219 1    
   193   97   98 2    
   194   97   99 am   BACKBONE|DICT|INTERRES
   195   99  100 1    
   196   99  220 1    
   197  100  101 1    
   198  100  102 1    
   199  100  221 1    
   200  101  222 1    
   201  101  223 1    
   202  101  224 1    
   203  102  103 2    
   204  102  104 am   BACKBONE|DICT|INTERRES
   205  104  105 1    
   206  104  225 1    
   207  105  106 1    
   208  105  107 1    
   209  105  226 1    
   210  106  227 1    
   211  106  228 1    
   212  106  229 1    
   213  107  108 2    
   214  107  109 am   BACKBONE|DICT|INTERRES
   215  109  110 1    
   216  109  230 1    
   217  110  111 1    
   218  110  112 1    
   219  110  231 1    
   220  111  232 1    
   221  111  233 1    
   222  111  234 1    
   223  112  113 2    
   224  112  114 am   BACKBONE|DICT|INTERRES
   225  114  115 1    
   226  114  235 1    
   227  115  116 1    
   228  115  117 1    
   229  115  236 1    
   230  116  237 1    
   231  116  238 1    
   232  116  239 1    
   233  117  118 2    
   234  117  119 am   BACKBONE|DICT|INTERRES
   235  119  120 1    
   236  119  240 1    
   237  120  121 1    
   238  120  124 1    
   239  120  241 1    
   240  121  122 am   BACKBONE|DICT|INTERRES
   241  121  123 2    
   242  122  242 1    
   243  122  243 1    
   244  124  125 1    
   245  124  244 1    
   246  124  245 1    
   247  125  126 1    
   248  126  246 1    
   249  126  247 1    
@<TRIPOS>SUBSTRUCTURE
     1 UNK         1 GROUP             0       ****    0 ROOT    
