@<TRIPOS>MOLECULE
3R540
247   249    1
SMALL
USER_CHARGES


@<TRIPOS>ATOM
      1 CA          4.2562  -15.9239  -46.9466 C.3       0 UNK        -0.1800 
      2 C           3.2241  -15.0682  -46.2295 C.2       0 UNK         0.5000 
      3 O           3.5800  -14.3395  -45.3037 O.2       0 UNK        -0.5000 
      4 N           1.9620  -15.1296  -46.6769 N.am      1 UNK        -0.5000 
      5 CA          0.7497  -14.4963  -46.1208 C.3       1 UNK         0.1400 
      6 C6         -0.5432  -15.1214  -46.7178 C.3       23 UNK        -0.0398 
      7 S7         -0.5581  -15.1816  -48.5466 S.3       23 UNK        -0.2404 
      8 C8         -0.9101  -16.9407  -48.8658 C.3       23 UNK        -0.0205 
      9 C9         -2.4029  -17.2288  -48.8585 C.ar      23 UNK        -0.0193 
     10 C10        -3.1037  -17.2710  -50.0642 C.ar      23 UNK        -0.1150 
     11 C11        -4.4707  -17.5587  -50.0879 C.ar      23 UNK        -0.0193 
     12 C12        -5.1367  -17.7921  -48.8797 C.ar      23 UNK        -0.1150 
     13 C13        -4.4570  -17.7352  -47.6573 C.ar      23 UNK        -0.0193 
     14 C14        -3.0835  -17.4564  -47.6594 C.ar      23 UNK        -0.1150 
     15 C15        -5.2570  -17.9127  -46.3640 C.3       23 UNK        -0.0205 
     16 S16        -4.2927  -18.4141  -44.8942 S.3       23 UNK        -0.2404 
     17 C17        -4.1283  -20.2126  -45.1416 C.3       23 UNK        -0.0398 
     18 CA         -2.8766  -20.6144  -45.9536 C.3       11 UNK         0.1400 
     19 N          -1.6168  -20.0798  -45.4173 N.am      11 UNK        -0.5000 
     20 C          -0.4489  -20.1434  -46.0741 C.2       10 UNK         0.5000 
     21 O          -0.3474  -20.5720  -47.2232 O.2       10 UNK        -0.5000 
     22 CA          0.8255  -19.7376  -45.3159 C.3       10 UNK         0.1400 
     23 CB          1.1817  -18.2663  -45.5444 C.3       10 UNK        -0.1800 
     24 N           0.7101  -19.9975  -43.8829 N.am      10 UNK        -0.5000 
     25 C           0.9948  -21.1774  -43.3156 C.2       9 UNK         0.5000 
     26 O           1.4369  -22.1439  -43.9368 O.2       9 UNK        -0.5000 
     27 CA          0.7089  -21.3132  -41.8077 C.3       9 UNK         0.1400 
     28 CB          1.9338  -20.8832  -40.9872 C.3       9 UNK        -0.1800 
     29 N          -0.4619  -20.5472  -41.3749 N.am      9 UNK        -0.5000 
     30 C          -1.7176  -20.8054  -41.7690 C.2       8 UNK         0.5000 
     31 O          -2.0157  -21.7330  -42.5201 O.2       8 UNK        -0.5000 
     32 CA         -2.8268  -19.8500  -41.2893 C.3       8 UNK         0.1400 
     33 CB         -3.4859  -20.3958  -40.0143 C.3       8 UNK        -0.1800 
     34 N          -2.3929  -18.4725  -41.0508 N.am      8 UNK        -0.5000 
     35 C          -1.7745  -17.6715  -41.9296 C.2       7 UNK         0.5000 
     36 O          -1.4257  -18.0319  -43.0570 O.2       7 UNK        -0.5000 
     37 CA         -1.4524  -16.2355  -41.4632 C.3       7 UNK         0.1400 
     38 CB         -1.9606  -15.8921  -40.0448 C.3       7 UNK        -0.1800 
     39 N          -0.0219  -15.9494  -41.5668 N.am      7 UNK        -0.5000 
     40 C           0.9944  -16.6405  -41.0389 C.2       6 UNK         0.5000 
     41 O           0.8477  -17.6231  -40.3098 O.2       6 UNK        -0.5000 
     42 CA          2.4220  -16.1858  -41.4019 C.3       6 UNK         0.1400 
     43 CB          2.8327  -16.7605  -42.7668 C.3       6 UNK        -0.1800 
     44 N           2.7020  -14.7436  -41.3625 N.am      6 UNK        -0.5000 
     45 C           2.1605  -13.7251  -42.0469 C.2       5 UNK         0.5000 
     46 O           1.1635  -13.8124  -42.7622 O.2       5 UNK        -0.5000 
     47 CA          2.9026  -12.3784  -41.9635 C.3       5 UNK         0.1400 
     48 CB          3.0128  -11.8462  -40.5207 C.3       5 UNK        -0.1800 
     49 N           4.2034  -12.4420  -42.6385 N.am      5 UNK        -0.5000 
     50 C           5.2820  -13.1744  -42.3179 C.2       4 UNK         0.5000 
     51 O           5.4051  -13.7811  -41.2522 O.2       4 UNK        -0.5000 
     52 CA          6.3939  -13.2835  -43.3793 C.3       4 UNK         0.1400 
     53 CB          6.7785  -14.7533  -43.6251 C.3       4 UNK        -0.1800 
     54 N           5.9767  -12.7007  -44.6567 N.am      4 UNK        -0.5000 
     55 C           6.5589  -11.6528  -45.2520 C.2       3 UNK         0.5000 
     56 O           7.5384  -11.0603  -44.7977 O.2       3 UNK        -0.5000 
     57 CA          5.9391  -11.1751  -46.5790 C.3       3 UNK         0.1400 
     58 CB          6.5563  -11.9384  -47.7611 C.3       3 UNK        -0.1800 
     59 N           4.4802  -11.2995  -46.6422 N.am      3 UNK        -0.5000 
     60 C           3.6112  -10.6317  -45.8678 C.2       2 UNK         0.5000 
     61 O           3.9404   -9.8887  -44.9440 O.2       2 UNK        -0.5000 
     62 CA          2.1248  -10.8757  -46.1528 C.3       2 UNK         0.1400 
     63 CB          1.6797  -10.1705  -47.4479 C.3       2 UNK        -0.1800 
     64 N           1.8936  -12.3125  -46.2266 N.am      2 UNK        -0.5000 
     65 C           0.7211  -12.9426  -46.1410 C.2       1 UNK         0.5000 
     66 O          -0.3531  -12.3440  -46.0607 O.2       1 UNK        -0.5000 
     67 C          -2.8162  -22.1473  -46.1169 C.2       11 UNK         0.5000 
     68 O          -3.3172  -22.6689  -47.1104 O.2       11 UNK        -0.5000 
     69 N          -2.1573  -22.8379  -45.1749 N.am      12 UNK        -0.5000 
     70 CA         -1.8778  -24.2737  -45.2341 C.3       12 UNK         0.1400 
     71 CB         -1.2939  -24.7332  -43.8901 C.3       12 UNK        -0.1800 
     72 C          -0.9424  -24.6659  -46.3954 C.2       12 UNK         0.5000 
     73 O          -1.0728  -25.7692  -46.9254 O.2       12 UNK        -0.5000 
     74 N          -0.0388  -23.7571  -46.7903 N.am      13 UNK        -0.5000 
     75 CA          0.8038  -23.9084  -47.9761 C.3       13 UNK         0.1400 
     76 CB          2.0192  -22.9727  -47.8851 C.3       13 UNK        -0.1800 
     77 C           0.0001  -23.6669  -49.2665 C.2       13 UNK         0.5000 
     78 O           0.1180  -24.4521  -50.2061 O.2       13 UNK        -0.5000 
     79 N          -0.8404  -22.6206  -49.2770 N.am      14 UNK        -0.5000 
     80 CA         -1.7508  -22.2904  -50.3795 C.3       14 UNK         0.1400 
     81 CB         -2.4360  -20.9464  -50.0954 C.3       14 UNK        -0.1800 
     82 C          -2.7985  -23.3879  -50.6535 C.2       14 UNK         0.5000 
     83 O          -3.1490  -23.6254  -51.8108 O.2       14 UNK        -0.5000 
     84 N          -3.2397  -24.0779  -49.5927 N.am      15 UNK        -0.5000 
     85 CA         -4.1582  -25.2177  -49.6256 C.3       15 UNK         0.1400 
     86 CB         -4.5112  -25.6321  -48.1901 C.3       15 UNK        -0.1800 
     87 C          -3.6480  -26.4307  -50.4307 C.2       15 UNK         0.5000 
     88 O          -4.4684  -27.2403  -50.8633 O.2       15 UNK        -0.5000 
     89 N          -2.3314  -26.5209  -50.6793 N.am      16 UNK        -0.5000 
     90 CA         -1.7320  -27.5056  -51.5877 C.3       16 UNK         0.1400 
     91 CB         -0.2053  -27.4961  -51.4242 C.3       16 UNK        -0.1800 
     92 C          -2.1202  -27.2742  -53.0644 C.2       16 UNK         0.5000 
     93 O          -2.1163  -28.2250  -53.8465 O.2       16 UNK        -0.5000 
     94 N          -2.4879  -26.0311  -53.4045 N.am      17 UNK        -0.5000 
     95 CA         -3.0688  -25.6228  -54.6833 C.3       17 UNK         0.1400 
     96 CB         -2.2669  -24.4299  -55.2293 C.3       17 UNK        -0.1800 
     97 C          -4.5644  -25.2836  -54.5054 C.2       17 UNK         0.5000 
     98 O          -5.0883  -24.4089  -55.2007 O.2       17 UNK        -0.5000 
     99 N          -5.2128  -25.9458  -53.5316 N.am      18 UNK        -0.5000 
    100 CA        -6.6212  -25.8390  -53.1250 C.3       18 UNK         0.1400 
    101 CB        -7.5374  -26.3361  -54.2622 C.3       18 UNK        -0.1800 
    102 C         -7.0460  -24.4420  -52.6213 C.2       18 UNK         0.5000 
    103 O         -8.2436  -24.1940  -52.4760 O.2       18 UNK        -0.5000 
    104 N         -6.0703  -23.5453  -52.4042 N.am      19 UNK        -0.5000 
    105 CA        -6.2195  -22.0985  -52.2211 C.3       19 UNK         0.1400 
    106 CB        -6.8518  -21.7727  -50.8534 C.3       19 UNK        -0.1800 
    107 C         -6.9340  -21.4177  -53.4138 C.2       19 UNK         0.5000 
    108 O         -7.5945  -20.3933  -53.2355 O.2       19 UNK        -0.5000 
    109 N         -6.7954  -22.0098  -54.6095 N.am      20 UNK        -0.5000 
    110 CA        -7.4041  -21.5406  -55.8508 C.3       20 UNK         0.1400 
    111 CB        -7.9036  -22.7511  -56.6550 C.3       20 UNK        -0.1800 
    112 C         -6.4032  -20.7184  -56.6737 C.2       20 UNK         0.5000 
    113 O         -6.7728  -19.6726  -57.2093 O.2       20 UNK        -0.5000 
    114 N         -5.1452  -21.1828  -56.7370 N.am      21 UNK        -0.5000 
    115 CA        -4.0584  -20.5551  -57.4988 C.3       21 UNK         0.1400 
    116 CB        -2.8308  -21.4768  -57.4778 C.3       21 UNK        -0.1800 
    117 C         -3.6813  -19.1452  -57.0030 C.2       21 UNK         0.5000 
    118 O         -3.2206  -18.3233  -57.7960 O.2       21 UNK        -0.5000 
    119 N         -3.9055  -18.8911  -55.7095 N.am      22 UNK        -0.5000 
    120 CA        -3.7702  -17.5797  -55.0613 C.3       22 UNK         0.1400 
    121 C         -4.9812  -16.6205  -55.2760 C.2       22 UNK         0.5000 
    122 N         -6.0499  -17.0199  -55.9570 N.am      22 UNK        -0.7600 
    123 O         -4.9428  -15.4772  -54.8295 O.2       22 UNK        -0.5000 
    124 C124       -3.3886  -17.7292  -53.5658 C.3       23 UNK        -0.0398 
    125 S125       -4.5533  -18.7649  -52.6080 S.3       23 UNK        -0.2404 
    126 C126       -5.2402  -17.5803  -51.4054 C.3       23 UNK        -0.0205 
    127 H127        3.8114  -16.5057  -47.7541 H         1 UNK         0.0600 
    128 H128        4.7178  -16.6161  -46.2424 H         1 UNK         0.0600 
    129 H129        5.0386  -15.2936  -47.3689 H         1 UNK         0.0600 
    130 H130        1.7786  -15.6907  -47.4962 H         1 UNK         0.3000 
    131 H131        0.7451  -14.7574  -45.0631 H         1 UNK         0.0600 
    132 H132       -1.4426  -14.6069  -46.3757 H         1 UNK         0.0800 
    133 H133       -0.6492  -16.1327  -46.3318 H         1 UNK         0.0800 
    134 H134       -0.4881  -17.2052  -49.8365 H         1 UNK         0.0800 
    135 H135       -0.4056  -17.5800  -48.1435 H         1 UNK         0.0800 
    136 H136       -2.5752  -17.0817  -50.9854 H         1 UNK         0.1150 
    137 H137       -6.1984  -17.9957  -48.8877 H         1 UNK         0.1150 
    138 H138       -2.5387  -17.4044  -46.7292 H         1 UNK         0.1150 
    139 H139       -5.7333  -16.9579  -46.1388 H         1 UNK         0.0800 
    140 H140       -6.0681  -18.6258  -46.5184 H         1 UNK         0.0800 
    141 H141       -5.0317  -20.5834  -45.6292 H         1 UNK         0.0800 
    142 H142       -4.1085  -20.6846  -44.1590 H         1 UNK         0.0800 
    143 H143       -2.9959  -20.2009  -46.9562 H         1 UNK         0.0600 
    144 H144       -1.6482  -19.6536  -44.4992 H         1 UNK         0.3000 
    145 H145        1.6432  -20.3331  -45.7281 H         1 UNK         0.0600 
    146 H146        2.1909  -18.0592  -45.1925 H         1 UNK         0.0600 
    147 H147        1.1679  -18.0169  -46.6040 H         1 UNK         0.0600 
    148 H148        0.4961  -17.5990  -45.0229 H         1 UNK         0.0600 
    149 H149        0.2750  -19.2731  -43.3235 H         1 UNK         0.3000 
    150 H150        0.5139  -22.3679  -41.6019 H         1 UNK         0.0600 
    151 H151        2.1901  -19.8380  -41.1625 H         1 UNK         0.0600 
    152 H152        2.8071  -21.4821  -41.2486 H         1 UNK         0.0600 
    153 H153        1.7594  -21.0115  -39.9189 H         1 UNK         0.0600 
    154 H154       -0.2905  -19.7417  -40.7867 H         1 UNK         0.3000 
    155 H155       -3.5857  -19.8125  -42.0713 H         1 UNK         0.0600 
    156 H156       -2.7864  -20.4162  -39.1776 H         1 UNK         0.0600 
    157 H157       -3.8468  -21.4142  -40.1657 H         1 UNK         0.0600 
    158 H158       -4.3436  -19.7898  -39.7218 H         1 UNK         0.0600 
    159 H159       -2.6032  -18.0936  -40.1391 H         1 UNK         0.3000 
    160 H160       -1.9528  -15.5695  -42.1673 H         1 UNK         0.0600 
    161 H161       -1.4973  -16.5146  -39.2784 H         1 UNK         0.0600 
    162 H162       -3.0420  -16.0130  -39.9706 H         1 UNK         0.0600 
    163 H163       -1.7408  -14.8533  -39.7977 H         1 UNK         0.0600 
    164 H164        0.2327  -15.1539  -42.1509 H         1 UNK         0.3000 
    165 H165        3.0815  -16.6277  -40.6534 H         1 UNK         0.0600 
    166 H166        3.8821  -16.5585  -42.9811 H         1 UNK         0.0600 
    167 H167        2.6952  -17.8420  -42.7960 H         1 UNK         0.0600 
    168 H168        2.2402  -16.3267  -43.5719 H         1 UNK         0.0600 
    169 H169        3.5529  -14.5080  -40.8620 H         1 UNK         0.3000 
    170 H170        2.3106  -11.6570  -42.5293 H         1 UNK         0.0600 
    171 H171        2.0236  -11.7344  -40.0753 H         1 UNK         0.0600 
    172 H172        3.5865  -12.5065  -39.8707 H         1 UNK         0.0600 
    173 H173        3.4893  -10.8661  -40.5020 H         1 UNK         0.0600 
    174 H174        4.2379  -11.9694  -43.5303 H         1 UNK         0.3000 
    175 H175        7.2649  -12.7629  -42.9772 H         1 UNK         0.0600 
    176 H176        5.9282  -15.3353  -43.9829 H         1 UNK         0.0600 
    177 H177        7.5735  -14.8328  -44.3665 H         1 UNK         0.0600 
    178 H178        7.1406  -15.2262  -42.7114 H         1 UNK         0.0600 
    179 H179        5.1736  -13.1431  -45.0930 H         1 UNK         0.3000 
    180 H180        6.1853  -10.1172  -46.6920 H         1 UNK         0.0600 
    181 H181        6.3162  -13.0017  -47.7232 H         1 UNK         0.0600 
    182 H182        7.6434  -11.8475  -47.7603 H         1 UNK         0.0600 
    183 H183        6.2003  -11.5465  -48.7140 H         1 UNK         0.0600 
    184 H184        4.1164  -11.8675  -47.3931 H         1 UNK         0.3000 
    185 H185        1.5526  -10.4730  -45.3143 H         1 UNK         0.0600 
    186 H186        1.9113   -9.1053  -47.4109 H         1 UNK         0.0600 
    187 H187        2.1758  -10.5859  -48.3257 H         1 UNK         0.0600 
    188 H188        0.6043  -10.2605  -47.6003 H         1 UNK         0.0600 
    189 H189        2.7157  -12.9024  -46.1412 H         1 UNK         0.3000 
    190 H190       -1.8494  -22.3521  -44.3371 H         1 UNK         0.3000 
    191 H191       -2.8268  -24.7915  -45.3879 H         1 UNK         0.0600 
    192 H192       -1.9861  -24.5354  -43.0715 H         1 UNK         0.0600 
    193 H193       -1.0952  -25.8057  -43.8957 H         1 UNK         0.0600 
    194 H194       -0.3557  -24.2257  -43.6646 H         1 UNK         0.0600 
    195 H195        0.0059  -22.8727  -46.3054 H         1 UNK         0.3000 
    196 H196        1.1795  -24.9337  -48.0033 H         1 UNK         0.0600 
    197 H197        2.7027  -23.1476  -48.7167 H         1 UNK         0.0600 
    198 H198        2.5778  -23.1403  -46.9639 H         1 UNK         0.0600 
    199 H199        1.7345  -21.9220  -47.9170 H         1 UNK         0.0600 
    200 H200       -0.8419  -21.9901  -48.4808 H         1 UNK         0.3000 
    201 H201       -1.1480  -22.1801  -51.2830 H         1 UNK         0.0600 
    202 H202       -3.0537  -20.6433  -50.9399 H         1 UNK         0.0600 
    203 H203       -1.7064  -20.1545  -49.9249 H         1 UNK         0.0600 
    204 H204       -3.0857  -20.9967  -49.2223 H         1 UNK         0.0600 
    205 H205       -2.9731  -23.7447  -48.6706 H         1 UNK         0.3000 
    206 H206       -5.0758  -24.8776  -50.1077 H         1 UNK         0.0600 
    207 H207       -4.9581  -24.8054  -47.6380 H         1 UNK         0.0600 
    208 H208       -5.2322  -26.4505  -48.1850 H         1 UNK         0.0600 
    209 H209       -3.6320  -25.9680  -47.6413 H         1 UNK         0.0600 
    210 H210       -1.7105  -25.8142  -50.3044 H         1 UNK         0.3000 
    211 H211       -2.0973  -28.4936  -51.2997 H         1 UNK         0.0600 
    212 H212        0.2314  -26.5626  -51.7799 H         1 UNK         0.0600 
    213 H213        0.2507  -28.3058  -51.9951 H         1 UNK         0.0600 
    214 H214        0.0842  -27.6287  -50.3815 H         1 UNK         0.0600 
    215 H215       -2.4866  -25.3113  -52.6886 H         1 UNK         0.3000 
    216 H216       -3.0091  -26.4354  -55.4096 H         1 UNK         0.0600 
    217 H217       -2.6094  -24.1589  -56.2276 H         1 UNK         0.0600 
    218 H218       -1.2064  -24.6696  -55.3067 H         1 UNK         0.0600 
    219 H219       -2.3668  -23.5509  -54.5910 H         1 UNK         0.0600 
    220 H220       -4.6749  -26.6066  -52.9847 H         1 UNK         0.3000 
    221 H221       -6.7465  -26.5150  -52.2783 H         1 UNK         0.0600 
    222 H222       -7.5148  -25.6657  -55.1220 H         1 UNK         0.0600 
    223 H223       -7.2408  -27.3282  -54.6024 H         1 UNK         0.0600 
    224 H224       -8.5741  -26.4065  -53.9312 H         1 UNK         0.0600 
    225 H225       -5.1114  -23.8539  -52.5186 H         1 UNK         0.3000 
    226 H226       -5.2061  -21.6962  -52.2133 H         1 UNK         0.0600 
    227 H227       -7.8923  -22.0934  -50.8006 H         1 UNK         0.0600 
    228 H228       -6.3065  -22.2582  -50.0438 H         1 UNK         0.0600 
    229 H229       -6.8280  -20.6995  -50.6600 H         1 UNK         0.0600 
    230 H230       -6.2408  -22.8581  -54.6726 H         1 UNK         0.3000 
    231 H231       -8.2649  -20.9052  -55.6320 H         1 UNK         0.0600 
    232 H232       -7.0909  -23.4306  -56.9147 H         1 UNK         0.0600 
    233 H233       -8.3773  -22.4336  -57.5848 H         1 UNK         0.0600 
    234 H234       -8.6434  -23.3183  -56.0896 H         1 UNK         0.0600 
    235 H235       -4.9278  -22.0531  -56.2716 H         1 UNK         0.3000 
    236 H236       -4.3931  -20.4568  -58.5335 H         1 UNK         0.0600 
    237 H237       -2.0116  -21.0508  -58.0585 H         1 UNK         0.0600 
    238 H238       -2.4653  -21.6345  -56.4625 H         1 UNK         0.0600 
    239 H239       -3.0619  -22.4496  -57.9118 H         1 UNK         0.0600 
    240 H240       -4.3005  -19.6216  -55.1359 H         1 UNK         0.3000 
    241 H241       -2.9308  -17.0700  -55.5379 H         1 UNK         0.0600 
    242 H242       -6.1131  -17.9520  -56.3499 H         1 UNK         0.3800 
    243 H243       -6.8151  -16.3776  -56.0870 H         1 UNK         0.3800 
    244 H244       -2.4045  -18.1936  -53.4915 H         1 UNK         0.0800 
    245 H245       -3.2804  -16.7468  -53.1048 H         1 UNK         0.0800 
    246 H246       -5.2663  -16.5771  -51.8327 H         1 UNK         0.0800 
    247 H247       -6.2802  -17.8585  -51.2282 H         1 UNK         0.0800 
@<TRIPOS>BOND
     1    1    2 1    
     2    1  127 1    
     3    1  128 1    
     4    1  129 1    
     5    2    3 2    
     6    2    4 am   BACKBONE|DICT|INTERRES
     7    4    5 1    
     8    4  130 1    
     9    5    6 1    
    10    5   65 1    
    11    5  131 1    
    12    6    7 1    
    13    6  132 1    
    14    6  133 1    
    15    7    8 1    
    16    8    9 1    
    17    8  134 1    
    18    8  135 1    
    19    9   10 ar   
    20    9   14 ar   
    21   10   11 ar   
    22   10  136 1    
    23   11   12 ar   
    24   11  126 1    
    25   12   13 ar   
    26   12  137 1    
    27   13   14 ar   
    28   13   15 1    
    29   14  138 1    
    30   15   16 1    
    31   15  139 1    
    32   15  140 1    
    33   16   17 1    
    34   17   18 1    
    35   17  141 1    
    36   17  142 1    
    37   18   19 1    
    38   18   67 1    
    39   18  143 1    
    40   19   20 am   BACKBONE|DICT|INTERRES
    41   19  144 1    
    42   20   21 2    
    43   20   22 1    
    44   22   23 1    
    45   22   24 1    
    46   22  145 1    
    47   23  146 1    
    48   23  147 1    
    49   23  148 1    
    50   24   25 am   BACKBONE|DICT|INTERRES
    51   24  149 1    
    52   25   26 2    
    53   25   27 1    
    54   27   28 1    
    55   27   29 1    
    56   27  150 1    
    57   28  151 1    
    58   28  152 1    
    59   28  153 1    
    60   29   30 am   BACKBONE|DICT|INTERRES
    61   29  154 1    
    62   30   31 2    
    63   30   32 1    
    64   32   33 1    
    65   32   34 1    
    66   32  155 1    
    67   33  156 1    
    68   33  157 1    
    69   33  158 1    
    70   34   35 am   BACKBONE|DICT|INTERRES
    71   34  159 1    
    72   35   36 2    
    73   35   37 1    
    74   37   38 1    
    75   37   39 1    
    76   37  160 1    
    77   38  161 1    
    78   38  162 1    
    79   38  163 1    
    80   39   40 am   BACKBONE|DICT|INTERRES
    81   39  164 1    
    82   40   41 2    
    83   40   42 1    
    84   42   43 1    
    85   42   44 1    
    86   42  165 1    
    87   43  166 1    
    88   43  167 1    
    89   43  168 1    
    90   44   45 am   BACKBONE|DICT|INTERRES
    91   44  169 1    
    92   45   46 2    
    93   45   47 1    
    94   47   48 1    
    95   47   49 1    
    96   47  170 1    
    97   48  171 1    
    98   48  172 1    
    99   48  173 1    
   100   49   50 am   BACKBONE|DICT|INTERRES
   101   49  174 1    
   102   50   51 2    
   103   50   52 1    
   104   52   53 1    
   105   52   54 1    
   106   52  175 1    
   107   53  176 1    
   108   53  177 1    
   109   53  178 1    
   110   54   55 am   BACKBONE|DICT|INTERRES
   111   54  179 1    
   112   55   56 2    
   113   55   57 1    
   114   57   58 1    
   115   57   59 1    
   116   57  180 1    
   117   58  181 1    
   118   58  182 1    
   119   58  183 1    
   120   59   60 am   BACKBONE|DICT|INTERRES
   121   59  184 1    
   122   60   61 2    
   123   60   62 1    
   124   62   63 1    
   125   62   64 1    
   126   62  185 1    
   127   63  186 1    
   128   63  187 1    
   129   63  188 1    
   130   64   65 am   BACKBONE|DICT|INTERRES
   131   64  189 1    
   132   65   66 2    
   133   67   68 2    
   134   67   69 am   BACKBONE|DICT|INTERRES
   135   69   70 1    
   136   69  190 1    
   137   70   71 1    
   138   70   72 1    
   139   70  191 1    
   140   71  192 1    
   141   71  193 1    
   142   71  194 1    
   143   72   73 2    
   144   72   74 am   BACKBONE|DICT|INTERRES
   145   74   75 1    
   146   74  195 1    
   147   75   76 1    
   148   75   77 1    
   149   75  196 1    
   150   76  197 1    
   151   76  198 1    
   152   76  199 1    
   153   77   78 2    
   154   77   79 am   BACKBONE|DICT|INTERRES
   155   79   80 1    
   156   79  200 1    
   157   80   81 1    
   158   80   82 1    
   159   80  201 1    
   160   81  202 1    
   161   81  203 1    
   162   81  204 1    
   163   82   83 2    
   164   82   84 am   BACKBONE|DICT|INTERRES
   165   84   85 1    
   166   84  205 1    
   167   85   86 1    
   168   85   87 1    
   169   85  206 1    
   170   86  207 1    
   171   86  208 1    
   172   86  209 1    
   173   87   88 2    
   174   87   89 am   BACKBONE|DICT|INTERRES
   175   89   90 1    
   176   89  210 1    
   177   90   91 1    
   178   90   92 1    
   179   90  211 1    
   180   91  212 1    
   181   91  213 1    
   182   91  214 1    
   183   92   93 2    
   184   92   94 am   BACKBONE|DICT|INTERRES
   185   94   95 1    
   186   94  215 1    
   187   95   96 1    
   188   95   97 1    
   189   95  216 1    
   190   96  217 1    
   191   96  218 1    
   192   96  219 1    
   193   97   98 2    
   194   97   99 am   BACKBONE|DICT|INTERRES
   195   99  100 1    
   196   99  220 1    
   197  100  101 1    
   198  100  102 1    
   199  100  221 1    
   200  101  222 1    
   201  101  223 1    
   202  101  224 1    
   203  102  103 2    
   204  102  104 am   BACKBONE|DICT|INTERRES
   205  104  105 1    
   206  104  225 1    
   207  105  106 1    
   208  105  107 1    
   209  105  226 1    
   210  106  227 1    
   211  106  228 1    
   212  106  229 1    
   213  107  108 2    
   214  107  109 am   BACKBONE|DICT|INTERRES
   215  109  110 1    
   216  109  230 1    
   217  110  111 1    
   218  110  112 1    
   219  110  231 1    
   220  111  232 1    
   221  111  233 1    
   222  111  234 1    
   223  112  113 2    
   224  112  114 am   BACKBONE|DICT|INTERRES
   225  114  115 1    
   226  114  235 1    
   227  115  116 1    
   228  115  117 1    
   229  115  236 1    
   230  116  237 1    
   231  116  238 1    
   232  116  239 1    
   233  117  118 2    
   234  117  119 am   BACKBONE|DICT|INTERRES
   235  119  120 1    
   236  119  240 1    
   237  120  121 1    
   238  120  124 1    
   239  120  241 1    
   240  121  122 am   BACKBONE|DICT|INTERRES
   241  121  123 2    
   242  122  242 1    
   243  122  243 1    
   244  124  125 1    
   245  124  244 1    
   246  124  245 1    
   247  125  126 1    
   248  126  246 1    
   249  126  247 1    
@<TRIPOS>SUBSTRUCTURE
     1 UNK         1 GROUP             0       ****    0 ROOT    
