@<TRIPOS>MOLECULE
3R540
247   249    1
SMALL
USER_CHARGES


@<TRIPOS>ATOM
      1 CA         -3.4697  -12.8776  -44.7594 C.3       0 UNK        -0.1800 
      2 C          -2.0415  -13.0529  -45.2545 C.2       0 UNK         0.5000 
      3 O          -1.2980  -13.8612  -44.7011 O.2       0 UNK        -0.5000 
      4 N          -1.6576  -12.2921  -46.2884 N.am      1 UNK        -0.5000 
      5 CA         -0.3184  -12.2374  -46.8996 C.3       1 UNK         0.1400 
      6 C6          0.2284  -13.6303  -47.3231 C.3       23 UNK        -0.0398 
      7 S7          1.2675  -13.5673  -48.8228 S.3       23 UNK        -0.2404 
      8 C8          0.0720  -14.0047  -50.1323 C.3       23 UNK        -0.0205 
      9 C9         -0.4466  -15.4401  -50.0663 C.ar      23 UNK        -0.0193 
     10 C10        -1.7828  -15.7045  -50.3884 C.ar      23 UNK        -0.1150 
     11 C11        -2.2824  -17.0109  -50.3667 C.ar      23 UNK        -0.0193 
     12 C12        -1.4298  -18.0568  -49.9976 C.ar      23 UNK        -0.1150 
     13 C13        -0.0933  -17.8121  -49.6808 C.ar      23 UNK        -0.0193 
     14 C14         0.3957  -16.5049  -49.7251 C.ar      23 UNK        -0.1150 
     15 C15         0.8157  -18.9634  -49.2890 C.3       23 UNK        -0.0205 
     16 S16         0.9961  -19.0440  -47.4843 S.3       23 UNK        -0.2404 
     17 C17         1.4948  -20.7776  -47.2394 C.3       23 UNK        -0.0398 
     18 CA          0.3893  -21.6824  -46.6420 C.3       11 UNK         0.1400 
     19 N          -0.0378  -21.2734  -45.2990 N.am      11 UNK        -0.5000 
     20 C          -0.5988  -22.1211  -44.4237 C.2       10 UNK         0.5000 
     21 O          -0.9862  -23.2496  -44.7292 O.2       10 UNK        -0.5000 
     22 CA         -0.7309  -21.6473  -42.9681 C.3       10 UNK         0.1400 
     23 CB          0.6475  -21.3672  -42.3454 C.3       10 UNK        -0.1800 
     24 N          -1.5486  -20.4439  -42.8980 N.am      10 UNK        -0.5000 
     25 C          -2.8375  -20.4166  -42.5316 C.2       9 UNK         0.5000 
     26 O          -3.4488  -21.3955  -42.1023 O.2       9 UNK        -0.5000 
     27 CA         -3.5870  -19.0742  -42.6814 C.3       9 UNK         0.1400 
     28 CB         -3.6506  -18.3424  -41.3321 C.3       9 UNK        -0.1800 
     29 N          -3.0103  -18.1704  -43.6798 N.am      9 UNK        -0.5000 
     30 C          -2.8347  -18.4617  -44.9762 C.2       8 UNK         0.5000 
     31 O          -3.1792  -19.5252  -45.4853 O.2       8 UNK        -0.5000 
     32 CA         -2.0601  -17.4352  -45.8214 C.3       8 UNK         0.1400 
     33 CB         -3.0219  -16.4544  -46.5050 C.3       8 UNK        -0.1800 
     34 N          -1.0490  -16.6981  -45.0551 N.am      8 UNK        -0.5000 
     35 C          -0.0176  -17.2623  -44.4122 C.2       7 UNK         0.5000 
     36 O           0.1548  -18.4823  -44.3201 O.2       7 UNK        -0.5000 
     37 CA          0.9548  -16.3097  -43.7023 C.3       7 UNK         0.1400 
     38 CB          0.6693  -16.2815  -42.1934 C.3       7 UNK        -0.1800 
     39 N           2.3375  -16.7224  -43.9232 N.am      7 UNK        -0.5000 
     40 C           2.9795  -16.6026  -45.0928 C.2       6 UNK         0.5000 
     41 O           2.4834  -16.0945  -46.0982 O.2       6 UNK        -0.5000 
     42 CA          4.4329  -17.0976  -45.1144 C.3       6 UNK         0.1400 
     43 CB          5.1893  -16.7206  -46.4032 C.3       6 UNK        -0.1800 
     44 N           5.1388  -16.5648  -43.9523 N.am      6 UNK        -0.5000 
     45 C           6.1091  -17.1954  -43.2812 C.2       5 UNK         0.5000 
     46 O           6.5224  -18.3176  -43.5761 O.2       5 UNK        -0.5000 
     47 CA          6.7380  -16.4543  -42.0837 C.3       5 UNK         0.1400 
     48 CB          8.1263  -15.9131  -42.4605 C.3       5 UNK        -0.1800 
     49 N           5.9271  -15.3447  -41.5769 N.am      5 UNK        -0.5000 
     50 C           4.7851  -15.4734  -40.8872 C.2       4 UNK         0.5000 
     51 O           4.2714  -16.5572  -40.6099 O.2       4 UNK        -0.5000 
     52 CA          4.0959  -14.1668  -40.4472 C.3       4 UNK         0.1400 
     53 CB          4.5349  -13.7804  -39.0268 C.3       4 UNK        -0.1800 
     54 N           4.3520  -13.0410  -41.3518 N.am      4 UNK        -0.5000 
     55 C           3.8726  -12.9550  -42.5989 C.2       3 UNK         0.5000 
     56 O           3.1876  -13.8295  -43.1278 O.2       3 UNK        -0.5000 
     57 CA          4.2447  -11.7014  -43.4055 C.3       3 UNK         0.1400 
     58 CB          5.2150  -12.0619  -44.5415 C.3       3 UNK        -0.1800 
     59 N           3.0542  -11.0751  -43.9744 N.am      3 UNK        -0.5000 
     60 C           2.1153  -10.4267  -43.2776 C.2       2 UNK         0.5000 
     61 O           2.1756  -10.2503  -42.0598 O.2       2 UNK        -0.5000 
     62 CA          0.9124   -9.8604  -44.0591 C.3       2 UNK         0.1400 
     63 CB          1.2926   -8.5587  -44.7905 C.3       2 UNK        -0.1800 
     64 N           0.2414  -10.8020  -44.9670 N.am      2 UNK        -0.5000 
     65 C           0.6976  -11.3988  -46.0797 C.2       1 UNK         0.5000 
     66 O           1.8509  -11.2663  -46.4911 O.2       1 UNK        -0.5000 
     67 C          -0.7759  -21.9337  -47.6214 C.2       11 UNK         0.5000 
     68 O          -0.6732  -22.8566  -48.4296 O.2       11 UNK        -0.5000 
     69 N          -1.8732  -21.1647  -47.5263 N.am      12 UNK        -0.5000 
     70 CA         -3.0660  -21.3828  -48.3521 C.3       12 UNK         0.1400 
     71 CB         -3.9936  -20.1571  -48.3390 C.3       12 UNK        -0.1800 
     72 C          -3.8323  -22.6293  -47.8909 C.2       12 UNK         0.5000 
     73 O          -4.3518  -23.3585  -48.7320 O.2       12 UNK        -0.5000 
     74 N          -3.8555  -22.8726  -46.5724 N.am      13 UNK        -0.5000 
     75 CA         -4.4454  -24.0629  -45.9614 C.3       13 UNK         0.1400 
     76 CB         -4.4858  -23.8990  -44.4348 C.3       13 UNK        -0.1800 
     77 C          -3.7027  -25.3477  -46.3696 C.2       13 UNK         0.5000 
     78 O          -4.3488  -26.3247  -46.7485 O.2       13 UNK        -0.5000 
     79 N          -2.3623  -25.3017  -46.3489 N.am      14 UNK        -0.5000 
     80 CA         -1.4818  -26.3773  -46.8133 C.3       14 UNK         0.1400 
     81 CB         -0.0276  -26.0282  -46.4629 C.3       14 UNK        -0.1800 
     82 C          -1.6224  -26.6652  -48.3217 C.2       14 UNK         0.5000 
     83 O          -1.5804  -27.8267  -48.7278 O.2       14 UNK        -0.5000 
     84 N          -1.8168  -25.6054  -49.1168 N.am      15 UNK        -0.5000 
     85 CA         -2.0517  -25.6618  -50.5610 C.3       15 UNK         0.1400 
     86 CB         -1.6940  -24.2911  -51.1537 C.3       15 UNK        -0.1800 
     87 C          -3.4967  -26.0426  -50.9477 C.2       15 UNK         0.5000 
     88 O          -3.7714  -26.2071  -52.1385 O.2       15 UNK        -0.5000 
     89 N          -4.4007  -26.1199  -49.9574 N.am      16 UNK        -0.5000 
     90 CA         -5.8511  -26.3112  -50.0855 C.3       16 UNK         0.1400 
     91 CB         -6.1660  -27.7468  -50.5525 C.3       16 UNK        -0.1800 
     92 C          -6.5135  -25.2314  -50.9707 C.2       16 UNK         0.5000 
     93 O          -7.4305  -25.5323  -51.7376 O.2       16 UNK        -0.5000 
     94 N          -5.9862  -24.0010  -50.8818 N.am      17 UNK        -0.5000 
     95 CA         -6.2305  -22.8008  -51.6888 C.3       17 UNK         0.1400 
     96 CB         -7.6819  -22.3095  -51.5399 C.3       17 UNK        -0.1800 
     97 C          -5.8399  -22.9383  -53.1740 C.2       17 UNK         0.5000 
     98 O          -5.1866  -22.0436  -53.7114 O.2       17 UNK        -0.5000 
     99 N          -6.2471  -24.0448  -53.8051 N.am      18 UNK        -0.5000 
    100 CA        -6.1404  -24.3318  -55.2324 C.3       18 UNK         0.1400 
    101 CB        -6.8325  -25.6709  -55.5275 C.3       18 UNK        -0.1800 
    102 C         -4.7040  -24.3345  -55.7779 C.2       18 UNK         0.5000 
    103 O         -4.4667  -23.7393  -56.8292 O.2       18 UNK        -0.5000 
    104 N         -3.7652  -24.9728  -55.0621 N.am      19 UNK        -0.5000 
    105 CA        -2.3691  -25.0912  -55.5034 C.3       19 UNK         0.1400 
    106 CB        -1.6723  -26.2287  -54.7413 C.3       19 UNK        -0.1800 
    107 C         -1.5773  -23.7728  -55.3893 C.2       19 UNK         0.5000 
    108 O         -0.5740  -23.6089  -56.0841 O.2       19 UNK        -0.5000 
    109 N         -2.0531  -22.8539  -54.5393 N.am      20 UNK        -0.5000 
    110 CA        -1.5210  -21.4999  -54.3782 C.3       20 UNK         0.1400 
    111 CB        -1.5705  -21.1330  -52.8861 C.3       20 UNK        -0.1800 
    112 C         -2.2817  -20.4672  -55.2379 C.2       20 UNK         0.5000 
    113 O         -1.8543  -19.3144  -55.3062 O.2       20 UNK        -0.5000 
    114 N         -3.3818  -20.8961  -55.8781 N.am      21 UNK        -0.5000 
    115 CA        -4.3179  -20.1144  -56.6928 C.3       21 UNK         0.1400 
    116 CB        -3.6361  -19.6157  -57.9839 C.3       21 UNK        -0.1800 
    117 C         -5.0225  -18.9899  -55.9017 C.2       21 UNK         0.5000 
    118 O         -5.2868  -17.9181  -56.4511 O.2       21 UNK        -0.5000 
    119 N         -5.3081  -19.2522  -54.6213 N.am      22 UNK        -0.5000 
    120 CA        -5.9810  -18.3228  -53.7028 C.3       22 UNK         0.1400 
    121 C         -7.5070  -18.2367  -53.9763 C.2       22 UNK         0.5000 
    122 N         -8.1066  -17.0650  -53.8150 N.am      22 UNK        -0.7600 
    123 O         -8.1611  -19.2285  -54.2916 O.2       22 UNK        -0.5000 
    124 C124       -5.7138  -18.6875  -52.2212 C.3       23 UNK        -0.0398 
    125 S125       -3.9334  -18.7180  -51.8332 S.3       23 UNK        -0.2404 
    126 C126       -3.7411  -17.2780  -50.7316 C.3       23 UNK        -0.0205 
    127 H127       -3.9527  -13.8460  -44.6358 H         1 UNK         0.0600 
    128 H128       -3.4692  -12.3747  -43.7925 H         1 UNK         0.0600 
    129 H129       -4.0687  -12.2865  -45.4523 H         1 UNK         0.0600 
    130 H130       -2.3289  -11.6521  -46.6913 H         1 UNK         0.3000 
    131 H131       -0.4793  -11.6613  -47.8121 H         1 UNK         0.0600 
    132 H132       -0.5934  -14.3198  -47.5147 H         1 UNK         0.0800 
    133 H133        0.8025  -14.0845  -46.5144 H         1 UNK         0.0800 
    134 H134       -0.7571  -13.2967  -50.0915 H         1 UNK         0.0800 
    135 H135        0.5525  -13.8605  -51.1006 H         1 UNK         0.0800 
    136 H136       -2.4357  -14.8891  -50.6666 H         1 UNK         0.1150 
    137 H137       -1.8009  -19.0707  -49.9708 H         1 UNK         0.1150 
    138 H138        1.4322  -16.3203  -49.4803 H         1 UNK         0.1150 
    139 H139        0.4093  -19.9032  -49.6663 H         1 UNK         0.0800 
    140 H140        1.7977  -18.8413  -49.7481 H         1 UNK         0.0800 
    141 H141        1.8624  -21.1936  -48.1791 H         1 UNK         0.0800 
    142 H142        2.3558  -20.7759  -46.5697 H         1 UNK         0.0800 
    143 H143        0.8648  -22.6582  -46.5171 H         1 UNK         0.0600 
    144 H144        0.2053  -20.3307  -45.0065 H         1 UNK         0.3000 
    145 H145       -1.1909  -22.4568  -42.3975 H         1 UNK         0.0600 
    146 H146        0.5533  -21.1072  -41.2911 H         1 UNK         0.0600 
    147 H147        1.2892  -22.2470  -42.4070 H         1 UNK         0.0600 
    148 H148        1.1658  -20.5468  -42.8430 H         1 UNK         0.0600 
    149 H149       -1.1303  -19.6028  -43.2814 H         1 UNK         0.3000 
    150 H150       -4.6062  -19.3057  -42.9974 H         1 UNK         0.0600 
    151 H151       -4.1009  -18.9741  -40.5652 H         1 UNK         0.0600 
    152 H152       -4.2546  -17.4375  -41.4009 H         1 UNK         0.0600 
    153 H153       -2.6570  -18.0589  -40.9824 H         1 UNK         0.0600 
    154 H154       -2.6726  -17.2807  -43.3442 H         1 UNK         0.3000 
    155 H155       -1.5408  -17.9873  -46.6054 H         1 UNK         0.0600 
    156 H156       -2.4877  -15.7701  -47.1637 H         1 UNK         0.0600 
    157 H157       -3.5774  -15.8643  -45.7773 H         1 UNK         0.0600 
    158 H158       -3.7496  -16.9873  -47.1184 H         1 UNK         0.0600 
    159 H159       -1.1376  -15.6845  -45.0307 H         1 UNK         0.3000 
    160 H160        0.8329  -15.3000  -44.0990 H         1 UNK         0.0600 
    161 H161        0.7945  -17.2656  -41.7396 H         1 UNK         0.0600 
    162 H162       -0.3522  -15.9539  -41.9965 H         1 UNK         0.0600 
    163 H163        1.3360  -15.5879  -41.6819 H         1 UNK         0.0600 
    164 H164        2.8124  -17.1539  -43.1444 H         1 UNK         0.3000 
    165 H165        4.3848  -18.1867  -45.0498 H         1 UNK         0.0600 
    166 H166        5.2548  -15.6388  -46.5257 H         1 UNK         0.0600 
    167 H167        6.2034  -17.1201  -46.3980 H         1 UNK         0.0600 
    168 H168        4.6869  -17.1237  -47.2836 H         1 UNK         0.0600 
    169 H169        4.8203  -15.6625  -43.6227 H         1 UNK         0.3000 
    170 H170        6.8617  -17.1822  -41.2791 H         1 UNK         0.0600 
    171 H171        8.7774  -16.7149  -42.8116 H         1 UNK         0.0600 
    172 H172        8.0654  -15.1685  -43.2553 H         1 UNK         0.0600 
    173 H173        8.6167  -15.4517  -41.6032 H         1 UNK         0.0600 
    174 H174        6.2722  -14.4136  -41.7568 H         1 UNK         0.3000 
    175 H175        3.0199  -14.3507  -40.4305 H         1 UNK         0.0600 
    176 H176        5.6026  -13.5622  -38.9798 H         1 UNK         0.0600 
    177 H177        3.9958  -12.9016  -38.6725 H         1 UNK         0.0600 
    178 H178        4.3338  -14.5888  -38.3224 H         1 UNK         0.0600 
    179 H179        4.9026  -12.2798  -40.9809 H         1 UNK         0.3000 
    180 H180        4.7342  -10.9798  -42.7481 H         1 UNK         0.0600 
    181 H181        4.7658  -12.7629  -45.2470 H         1 UNK         0.0600 
    182 H182        6.1220  -12.5247  -44.1505 H         1 UNK         0.0600 
    183 H183        5.5164  -11.1747  -45.0986 H         1 UNK         0.0600 
    184 H184        2.8844  -11.2127  -44.9678 H         1 UNK         0.3000 
    185 H185        0.1605   -9.5986  -43.3128 H         1 UNK         0.0600 
    186 H186        1.7044   -7.8274  -44.0939 H         1 UNK         0.0600 
    187 H187        2.0423   -8.7279  -45.5639 H         1 UNK         0.0600 
    188 H188        0.4218   -8.1031  -45.2620 H         1 UNK         0.0600 
    189 H189       -0.7144  -11.0121  -44.7179 H         1 UNK         0.3000 
    190 H190       -1.9463  -20.4683  -46.7934 H         1 UNK         0.3000 
    191 H191       -2.7394  -21.5363  -49.3828 H         1 UNK         0.0600 
    192 H192       -4.6495  -20.1673  -49.2097 H         1 UNK         0.0600 
    193 H193       -3.4347  -19.2238  -48.3561 H         1 UNK         0.0600 
    194 H194       -4.6396  -20.1374  -47.4611 H         1 UNK         0.0600 
    195 H195       -3.3962  -22.2174  -45.9557 H         1 UNK         0.3000 
    196 H196       -5.4739  -24.1459  -46.3192 H         1 UNK         0.0600 
    197 H197       -4.9550  -24.7630  -43.9629 H         1 UNK         0.0600 
    198 H198       -5.0621  -23.0191  -44.1478 H         1 UNK         0.0600 
    199 H199       -3.4882  -23.7954  -44.0081 H         1 UNK         0.0600 
    200 H200       -1.9089  -24.4752  -45.9700 H         1 UNK         0.3000 
    201 H201       -1.7542  -27.2872  -46.2746 H         1 UNK         0.0600 
    202 H202        0.0967  -25.8883  -45.3889 H         1 UNK         0.0600 
    203 H203        0.2964  -25.1127  -46.9588 H         1 UNK         0.0600 
    204 H204        0.6507  -26.8258  -46.7684 H         1 UNK         0.0600 
    205 H205       -1.7745  -24.6789  -48.7079 H         1 UNK         0.3000 
    206 H206       -1.3882  -26.4101  -50.9988 H         1 UNK         0.0600 
    207 H207       -0.6529  -24.0347  -50.9574 H         1 UNK         0.0600 
    208 H208       -1.8304  -24.2773  -52.2323 H         1 UNK         0.0600 
    209 H209       -2.3191  -23.5000  -50.7398 H         1 UNK         0.0600 
    210 H210       -4.0752  -25.9375  -49.0170 H         1 UNK         0.3000 
    211 H211       -6.2671  -26.1852  -49.0850 H         1 UNK         0.0600 
    212 H212       -5.8230  -27.9252  -51.5721 H         1 UNK         0.0600 
    213 H213       -7.2392  -27.9395  -50.5295 H         1 UNK         0.0600 
    214 H214       -5.6909  -28.4837  -49.9050 H         1 UNK         0.0600 
    215 H215       -5.2643  -23.8771  -50.1722 H         1 UNK         0.3000 
    216 H216       -5.5791  -22.0325  -51.2688 H         1 UNK         0.0600 
    217 H217       -8.4012  -23.0411  -51.9082 H         1 UNK         0.0600 
    218 H218       -7.8436  -21.3890  -52.1020 H         1 UNK         0.0600 
    219 H219       -7.9200  -22.1008  -50.4970 H         1 UNK         0.0600 
    220 H220       -6.7586  -24.7219  -53.2439 H         1 UNK         0.3000 
    221 H221       -6.6863  -23.5460  -55.7585 H         1 UNK         0.0600 
    222 H222       -6.3668  -26.4924  -54.9813 H         1 UNK         0.0600 
    223 H223       -7.8859  -25.6395  -55.2486 H         1 UNK         0.0600 
    224 H224       -6.7850  -25.9119  -56.5903 H         1 UNK         0.0600 
    225 H225       -4.0137  -25.4209  -54.1865 H         1 UNK         0.3000 
    226 H226       -2.3748  -25.3669  -56.5603 H         1 UNK         0.0600 
    227 H227       -2.2154  -27.1675  -54.8508 H         1 UNK         0.0600 
    228 H228       -0.6638  -26.3909  -55.1237 H         1 UNK         0.0600 
    229 H229       -1.5841  -26.0169  -53.6778 H         1 UNK         0.0600 
    230 H230       -2.9002  -23.0652  -54.0304 H         1 UNK         0.3000 
    231 H231       -0.4765  -21.4676  -54.6944 H         1 UNK         0.0600 
    232 H232       -2.5727  -21.2585  -52.4756 H         1 UNK         0.0600 
    233 H233       -0.8913  -21.7574  -52.3065 H         1 UNK         0.0600 
    234 H234       -1.2709  -20.0972  -52.7208 H         1 UNK         0.0600 
    235 H235       -3.6414  -21.8652  -55.7534 H         1 UNK         0.3000 
    236 H236       -5.1062  -20.8085  -56.9876 H         1 UNK         0.0600 
    237 H237       -3.1642  -20.4377  -58.5221 H         1 UNK         0.0600 
    238 H238       -4.3621  -19.1620  -58.6594 H         1 UNK         0.0600 
    239 H239       -2.8714  -18.8670  -57.7758 H         1 UNK         0.0600 
    240 H240       -5.1035  -20.1774  -54.2556 H         1 UNK         0.3000 
    241 H241       -5.5576  -17.3310  -53.8753 H         1 UNK         0.0600 
    242 H242       -7.5936  -16.2370  -53.5536 H         1 UNK         0.3800 
    243 H243       -9.1000  -16.9987  -53.9754 H         1 UNK         0.3800 
    244 H244       -6.2149  -17.9840  -51.5541 H         1 UNK         0.0800 
    245 H245       -6.1250  -19.6702  -51.9906 H         1 UNK         0.0800 
    246 H246       -4.3134  -17.4391  -49.8176 H         1 UNK         0.0800 
    247 H247       -4.1730  -16.4056  -51.2242 H         1 UNK         0.0800 
@<TRIPOS>BOND
     1    1    2 1    
     2    1  127 1    
     3    1  128 1    
     4    1  129 1    
     5    2    3 2    
     6    2    4 am   BACKBONE|DICT|INTERRES
     7    4    5 1    
     8    4  130 1    
     9    5    6 1    
    10    5   65 1    
    11    5  131 1    
    12    6    7 1    
    13    6  132 1    
    14    6  133 1    
    15    7    8 1    
    16    8    9 1    
    17    8  134 1    
    18    8  135 1    
    19    9   10 ar   
    20    9   14 ar   
    21   10   11 ar   
    22   10  136 1    
    23   11   12 ar   
    24   11  126 1    
    25   12   13 ar   
    26   12  137 1    
    27   13   14 ar   
    28   13   15 1    
    29   14  138 1    
    30   15   16 1    
    31   15  139 1    
    32   15  140 1    
    33   16   17 1    
    34   17   18 1    
    35   17  141 1    
    36   17  142 1    
    37   18   19 1    
    38   18   67 1    
    39   18  143 1    
    40   19   20 am   BACKBONE|DICT|INTERRES
    41   19  144 1    
    42   20   21 2    
    43   20   22 1    
    44   22   23 1    
    45   22   24 1    
    46   22  145 1    
    47   23  146 1    
    48   23  147 1    
    49   23  148 1    
    50   24   25 am   BACKBONE|DICT|INTERRES
    51   24  149 1    
    52   25   26 2    
    53   25   27 1    
    54   27   28 1    
    55   27   29 1    
    56   27  150 1    
    57   28  151 1    
    58   28  152 1    
    59   28  153 1    
    60   29   30 am   BACKBONE|DICT|INTERRES
    61   29  154 1    
    62   30   31 2    
    63   30   32 1    
    64   32   33 1    
    65   32   34 1    
    66   32  155 1    
    67   33  156 1    
    68   33  157 1    
    69   33  158 1    
    70   34   35 am   BACKBONE|DICT|INTERRES
    71   34  159 1    
    72   35   36 2    
    73   35   37 1    
    74   37   38 1    
    75   37   39 1    
    76   37  160 1    
    77   38  161 1    
    78   38  162 1    
    79   38  163 1    
    80   39   40 am   BACKBONE|DICT|INTERRES
    81   39  164 1    
    82   40   41 2    
    83   40   42 1    
    84   42   43 1    
    85   42   44 1    
    86   42  165 1    
    87   43  166 1    
    88   43  167 1    
    89   43  168 1    
    90   44   45 am   BACKBONE|DICT|INTERRES
    91   44  169 1    
    92   45   46 2    
    93   45   47 1    
    94   47   48 1    
    95   47   49 1    
    96   47  170 1    
    97   48  171 1    
    98   48  172 1    
    99   48  173 1    
   100   49   50 am   BACKBONE|DICT|INTERRES
   101   49  174 1    
   102   50   51 2    
   103   50   52 1    
   104   52   53 1    
   105   52   54 1    
   106   52  175 1    
   107   53  176 1    
   108   53  177 1    
   109   53  178 1    
   110   54   55 am   BACKBONE|DICT|INTERRES
   111   54  179 1    
   112   55   56 2    
   113   55   57 1    
   114   57   58 1    
   115   57   59 1    
   116   57  180 1    
   117   58  181 1    
   118   58  182 1    
   119   58  183 1    
   120   59   60 am   BACKBONE|DICT|INTERRES
   121   59  184 1    
   122   60   61 2    
   123   60   62 1    
   124   62   63 1    
   125   62   64 1    
   126   62  185 1    
   127   63  186 1    
   128   63  187 1    
   129   63  188 1    
   130   64   65 am   BACKBONE|DICT|INTERRES
   131   64  189 1    
   132   65   66 2    
   133   67   68 2    
   134   67   69 am   BACKBONE|DICT|INTERRES
   135   69   70 1    
   136   69  190 1    
   137   70   71 1    
   138   70   72 1    
   139   70  191 1    
   140   71  192 1    
   141   71  193 1    
   142   71  194 1    
   143   72   73 2    
   144   72   74 am   BACKBONE|DICT|INTERRES
   145   74   75 1    
   146   74  195 1    
   147   75   76 1    
   148   75   77 1    
   149   75  196 1    
   150   76  197 1    
   151   76  198 1    
   152   76  199 1    
   153   77   78 2    
   154   77   79 am   BACKBONE|DICT|INTERRES
   155   79   80 1    
   156   79  200 1    
   157   80   81 1    
   158   80   82 1    
   159   80  201 1    
   160   81  202 1    
   161   81  203 1    
   162   81  204 1    
   163   82   83 2    
   164   82   84 am   BACKBONE|DICT|INTERRES
   165   84   85 1    
   166   84  205 1    
   167   85   86 1    
   168   85   87 1    
   169   85  206 1    
   170   86  207 1    
   171   86  208 1    
   172   86  209 1    
   173   87   88 2    
   174   87   89 am   BACKBONE|DICT|INTERRES
   175   89   90 1    
   176   89  210 1    
   177   90   91 1    
   178   90   92 1    
   179   90  211 1    
   180   91  212 1    
   181   91  213 1    
   182   91  214 1    
   183   92   93 2    
   184   92   94 am   BACKBONE|DICT|INTERRES
   185   94   95 1    
   186   94  215 1    
   187   95   96 1    
   188   95   97 1    
   189   95  216 1    
   190   96  217 1    
   191   96  218 1    
   192   96  219 1    
   193   97   98 2    
   194   97   99 am   BACKBONE|DICT|INTERRES
   195   99  100 1    
   196   99  220 1    
   197  100  101 1    
   198  100  102 1    
   199  100  221 1    
   200  101  222 1    
   201  101  223 1    
   202  101  224 1    
   203  102  103 2    
   204  102  104 am   BACKBONE|DICT|INTERRES
   205  104  105 1    
   206  104  225 1    
   207  105  106 1    
   208  105  107 1    
   209  105  226 1    
   210  106  227 1    
   211  106  228 1    
   212  106  229 1    
   213  107  108 2    
   214  107  109 am   BACKBONE|DICT|INTERRES
   215  109  110 1    
   216  109  230 1    
   217  110  111 1    
   218  110  112 1    
   219  110  231 1    
   220  111  232 1    
   221  111  233 1    
   222  111  234 1    
   223  112  113 2    
   224  112  114 am   BACKBONE|DICT|INTERRES
   225  114  115 1    
   226  114  235 1    
   227  115  116 1    
   228  115  117 1    
   229  115  236 1    
   230  116  237 1    
   231  116  238 1    
   232  116  239 1    
   233  117  118 2    
   234  117  119 am   BACKBONE|DICT|INTERRES
   235  119  120 1    
   236  119  240 1    
   237  120  121 1    
   238  120  124 1    
   239  120  241 1    
   240  121  122 am   BACKBONE|DICT|INTERRES
   241  121  123 2    
   242  122  242 1    
   243  122  243 1    
   244  124  125 1    
   245  124  244 1    
   246  124  245 1    
   247  125  126 1    
   248  126  246 1    
   249  126  247 1    
@<TRIPOS>SUBSTRUCTURE
     1 UNK         1 GROUP             0       ****    0 ROOT    
