@<TRIPOS>MOLECULE
3R540
247   249    1
SMALL
USER_CHARGES


@<TRIPOS>ATOM
      1 CA          2.4205  -12.0304  -49.8211 C.3       0 UNK        -0.1800 
      2 C           2.6137  -12.8680  -48.5663 C.2       0 UNK         0.5000 
      3 O           3.6758  -12.8079  -47.9465 O.2       0 UNK        -0.5000 
      4 N           1.5878  -13.6365  -48.1749 N.am      1 UNK        -0.5000 
      5 CA          1.6076  -14.5436  -47.0180 C.3       1 UNK         0.1400 
      6 C6          0.3402  -15.4265  -46.9274 C.3       23 UNK        -0.0398 
      7 S7          0.1156  -16.4641  -48.4143 S.3       23 UNK        -0.2404 
      8 C8         -1.5002  -15.8945  -49.0333 C.3       23 UNK        -0.0205 
      9 C9         -2.6491  -16.7192  -48.4692 C.ar      23 UNK        -0.0193 
     10 C10        -3.3350  -17.6183  -49.2918 C.ar      23 UNK        -0.1150 
     11 C11        -4.4005  -18.3710  -48.7901 C.ar      23 UNK        -0.0193 
     12 C12        -4.7787  -18.2215  -47.4547 C.ar      23 UNK        -0.1150 
     13 C13        -4.0946  -17.3357  -46.6180 C.ar      23 UNK        -0.0193 
     14 C14        -3.0384  -16.5799  -47.1331 C.ar      23 UNK        -0.1150 
     15 C15        -4.4971  -17.1910  -45.1588 C.3       23 UNK        -0.0205 
     16 S16        -3.4163  -18.1564  -44.0560 S.3       23 UNK        -0.2404 
     17 C17        -3.8197  -19.8713  -44.5254 C.3       23 UNK        -0.0398 
     18 CA         -2.6132  -20.6007  -45.1674 C.3       11 UNK         0.1400 
     19 N          -1.6239  -21.0177  -44.1589 N.am      11 UNK        -0.5000 
     20 C          -0.4760  -21.6670  -44.4179 C.2       10 UNK         0.5000 
     21 O          -0.0885  -21.9071  -45.5602 O.2       10 UNK        -0.5000 
     22 CA          0.3529  -22.2166  -43.2364 C.3       10 UNK         0.1400 
     23 CB          1.7680  -21.6199  -43.2012 C.3       10 UNK        -0.1800 
     24 N          -0.2700  -22.0501  -41.9243 N.am      10 UNK        -0.5000 
     25 C          -1.3343  -22.7286  -41.4738 C.2       9 UNK         0.5000 
     26 O          -1.9115  -23.6015  -42.1233 O.2       9 UNK        -0.5000 
     27 CA         -1.8641  -22.3297  -40.0794 C.3       9 UNK         0.1400 
     28 CB         -1.2955  -23.2643  -39.0012 C.3       9 UNK        -0.1800 
     29 N          -1.5669  -20.9376  -39.7141 N.am      9 UNK        -0.5000 
     30 C          -2.0279  -19.8656  -40.3738 C.2       8 UNK         0.5000 
     31 O          -2.7767  -19.9587  -41.3465 O.2       8 UNK        -0.5000 
     32 CA         -1.5551  -18.4726  -39.9185 C.3       8 UNK         0.1400 
     33 CB         -0.3810  -18.4969  -38.9153 C.3       8 UNK        -0.1800 
     34 N          -1.1795  -17.7217  -41.1108 N.am      8 UNK        -0.5000 
     35 C          -1.1268  -16.3953  -41.2488 C.2       7 UNK         0.5000 
     36 O          -1.3801  -15.6047  -40.3378 O.2       7 UNK        -0.5000 
     37 CA         -0.6876  -15.8777  -42.6390 C.3       7 UNK         0.1400 
     38 CB         -0.7983  -14.3483  -42.7689 C.3       7 UNK        -0.1800 
     39 N           0.6789  -16.2797  -42.9798 N.am      7 UNK        -0.5000 
     40 C           1.0842  -17.5160  -43.3063 C.2       6 UNK         0.5000 
     41 O           0.3181  -18.4750  -43.3932 O.2       6 UNK        -0.5000 
     42 CA          2.5860  -17.7275  -43.5796 C.3       6 UNK         0.1400 
     43 CB          2.8186  -18.1228  -45.0470 C.3       6 UNK        -0.1800 
     44 N           3.3709  -16.5300  -43.2881 N.am      6 UNK        -0.5000 
     45 C           4.0430  -16.2812  -42.1580 C.2       5 UNK         0.5000 
     46 O           4.1151  -17.0725  -41.2166 O.2       5 UNK        -0.5000 
     47 CA          4.7290  -14.8991  -42.0755 C.3       5 UNK         0.1400 
     48 CB          5.8621  -14.8398  -41.0301 C.3       5 UNK        -0.1800 
     49 N           5.1806  -14.4146  -43.3858 N.am      5 UNK        -0.5000 
     50 C           6.1250  -14.9474  -44.1770 C.2       4 UNK         0.5000 
     51 O           6.8317  -15.9038  -43.8573 O.2       4 UNK        -0.5000 
     52 CA          6.2928  -14.3320  -45.5824 C.3       4 UNK         0.1400 
     53 CB          5.7485  -15.2962  -46.6481 C.3       4 UNK        -0.1800 
     54 N           5.6277  -13.0369  -45.7435 N.am      4 UNK        -0.5000 
     55 C           6.0533  -11.8810  -45.2156 C.2       3 UNK         0.5000 
     56 O           7.0880  -11.7672  -44.5580 O.2       3 UNK        -0.5000 
     57 CA          5.1498  -10.6545  -45.4342 C.3       3 UNK         0.1400 
     58 CB          5.4631   -9.9755  -46.7765 C.3       3 UNK        -0.1800 
     59 N           3.7297  -11.0081  -45.3854 N.am      3 UNK        -0.5000 
     60 C           3.0505  -11.2578  -44.2569 C.2       2 UNK         0.5000 
     61 O           3.5437  -11.1839  -43.1316 O.2       2 UNK        -0.5000 
     62 CA          1.5818  -11.6966  -44.4114 C.3       2 UNK         0.1400 
     63 CB          0.6551  -10.4759  -44.5075 C.3       2 UNK        -0.1800 
     64 N           1.3665  -12.5605  -45.5735 N.am      2 UNK        -0.5000 
     65 C           1.8435  -13.8081  -45.6831 C.2       1 UNK         0.5000 
     66 O           2.4759  -14.3711  -44.7910 O.2       1 UNK        -0.5000 
     67 C          -3.1144  -21.7826  -46.0281 C.2       11 UNK         0.5000 
     68 O          -3.3701  -21.6026  -47.2173 O.2       11 UNK        -0.5000 
     69 N          -3.2014  -22.9794  -45.4295 N.am      12 UNK        -0.5000 
     70 CA         -3.5610  -24.2260  -46.1082 C.3       12 UNK         0.1400 
     71 CB         -3.9262  -25.2712  -45.0429 C.3       12 UNK        -0.1800 
     72 C          -2.4560  -24.7702  -47.0396 C.2       12 UNK         0.5000 
     73 O          -2.7463  -25.6294  -47.8721 O.2       12 UNK        -0.5000 
     74 N          -1.2196  -24.2799  -46.8809 N.am      13 UNK        -0.5000 
     75 CA         -0.0361  -24.6826  -47.6410 C.3       13 UNK         0.1400 
     76 CB          1.0709  -25.0646  -46.6424 C.3       13 UNK        -0.1800 
     77 C           0.4425  -23.5755  -48.6019 C.2       13 UNK         0.5000 
     78 O           1.4913  -23.7386  -49.2285 O.2       13 UNK        -0.5000 
     79 N          -0.3109  -22.4704  -48.7021 N.am      14 UNK        -0.5000 
     80 CA         -0.0425  -21.3476  -49.5999 C.3       14 UNK         0.1400 
     81 CB         -1.0148  -20.2070  -49.2627 C.3       14 UNK        -0.1800 
     82 C          -0.1810  -21.7468  -51.0807 C.2       14 UNK         0.5000 
     83 O          -0.9067  -22.6919  -51.3980 O.2       14 UNK        -0.5000 
     84 N           0.4747  -20.9919  -51.9722 N.am      15 UNK        -0.5000 
     85 CA          0.4716  -21.2272  -53.4208 C.3       15 UNK         0.1400 
     86 CB          1.3855  -20.2025  -54.1087 C.3       15 UNK        -0.1800 
     87 C          -0.9371  -21.2042  -54.0434 C.2       15 UNK         0.5000 
     88 O          -1.2480  -22.0530  -54.8782 O.2       15 UNK        -0.5000 
     89 N          -1.7823  -20.2727  -53.5802 N.am      16 UNK        -0.5000 
     90 CA         -3.1851  -20.1705  -53.9821 C.3       16 UNK         0.1400 
     91 CB         -3.7575  -18.8213  -53.5240 C.3       16 UNK        -0.1800 
     92 C          -4.0481  -21.3290  -53.4519 C.2       16 UNK         0.5000 
     93 O          -5.0148  -21.7051  -54.1135 O.2       16 UNK        -0.5000 
     94 N          -3.7003  -21.8788  -52.2796 N.am      17 UNK        -0.5000 
     95 CA         -4.3743  -23.0391  -51.6938 C.3       17 UNK         0.1400 
     96 CB         -4.0570  -23.1412  -50.1941 C.3       17 UNK        -0.1800 
     97 C          -3.9932  -24.3312  -52.4325 C.2       17 UNK         0.5000 
     98 O          -4.8728  -25.1357  -52.7373 O.2       17 UNK        -0.5000 
     99 N          -2.7016  -24.4720  -52.7624 N.am      18 UNK        -0.5000 
    100 CA        -2.1499  -25.5660  -53.5634 C.3       18 UNK         0.1400 
    101 CB        -0.6172  -25.4634  -53.5713 C.3       18 UNK        -0.1800 
    102 C         -2.7074  -25.5943  -55.0002 C.2       18 UNK         0.5000 
    103 O         -2.9898  -26.6729  -55.5229 O.2       18 UNK        -0.5000 
    104 N         -2.8929  -24.4076  -55.5950 N.am      19 UNK        -0.5000 
    105 CA        -3.5214  -24.2142  -56.9039 C.3       19 UNK         0.1400 
    106 CB        -3.1496  -22.8170  -57.4260 C.3       19 UNK        -0.1800 
    107 C         -5.0560  -24.3767  -56.8872 C.2       19 UNK         0.5000 
    108 O         -5.6548  -24.4698  -57.9594 O.2       19 UNK        -0.5000 
    109 N         -5.6627  -24.3747  -55.6893 N.am      20 UNK        -0.5000 
    110 CA        -7.1058  -24.3720  -55.4162 C.3       20 UNK         0.1400 
    111 CB        -7.7596  -25.6920  -55.8744 C.3       20 UNK        -0.1800 
    112 C         -7.8163  -23.1148  -55.9676 C.2       20 UNK         0.5000 
    113 O         -8.9728  -23.1832  -56.3876 O.2       20 UNK        -0.5000 
    114 N         -7.0964  -21.9874  -55.9543 N.am      21 UNK        -0.5000 
    115 CA        -7.5409  -20.6768  -56.4217 C.3       21 UNK         0.1400 
    116 CB        -6.3730  -20.0153  -57.1715 C.3       21 UNK        -0.1800 
    117 C         -8.0060  -19.7745  -55.2635 C.2       21 UNK         0.5000 
    118 O         -8.7023  -18.7901  -55.5153 O.2       21 UNK        -0.5000 
    119 N         -7.5998  -20.1030  -54.0287 N.am      22 UNK        -0.5000 
    120 CA        -7.9401  -19.3726  -52.7978 C.3       22 UNK         0.1400 
    121 C         -9.4642  -19.3559  -52.4839 C.2       22 UNK         0.5000 
    122 N         -9.9723  -18.2785  -51.9016 N.am      22 UNK        -0.7600 
    123 O        -10.1796  -20.3263  -52.7240 O.2       22 UNK        -0.5000 
    124 C124       -7.1263  -19.9024  -51.5850 C.3       23 UNK        -0.0398 
    125 S125       -6.5611  -18.5563  -50.4943 S.3       23 UNK        -0.2404 
    126 C126       -5.1399  -19.3506  -49.6848 C.3       23 UNK        -0.0205 
    127 H127        1.4295  -12.1700  -50.2536 H         1 UNK         0.0600 
    128 H128        3.1618  -12.3053  -50.5712 H         1 UNK         0.0600 
    129 H129        2.5457  -10.9730  -49.5881 H         1 UNK         0.0600 
    130 H130        0.7465  -13.6573  -48.7328 H         1 UNK         0.3000 
    131 H131        2.4602  -15.2098  -47.1593 H         1 UNK         0.0600 
    132 H132        0.3949  -16.0971  -46.0681 H         1 UNK         0.0800 
    133 H133       -0.5380  -14.8011  -46.7648 H         1 UNK         0.0800 
    134 H134       -1.6524  -14.8387  -48.8062 H         1 UNK         0.0800 
    135 H135       -1.4891  -15.9650  -50.1220 H         1 UNK         0.0800 
    136 H136       -3.0414  -17.7316  -50.3253 H         1 UNK         0.1150 
    137 H137       -5.6056  -18.8006  -47.0691 H         1 UNK         0.1150 
    138 H138       -2.5175  -15.8912  -46.4853 H         1 UNK         0.1150 
    139 H139       -4.4450  -16.1404  -44.8699 H         1 UNK         0.0800 
    140 H140       -5.5347  -17.4947  -45.0114 H         1 UNK         0.0800 
    141 H141       -4.6799  -19.8539  -45.1948 H         1 UNK         0.0800 
    142 H142       -4.1613  -20.4046  -43.6370 H         1 UNK         0.0800 
    143 H143       -2.1113  -19.9122  -45.8512 H         1 UNK         0.0600 
    144 H144       -1.8647  -20.8172  -43.1962 H         1 UNK         0.3000 
    145 H145        0.4582  -23.2882  -43.4195 H         1 UNK         0.0600 
    146 H146        2.4055  -22.1679  -42.5073 H         1 UNK         0.0600 
    147 H147        2.2451  -21.6634  -44.1812 H         1 UNK         0.0600 
    148 H148        1.7549  -20.5795  -42.8856 H         1 UNK         0.0600 
    149 H149        0.1263  -21.3401  -41.3270 H         1 UNK         0.3000 
    150 H150       -2.9495  -22.4475  -40.0972 H         1 UNK         0.0600 
    151 H151       -0.2116  -23.1729  -38.9199 H         1 UNK         0.0600 
    152 H152       -1.7261  -23.0474  -38.0235 H         1 UNK         0.0600 
    153 H153       -1.5208  -24.3069  -39.2297 H         1 UNK         0.0600 
    154 H154       -0.9530  -20.7967  -38.9247 H         1 UNK         0.3000 
    155 H155       -2.4118  -17.9847  -39.4499 H         1 UNK         0.0600 
    156 H156        0.4977  -18.9897  -39.3337 H         1 UNK         0.0600 
    157 H157       -0.6539  -19.0131  -37.9943 H         1 UNK         0.0600 
    158 H158       -0.0855  -17.4867  -38.6316 H         1 UNK         0.0600 
    159 H159       -0.9598  -18.2828  -41.9301 H         1 UNK         0.3000 
    160 H160       -1.3610  -16.3124  -43.3774 H         1 UNK         0.0600 
    161 H161       -0.1096  -13.8355  -42.0966 H         1 UNK         0.0600 
    162 H162       -1.8068  -14.0073  -42.5315 H         1 UNK         0.0600 
    163 H163       -0.5826  -14.0237  -43.7864 H         1 UNK         0.0600 
    164 H164        1.3800  -15.5545  -42.9409 H         1 UNK         0.3000 
    165 H165        2.9231  -18.5497  -42.9464 H         1 UNK         0.0600 
    166 H166        2.2577  -19.0221  -45.3061 H         1 UNK         0.0600 
    167 H167        2.5095  -17.3337  -45.7322 H         1 UNK         0.0600 
    168 H168        3.8720  -18.3322  -45.2340 H         1 UNK         0.0600 
    169 H169        3.3065  -15.7801  -43.9729 H         1 UNK         0.3000 
    170 H170        3.9544  -14.2014  -41.7539 H         1 UNK         0.0600 
    171 H171        5.4789  -15.0397  -40.0289 H         1 UNK         0.0600 
    172 H172        6.6420  -15.5744  -41.2314 H         1 UNK         0.0600 
    173 H173        6.3262  -13.8538  -41.0079 H         1 UNK         0.0600 
    174 H174        4.6400  -13.6532  -43.7726 H         1 UNK         0.3000 
    175 H175        7.3618  -14.1942  -45.7573 H         1 UNK         0.0600 
    176 H176        5.8636  -14.8857  -47.6515 H         1 UNK         0.0600 
    177 H177        6.2801  -16.2483  -46.6228 H         1 UNK         0.0600 
    178 H178        4.6914  -15.5088  -46.4907 H         1 UNK         0.0600 
    179 H179        4.8031  -13.0201  -46.3363 H         1 UNK         0.3000 
    180 H180        5.3592   -9.9379  -44.6370 H         1 UNK         0.0600 
    181 H181        4.8588   -9.0789  -46.9149 H         1 UNK         0.0600 
    182 H182        5.2766  -10.6395  -47.6211 H         1 UNK         0.0600 
    183 H183        6.5098   -9.6723  -46.8238 H         1 UNK         0.0600 
    184 H184        3.2696  -11.1508  -46.2733 H         1 UNK         0.3000 
    185 H185        1.3115  -12.2574  -43.5145 H         1 UNK         0.0600 
    186 H186        0.7808   -9.8217  -43.6437 H         1 UNK         0.0600 
    187 H187        0.8583   -9.8838  -45.4007 H         1 UNK         0.0600 
    188 H188       -0.3919  -10.7782  -44.5350 H         1 UNK         0.0600 
    189 H189        0.8651  -12.1629  -46.3543 H         1 UNK         0.3000 
    190 H190       -2.9562  -23.0528  -44.4510 H         1 UNK         0.3000 
    191 H191       -4.4436  -24.0407  -46.7241 H         1 UNK         0.0600 
    192 H192       -4.7583  -24.9317  -44.4258 H         1 UNK         0.0600 
    193 H193       -4.2281  -26.2128  -45.5035 H         1 UNK         0.0600 
    194 H194       -3.0836  -25.4827  -44.3829 H         1 UNK         0.0600 
    195 H195       -1.0661  -23.5304  -46.2150 H         1 UNK         0.3000 
    196 H196       -0.2563  -25.5587  -48.2539 H         1 UNK         0.0600 
    197 H197        1.9573  -25.4338  -47.1594 H         1 UNK         0.0600 
    198 H198        0.7381  -25.8545  -45.9688 H         1 UNK         0.0600 
    199 H199        1.3766  -24.2123  -46.0346 H         1 UNK         0.0600 
    200 H200       -1.1639  -22.4211  -48.1640 H         1 UNK         0.3000 
    201 H201        0.9794  -21.0066  -49.4228 H         1 UNK         0.0600 
    202 H202       -0.8205  -19.3267  -49.8763 H         1 UNK         0.0600 
    203 H203       -2.0524  -20.5008  -49.4268 H         1 UNK         0.0600 
    204 H204       -0.9182  -19.8990  -48.2211 H         1 UNK         0.0600 
    205 H205        1.0417  -20.2239  -51.6429 H         1 UNK         0.3000 
    206 H206        0.8871  -22.2224  -53.5921 H         1 UNK         0.0600 
    207 H207        2.4101  -20.2806  -53.7446 H         1 UNK         0.0600 
    208 H208        1.4124  -20.3656  -55.1870 H         1 UNK         0.0600 
    209 H209        1.0454  -19.1800  -53.9397 H         1 UNK         0.0600 
    210 H210       -1.4481  -19.6125  -52.8941 H         1 UNK         0.3000 
    211 H211       -3.2307  -20.2022  -55.0726 H         1 UNK         0.0600 
    212 H212       -3.7044  -18.7047  -52.4423 H         1 UNK         0.0600 
    213 H213       -4.8046  -18.7208  -53.8136 H         1 UNK         0.0600 
    214 H214       -3.2162  -17.9905  -53.9768 H         1 UNK         0.0600 
    215 H215       -2.8459  -21.5795  -51.8321 H         1 UNK         0.3000 
    216 H216       -5.4531  -22.9017  -51.7955 H         1 UNK         0.0600 
    217 H217       -2.9968  -23.3056  -50.0049 H         1 UNK         0.0600 
    218 H218       -4.5972  -23.9720  -49.7389 H         1 UNK         0.0600 
    219 H219       -4.3526  -22.2369  -49.6656 H         1 UNK         0.0600 
    220 H220       -2.0401  -23.7771  -52.4233 H         1 UNK         0.3000 
    221 H221       -2.4275  -26.5048  -53.0799 H         1 UNK         0.0600 
    222 H222       -0.2783  -24.5351  -54.0319 H         1 UNK         0.0600 
    223 H223       -0.2148  -25.4987  -52.5586 H         1 UNK         0.0600 
    224 H224       -0.1731  -26.2890  -54.1287 H         1 UNK         0.0600 
    225 H225       -2.5503  -23.5724  -55.1309 H         1 UNK         0.3000 
    226 H226       -3.1194  -24.9567  -57.5962 H         1 UNK         0.0600 
    227 H227       -3.5658  -22.6438  -58.4192 H         1 UNK         0.0600 
    228 H228       -3.5276  -22.0314  -56.7708 H         1 UNK         0.0600 
    229 H229       -2.0687  -22.6988  -57.5030 H         1 UNK         0.0600 
    230 H230       -5.0738  -24.3082  -54.8698 H         1 UNK         0.3000 
    231 H231       -7.2041  -24.3185  -54.3310 H         1 UNK         0.0600 
    232 H232       -7.7656  -25.7880  -56.9603 H         1 UNK         0.0600 
    233 H233       -8.7946  -25.7528  -55.5362 H         1 UNK         0.0600 
    234 H234       -7.2340  -26.5540  -55.4635 H         1 UNK         0.0600 
    235 H235       -6.1771  -22.0172  -55.5204 H         1 UNK         0.3000 
    236 H236       -8.3767  -20.7892  -57.1154 H         1 UNK         0.0600 
    237 H237       -6.6627  -19.0410  -57.5672 H         1 UNK         0.0600 
    238 H238       -5.5112  -19.8637  -56.5202 H         1 UNK         0.0600 
    239 H239       -6.0509  -20.6264  -58.0151 H         1 UNK         0.0600 
    240 H240       -7.0132  -20.9201  -53.9261 H         1 UNK         0.3000 
    241 H241       -7.6397  -18.3412  -52.9946 H         1 UNK         0.0600 
    242 H242       -9.3945  -17.4854  -51.6684 H         1 UNK         0.3800 
    243 H243      -10.9552  -18.2579  -51.6778 H         1 UNK         0.3800 
    244 H244       -6.2378  -20.4271  -51.9279 H         1 UNK         0.0800 
    245 H245       -7.6853  -20.6355  -51.0001 H         1 UNK         0.0800 
    246 H246       -4.4583  -19.7537  -50.4335 H         1 UNK         0.0800 
    247 H247       -5.4890  -20.2002  -49.0959 H         1 UNK         0.0800 
@<TRIPOS>BOND
     1    1    2 1    
     2    1  127 1    
     3    1  128 1    
     4    1  129 1    
     5    2    3 2    
     6    2    4 am   BACKBONE|DICT|INTERRES
     7    4    5 1    
     8    4  130 1    
     9    5    6 1    
    10    5   65 1    
    11    5  131 1    
    12    6    7 1    
    13    6  132 1    
    14    6  133 1    
    15    7    8 1    
    16    8    9 1    
    17    8  134 1    
    18    8  135 1    
    19    9   10 ar   
    20    9   14 ar   
    21   10   11 ar   
    22   10  136 1    
    23   11   12 ar   
    24   11  126 1    
    25   12   13 ar   
    26   12  137 1    
    27   13   14 ar   
    28   13   15 1    
    29   14  138 1    
    30   15   16 1    
    31   15  139 1    
    32   15  140 1    
    33   16   17 1    
    34   17   18 1    
    35   17  141 1    
    36   17  142 1    
    37   18   19 1    
    38   18   67 1    
    39   18  143 1    
    40   19   20 am   BACKBONE|DICT|INTERRES
    41   19  144 1    
    42   20   21 2    
    43   20   22 1    
    44   22   23 1    
    45   22   24 1    
    46   22  145 1    
    47   23  146 1    
    48   23  147 1    
    49   23  148 1    
    50   24   25 am   BACKBONE|DICT|INTERRES
    51   24  149 1    
    52   25   26 2    
    53   25   27 1    
    54   27   28 1    
    55   27   29 1    
    56   27  150 1    
    57   28  151 1    
    58   28  152 1    
    59   28  153 1    
    60   29   30 am   BACKBONE|DICT|INTERRES
    61   29  154 1    
    62   30   31 2    
    63   30   32 1    
    64   32   33 1    
    65   32   34 1    
    66   32  155 1    
    67   33  156 1    
    68   33  157 1    
    69   33  158 1    
    70   34   35 am   BACKBONE|DICT|INTERRES
    71   34  159 1    
    72   35   36 2    
    73   35   37 1    
    74   37   38 1    
    75   37   39 1    
    76   37  160 1    
    77   38  161 1    
    78   38  162 1    
    79   38  163 1    
    80   39   40 am   BACKBONE|DICT|INTERRES
    81   39  164 1    
    82   40   41 2    
    83   40   42 1    
    84   42   43 1    
    85   42   44 1    
    86   42  165 1    
    87   43  166 1    
    88   43  167 1    
    89   43  168 1    
    90   44   45 am   BACKBONE|DICT|INTERRES
    91   44  169 1    
    92   45   46 2    
    93   45   47 1    
    94   47   48 1    
    95   47   49 1    
    96   47  170 1    
    97   48  171 1    
    98   48  172 1    
    99   48  173 1    
   100   49   50 am   BACKBONE|DICT|INTERRES
   101   49  174 1    
   102   50   51 2    
   103   50   52 1    
   104   52   53 1    
   105   52   54 1    
   106   52  175 1    
   107   53  176 1    
   108   53  177 1    
   109   53  178 1    
   110   54   55 am   BACKBONE|DICT|INTERRES
   111   54  179 1    
   112   55   56 2    
   113   55   57 1    
   114   57   58 1    
   115   57   59 1    
   116   57  180 1    
   117   58  181 1    
   118   58  182 1    
   119   58  183 1    
   120   59   60 am   BACKBONE|DICT|INTERRES
   121   59  184 1    
   122   60   61 2    
   123   60   62 1    
   124   62   63 1    
   125   62   64 1    
   126   62  185 1    
   127   63  186 1    
   128   63  187 1    
   129   63  188 1    
   130   64   65 am   BACKBONE|DICT|INTERRES
   131   64  189 1    
   132   65   66 2    
   133   67   68 2    
   134   67   69 am   BACKBONE|DICT|INTERRES
   135   69   70 1    
   136   69  190 1    
   137   70   71 1    
   138   70   72 1    
   139   70  191 1    
   140   71  192 1    
   141   71  193 1    
   142   71  194 1    
   143   72   73 2    
   144   72   74 am   BACKBONE|DICT|INTERRES
   145   74   75 1    
   146   74  195 1    
   147   75   76 1    
   148   75   77 1    
   149   75  196 1    
   150   76  197 1    
   151   76  198 1    
   152   76  199 1    
   153   77   78 2    
   154   77   79 am   BACKBONE|DICT|INTERRES
   155   79   80 1    
   156   79  200 1    
   157   80   81 1    
   158   80   82 1    
   159   80  201 1    
   160   81  202 1    
   161   81  203 1    
   162   81  204 1    
   163   82   83 2    
   164   82   84 am   BACKBONE|DICT|INTERRES
   165   84   85 1    
   166   84  205 1    
   167   85   86 1    
   168   85   87 1    
   169   85  206 1    
   170   86  207 1    
   171   86  208 1    
   172   86  209 1    
   173   87   88 2    
   174   87   89 am   BACKBONE|DICT|INTERRES
   175   89   90 1    
   176   89  210 1    
   177   90   91 1    
   178   90   92 1    
   179   90  211 1    
   180   91  212 1    
   181   91  213 1    
   182   91  214 1    
   183   92   93 2    
   184   92   94 am   BACKBONE|DICT|INTERRES
   185   94   95 1    
   186   94  215 1    
   187   95   96 1    
   188   95   97 1    
   189   95  216 1    
   190   96  217 1    
   191   96  218 1    
   192   96  219 1    
   193   97   98 2    
   194   97   99 am   BACKBONE|DICT|INTERRES
   195   99  100 1    
   196   99  220 1    
   197  100  101 1    
   198  100  102 1    
   199  100  221 1    
   200  101  222 1    
   201  101  223 1    
   202  101  224 1    
   203  102  103 2    
   204  102  104 am   BACKBONE|DICT|INTERRES
   205  104  105 1    
   206  104  225 1    
   207  105  106 1    
   208  105  107 1    
   209  105  226 1    
   210  106  227 1    
   211  106  228 1    
   212  106  229 1    
   213  107  108 2    
   214  107  109 am   BACKBONE|DICT|INTERRES
   215  109  110 1    
   216  109  230 1    
   217  110  111 1    
   218  110  112 1    
   219  110  231 1    
   220  111  232 1    
   221  111  233 1    
   222  111  234 1    
   223  112  113 2    
   224  112  114 am   BACKBONE|DICT|INTERRES
   225  114  115 1    
   226  114  235 1    
   227  115  116 1    
   228  115  117 1    
   229  115  236 1    
   230  116  237 1    
   231  116  238 1    
   232  116  239 1    
   233  117  118 2    
   234  117  119 am   BACKBONE|DICT|INTERRES
   235  119  120 1    
   236  119  240 1    
   237  120  121 1    
   238  120  124 1    
   239  120  241 1    
   240  121  122 am   BACKBONE|DICT|INTERRES
   241  121  123 2    
   242  122  242 1    
   243  122  243 1    
   244  124  125 1    
   245  124  244 1    
   246  124  245 1    
   247  125  126 1    
   248  126  246 1    
   249  126  247 1    
@<TRIPOS>SUBSTRUCTURE
     1 UNK         1 GROUP             0       ****    0 ROOT    
