@<TRIPOS>MOLECULE
3R540
247   249    1
SMALL
USER_CHARGES


@<TRIPOS>ATOM
      1 CA          0.1205  -11.8727  -51.6200 C.3       0 UNK        -0.1800 
      2 C           0.0410  -12.3230  -50.1687 C.2       0 UNK         0.5000 
      3 O          -0.9917  -12.8420  -49.7479 O.2       0 UNK        -0.5000 
      4 N           1.1285  -12.1250  -49.4087 N.am      1 UNK        -0.5000 
      5 CA          1.2923  -12.5096  -47.9971 C.3       1 UNK         0.1400 
      6 C6          1.3136  -14.0493  -47.7695 C.3       23 UNK        -0.0398 
      7 S7          2.8338  -14.8287  -48.4145 S.3       23 UNK        -0.2404 
      8 C8          2.3625  -15.3436  -50.0960 C.3       23 UNK        -0.0205 
      9 C9          1.4239  -16.5401  -50.1061 C.ar      23 UNK        -0.0193 
     10 C10         0.0448  -16.3537  -50.2402 C.ar      23 UNK        -0.1150 
     11 C11        -0.8178  -17.4507  -50.2947 C.ar      23 UNK        -0.0193 
     12 C12        -0.2880  -18.7402  -50.2305 C.ar      23 UNK        -0.1150 
     13 C13         1.0862  -18.9442  -50.0838 C.ar      23 UNK        -0.0193 
     14 C14         1.9384  -17.8378  -50.0210 C.ar      23 UNK        -0.1150 
     15 C15         1.6481  -20.3568  -50.0065 C.3       23 UNK        -0.0205 
     16 S16         1.7335  -20.9628  -48.2899 S.3       23 UNK        -0.2404 
     17 C17        -0.0368  -21.1568  -47.8975 C.3       23 UNK        -0.0398 
     18 CA         -0.3111  -22.2555  -46.8416 C.3       11 UNK         0.1400 
     19 N           0.1974  -21.8745  -45.5230 N.am      11 UNK        -0.5000 
     20 C           0.4562  -22.7084  -44.5086 C.2       10 UNK         0.5000 
     21 O           0.3967  -23.9357  -44.6022 O.2       10 UNK        -0.5000 
     22 CA          0.7848  -22.0641  -43.1494 C.3       10 UNK         0.1400 
     23 CB          2.2856  -21.7567  -43.0400 C.3       10 UNK        -0.1800 
     24 N           0.0053  -20.8482  -42.8980 N.am      10 UNK        -0.5000 
     25 C          -1.3257  -20.8222  -42.7265 C.2       9 UNK         0.5000 
     26 O          -2.0299  -21.8323  -42.6997 O.2       9 UNK        -0.5000 
     27 CA         -1.9887  -19.4413  -42.5636 C.3       9 UNK         0.1400 
     28 CB         -1.9059  -18.9710  -41.1035 C.3       9 UNK        -0.1800 
     29 N          -1.4135  -18.4214  -43.4411 N.am      9 UNK        -0.5000 
     30 C          -1.5329  -18.4081  -44.7771 C.2       8 UNK         0.5000 
     31 O          -2.1952  -19.2292  -45.4080 O.2       8 UNK        -0.5000 
     32 CA         -0.7440  -17.3222  -45.5386 C.3       8 UNK         0.1400 
     33 CB         -1.5162  -15.9946  -45.5664 C.3       8 UNK        -0.1800 
     34 N           0.5917  -17.1028  -44.9789 N.am      8 UNK        -0.5000 
     35 C           1.5475  -18.0422  -44.9284 C.2       7 UNK         0.5000 
     36 O           1.4168  -19.1774  -45.3825 O.2       7 UNK        -0.5000 
     37 CA          2.8360  -17.6754  -44.1770 C.3       7 UNK         0.1400 
     38 CB          3.7813  -16.8525  -45.0665 C.3       7 UNK        -0.1800 
     39 N           2.5388  -16.9490  -42.9417 N.am      7 UNK        -0.5000 
     40 C           2.0240  -17.5209  -41.8428 C.2       6 UNK         0.5000 
     41 O           1.7902  -18.7252  -41.7508 O.2       6 UNK        -0.5000 
     42 CA          1.6777  -16.5961  -40.6594 C.3       6 UNK         0.1400 
     43 CB          2.9055  -16.3886  -39.7605 C.3       6 UNK        -0.1800 
     44 N           1.1620  -15.2936  -41.0804 N.am      6 UNK        -0.5000 
     45 C           0.0055  -15.1071  -41.7317 C.2       5 UNK         0.5000 
     46 O          -0.7832  -16.0140  -41.9907 O.2       5 UNK        -0.5000 
     47 CA         -0.2967  -13.6789  -42.2259 C.3       5 UNK         0.1400 
     48 CB         -1.1247  -12.9116  -41.1850 C.3       5 UNK        -0.1800 
     49 N           0.8947  -12.8952  -42.5679 N.am      5 UNK        -0.5000 
     50 C           1.8237  -13.2550  -43.4642 C.2       4 UNK         0.5000 
     51 O           1.8085  -14.3293  -44.0670 O.2       4 UNK        -0.5000 
     52 CA          2.9312  -12.2270  -43.7297 C.3       4 UNK         0.1400 
     53 CB          3.9473  -12.6954  -44.7881 C.3       4 UNK        -0.1800 
     54 N           2.3125  -10.9780  -44.1646 N.am      4 UNK        -0.5000 
     55 C           2.6355   -9.7528  -43.7305 C.2       3 UNK         0.5000 
     56 O           3.4922   -9.5456  -42.8700 O.2       3 UNK        -0.5000 
     57 CA          1.9002   -8.5526  -44.3660 C.3       3 UNK         0.1400 
     58 CB          2.9028   -7.5181  -44.9058 C.3       3 UNK        -0.1800 
     59 N           1.0222   -8.9577  -45.4657 N.am      3 UNK        -0.5000 
     60 C          -0.2996   -9.1545  -45.3771 C.2       2 UNK         0.5000 
     61 O          -0.9576   -8.9633  -44.3544 O.2       2 UNK        -0.5000 
     62 CA         -0.9931   -9.6910  -46.6459 C.3       2 UNK         0.1400 
     63 CB         -1.4904   -8.5318  -47.5225 C.3       2 UNK        -0.1800 
     64 N          -0.1255  -10.5624  -47.4466 N.am      2 UNK        -0.5000 
     65 C           0.3185  -11.7651  -47.0506 C.2       1 UNK         0.5000 
     66 O           0.0273  -12.2498  -45.9581 O.2       1 UNK        -0.5000 
     67 C          -1.8136  -22.6186  -46.7660 C.2       11 UNK         0.5000 
     68 O          -2.6485  -21.9335  -47.3578 O.2       11 UNK        -0.5000 
     69 N          -2.1354  -23.7016  -46.0459 N.am      12 UNK        -0.5000 
     70 CA         -3.4701  -24.2954  -45.9770 C.3       12 UNK         0.1400 
     71 CB         -3.4770  -25.3955  -44.9057 C.3       12 UNK        -0.1800 
     72 C          -3.8814  -24.8663  -47.3458 C.2       12 UNK         0.5000 
     73 O          -3.0779  -25.5575  -47.9760 O.2       12 UNK        -0.5000 
     74 N          -5.1166  -24.5741  -47.7775 N.am      13 UNK        -0.5000 
     75 CA         -5.6311  -24.8168  -49.1327 C.3       13 UNK         0.1400 
     76 CB         -7.0667  -24.2815  -49.2340 C.3       13 UNK        -0.1800 
     77 C          -5.5575  -26.2729  -49.6306 C.2       13 UNK         0.5000 
     78 O          -5.4914  -26.4905  -50.8406 O.2       13 UNK        -0.5000 
     79 N          -5.5112  -27.2349  -48.6989 N.am      14 UNK        -0.5000 
     80 CA         -5.2902  -28.6606  -48.9527 C.3       14 UNK         0.1400 
     81 CB         -5.4110  -29.4226  -47.6242 C.3       14 UNK        -0.1800 
     82 C          -3.9427  -28.9812  -49.6369 C.2       14 UNK         0.5000 
     83 O          -3.8346  -30.0233  -50.2843 O.2       14 UNK        -0.5000 
     84 N          -2.9509  -28.0859  -49.5082 N.am      15 UNK        -0.5000 
     85 CA         -1.6615  -28.1707  -50.1987 C.3       15 UNK         0.1400 
     86 CB         -0.6611  -27.2312  -49.5073 C.3       15 UNK        -0.1800 
     87 C          -1.7494  -27.8516  -51.7072 C.2       15 UNK         0.5000 
     88 O          -0.8350  -28.2208  -52.4458 O.2       15 UNK        -0.5000 
     89 N          -2.8387  -27.1904  -52.1324 N.am      16 UNK        -0.5000 
     90 CA         -3.1434  -26.7455  -53.4960 C.3       16 UNK         0.1400 
     91 CB         -3.3433  -27.9605  -54.4285 C.3       16 UNK        -0.1800 
     92 C          -2.1303  -25.7153  -54.0464 C.2       16 UNK         0.5000 
     93 O          -1.3791  -25.1106  -53.2772 O.2       16 UNK        -0.5000 
     94 N          -2.1608  -25.4932  -55.3691 N.am      17 UNK        -0.5000 
     95 CA         -1.3481  -24.5258  -56.1153 C.3       17 UNK         0.1400 
     96 CB          0.1274  -24.9841  -56.1642 C.3       17 UNK        -0.1800 
     97 C          -1.5529  -23.0933  -55.5776 C.2       17 UNK         0.5000 
     98 O          -2.6811  -22.6001  -55.6132 O.2       17 UNK        -0.5000 
     99 N          -0.4895  -22.4667  -55.0560 N.am      18 UNK        -0.5000 
    100 CA        -0.5197  -21.1417  -54.4322 C.3       18 UNK         0.1400 
    101 CB         0.9163  -20.7029  -54.1069 C.3       18 UNK        -0.1800 
    102 C         -1.3934  -21.0743  -53.1656 C.2       18 UNK         0.5000 
    103 O         -1.9631  -20.0213  -52.8840 O.2       18 UNK        -0.5000 
    104 N         -1.5117  -22.1925  -52.4344 N.am      19 UNK        -0.5000 
    105 CA        -2.3077  -22.2839  -51.2107 C.3       19 UNK         0.1400 
    106 CB        -1.9718  -23.5830  -50.4730 C.3       19 UNK        -0.1800 
    107 C         -3.8187  -22.1709  -51.4610 C.2       19 UNK         0.5000 
    108 O         -4.5395  -21.6720  -50.5982 O.2       19 UNK        -0.5000 
    109 N         -4.2777  -22.5810  -52.6508 N.am      20 UNK        -0.5000 
    110 CA        -5.6791  -22.4895  -53.0664 C.3       20 UNK         0.1400 
    111 CB        -5.8718  -23.2920  -54.3618 C.3       20 UNK        -0.1800 
    112 C         -6.1811  -21.0391  -53.2364 C.2       20 UNK         0.5000 
    113 O         -7.3931  -20.8230  -53.2619 O.2       20 UNK        -0.5000 
    114 N         -5.2554  -20.0739  -53.3384 N.am      21 UNK        -0.5000 
    115 CA        -5.5520  -18.6483  -53.4539 C.3       21 UNK         0.1400 
    116 CB        -4.3642  -17.9409  -54.1256 C.3       21 UNK        -0.1800 
    117 C         -5.8989  -17.9738  -52.1108 C.2       21 UNK         0.5000 
    118 O         -6.4251  -16.8599  -52.1417 O.2       21 UNK        -0.5000 
    119 N         -5.6118  -18.6166  -50.9675 N.am      22 UNK        -0.5000 
    120 CA        -5.8925  -18.0501  -49.6347 C.3       22 UNK         0.1400 
    121 C         -6.2281  -19.0725  -48.5120 C.2       22 UNK         0.5000 
    122 N         -6.0378  -20.3732  -48.6835 N.am      22 UNK        -0.7600 
    123 O         -6.7181  -18.6748  -47.4582 O.2       22 UNK        -0.5000 
    124 C124       -4.8479  -16.9865  -49.1954 C.3       23 UNK        -0.0398 
    125 S125       -3.1730  -17.6418  -48.8712 S.3       23 UNK        -0.2404 
    126 C126       -2.3189  -17.2485  -50.4282 C.3       23 UNK        -0.0205 
    127 H127       -0.6511  -11.1309  -51.8256 H         1 UNK         0.0600 
    128 H128        1.0891  -11.4315  -51.8563 H         1 UNK         0.0600 
    129 H129       -0.0365  -12.7229  -52.2840 H         1 UNK         0.0600 
    130 H130        1.9392  -11.6898  -49.8270 H         1 UNK         0.3000 
    131 H131        2.2742  -12.1305  -47.7110 H         1 UNK         0.0600 
    132 H132        1.3009  -14.2861  -46.7050 H         1 UNK         0.0800 
    133 H133        0.4265  -14.5262  -48.1834 H         1 UNK         0.0800 
    134 H134        1.9212  -14.5061  -50.6347 H         1 UNK         0.0800 
    135 H135        3.2711  -15.5988  -50.6431 H         1 UNK         0.0800 
    136 H136       -0.3589  -15.3542  -50.3071 H         1 UNK         0.1150 
    137 H137       -0.9573  -19.5827  -50.2837 H         1 UNK         0.1150 
    138 H138        3.0037  -17.9861  -49.9132 H         1 UNK         0.1150 
    139 H139        1.0483  -21.0387  -50.6117 H         1 UNK         0.0800 
    140 H140        2.6511  -20.3772  -50.4352 H         1 UNK         0.0800 
    141 H141       -0.5481  -21.4064  -48.8257 H         1 UNK         0.0800 
    142 H142       -0.4372  -20.1947  -47.5715 H         1 UNK         0.0800 
    143 H143        0.2104  -23.1593  -47.1644 H         1 UNK         0.0600 
    144 H144        0.3320  -20.8794  -45.3726 H         1 UNK         0.3000 
    145 H145        0.5323  -22.7883  -42.3722 H         1 UNK         0.0600 
    146 H146        2.5391  -21.3758  -42.0507 H         1 UNK         0.0600 
    147 H147        2.8806  -22.6560  -43.2036 H         1 UNK         0.0600 
    148 H148        2.6012  -21.0172  -43.7757 H         1 UNK         0.0600 
    149 H149        0.5252  -19.9796  -42.8443 H         1 UNK         0.3000 
    150 H150       -3.0439  -19.5489  -42.8233 H         1 UNK         0.0600 
    151 H151       -2.3433  -19.7087  -40.4296 H         1 UNK         0.0600 
    152 H152       -2.4489  -18.0369  -40.9590 H         1 UNK         0.0600 
    153 H153       -0.8741  -18.8104  -40.7904 H         1 UNK         0.0600 
    154 H154       -0.9193  -17.6589  -42.9868 H         1 UNK         0.3000 
    155 H155       -0.6183  -17.6622  -46.5693 H         1 UNK         0.0600 
    156 H156       -0.9793  -15.2330  -46.1313 H         1 UNK         0.0600 
    157 H157       -1.6900  -15.6075  -44.5628 H         1 UNK         0.0600 
    158 H158       -2.4898  -16.1241  -46.0408 H         1 UNK         0.0600 
    159 H159        0.7896  -16.1906  -44.5847 H         1 UNK         0.3000 
    160 H160        3.3495  -18.6028  -43.9146 H         1 UNK         0.0600 
    161 H161        3.3170  -15.9313  -45.4176 H         1 UNK         0.0600 
    162 H162        4.0715  -17.4221  -45.9503 H         1 UNK         0.0600 
    163 H163        4.6949  -16.5871  -44.5348 H         1 UNK         0.0600 
    164 H164        2.6062  -15.9400  -42.9884 H         1 UNK         0.3000 
    165 H165        0.9028  -17.0898  -40.0692 H         1 UNK         0.0600 
    166 H166        3.7093  -15.8736  -40.2880 H         1 UNK         0.0600 
    167 H167        2.6529  -15.8022  -38.8769 H         1 UNK         0.0600 
    168 H168        3.3001  -17.3444  -39.4130 H         1 UNK         0.0600 
    169 H169        1.7503  -14.4916  -40.9100 H         1 UNK         0.3000 
    170 H170       -0.8932  -13.7696  -43.1358 H         1 UNK         0.0600 
    171 H171       -2.0327  -13.4589  -40.9278 H         1 UNK         0.0600 
    172 H172       -0.5643  -12.7524  -40.2629 H         1 UNK         0.0600 
    173 H173       -1.4315  -11.9371  -41.5656 H         1 UNK         0.0600 
    174 H174        0.9770  -11.9892  -42.1301 H         1 UNK         0.3000 
    175 H175        3.4607  -12.0854  -42.7854 H         1 UNK         0.0600 
    176 H176        4.7213  -11.9455  -44.9508 H         1 UNK         0.0600 
    177 H177        4.4449  -13.6130  -44.4718 H         1 UNK         0.0600 
    178 H178        3.4689  -12.8972  -45.7461 H         1 UNK         0.0600 
    179 H179        1.5359  -11.0803  -44.8061 H         1 UNK         0.3000 
    180 H180        1.3160   -8.0772  -43.5756 H         1 UNK         0.0600 
    181 H181        3.5486   -7.9456  -45.6737 H         1 UNK         0.0600 
    182 H182        3.5449   -7.1383  -44.1101 H         1 UNK         0.0600 
    183 H183        2.3879   -6.6606  -45.3396 H         1 UNK         0.0600 
    184 H184        1.4717   -9.1402  -46.3512 H         1 UNK         0.3000 
    185 H185       -1.8590  -10.2756  -46.3276 H         1 UNK         0.0600 
    186 H186       -2.0460   -8.9003  -48.3851 H         1 UNK         0.0600 
    187 H187       -2.1595   -7.8778  -46.9617 H         1 UNK         0.0600 
    188 H188       -0.6652   -7.9204  -47.8897 H         1 UNK         0.0600 
    189 H189        0.1465  -10.2251  -48.3586 H         1 UNK         0.3000 
    190 H190       -1.3876  -24.1930  -45.5694 H         1 UNK         0.3000 
    191 H191       -4.1750  -23.5149  -45.6832 H         1 UNK         0.0600 
    192 H192       -3.2066  -24.9944  -43.9285 H         1 UNK         0.0600 
    193 H193       -4.4670  -25.8435  -44.8115 H         1 UNK         0.0600 
    194 H194       -2.7751  -26.1954  -45.1458 H         1 UNK         0.0600 
    195 H195       -5.7146  -24.0263  -47.1764 H         1 UNK         0.3000 
    196 H196       -5.0091  -24.2344  -49.8119 H         1 UNK         0.0600 
    197 H197       -7.4718  -24.4315  -50.2358 H         1 UNK         0.0600 
    198 H198       -7.1037  -23.2111  -49.0314 H         1 UNK         0.0600 
    199 H199       -7.7329  -24.7827  -48.5309 H         1 UNK         0.0600 
    200 H200       -5.5535  -26.9523  -47.7310 H         1 UNK         0.3000 
    201 H201       -6.0829  -29.0040  -49.6203 H         1 UNK         0.0600 
    202 H202       -6.3924  -29.2765  -47.1724 H         1 UNK         0.0600 
    203 H203       -4.6573  -29.0980  -46.9056 H         1 UNK         0.0600 
    204 H204       -5.2809  -30.4952  -47.7748 H         1 UNK         0.0600 
    205 H205       -3.1051  -27.2514  -48.9479 H         1 UNK         0.3000 
    206 H206       -1.2876  -29.1921  -50.1015 H         1 UNK         0.0600 
    207 H207       -0.9683  -26.1886  -49.5882 H         1 UNK         0.0600 
    208 H208       -0.5612  -27.4691  -48.4482 H         1 UNK         0.0600 
    209 H209        0.3294  -27.3157  -49.9559 H         1 UNK         0.0600 
    210 H210       -3.5423  -26.9496  -51.4442 H         1 UNK         0.3000 
    211 H211       -4.0976  -26.2222  -53.4244 H         1 UNK         0.0600 
    212 H212       -2.3990  -28.4559  -54.6571 H         1 UNK         0.0600 
    213 H213       -3.8005  -27.6688  -55.3742 H         1 UNK         0.0600 
    214 H214       -4.0040  -28.6986  -53.9732 H         1 UNK         0.0600 
    215 H215       -2.8344  -26.0048  -55.9209 H         1 UNK         0.3000 
    216 H216       -1.7265  -24.5225  -57.1385 H         1 UNK         0.0600 
    217 H217        0.2088  -25.9754  -56.6103 H         1 UNK         0.0600 
    218 H218        0.5802  -25.0349  -55.1734 H         1 UNK         0.0600 
    219 H219        0.7301  -24.3106  -56.7748 H         1 UNK         0.0600 
    220 H220        0.3949  -22.9534  -55.0427 H         1 UNK         0.3000 
    221 H221       -0.9383  -20.4394  -55.1561 H         1 UNK         0.0600 
    222 H222        1.3989  -21.3890  -53.4097 H         1 UNK         0.0600 
    223 H223        1.5279  -20.6521  -55.0077 H         1 UNK         0.0600 
    224 H224        0.9280  -19.7117  -53.6506 H         1 UNK         0.0600 
    225 H225       -1.0783  -23.0501  -52.7592 H         1 UNK         0.3000 
    226 H226       -2.0342  -21.4523  -50.5643 H         1 UNK         0.0600 
    227 H227       -0.8970  -23.7057  -50.3401 H         1 UNK         0.0600 
    228 H228       -2.4219  -23.5718  -49.4845 H         1 UNK         0.0600 
    229 H229       -2.3569  -24.4616  -50.9892 H         1 UNK         0.0600 
    230 H230       -3.6171  -22.9136  -53.3399 H         1 UNK         0.3000 
    231 H231       -6.2883  -22.9532  -52.2876 H         1 UNK         0.0600 
    232 H232       -6.9214  -23.3070  -54.6581 H         1 UNK         0.0600 
    233 H233       -5.5559  -24.3276  -54.2381 H         1 UNK         0.0600 
    234 H234       -5.3061  -22.8626  -55.1889 H         1 UNK         0.0600 
    235 H235       -4.2770  -20.3276  -53.2956 H         1 UNK         0.3000 
    236 H236       -6.4187  -18.5287  -54.1074 H         1 UNK         0.0600 
    237 H237       -4.5942  -16.8926  -54.3196 H         1 UNK         0.0600 
    238 H238       -3.4716  -17.9662  -53.5017 H         1 UNK         0.0600 
    239 H239       -4.1181  -18.4012  -55.0827 H         1 UNK         0.0600 
    240 H240       -5.1897  -19.5347  -50.9945 H         1 UNK         0.3000 
    241 H241       -6.8375  -17.5119  -49.7335 H         1 UNK         0.0600 
    242 H242       -5.5444  -20.7642  -49.4834 H         1 UNK         0.3800 
    243 H243       -6.2798  -20.9847  -47.9229 H         1 UNK         0.3800 
    244 H244       -4.7882  -16.1932  -49.9409 H         1 UNK         0.0800 
    245 H245       -5.1872  -16.4911  -48.2844 H         1 UNK         0.0800 
    246 H246       -2.7043  -17.8898  -51.2213 H         1 UNK         0.0800 
    247 H247       -2.5377  -16.2203  -50.7199 H         1 UNK         0.0800 
@<TRIPOS>BOND
     1    1    2 1    
     2    1  127 1    
     3    1  128 1    
     4    1  129 1    
     5    2    3 2    
     6    2    4 am   BACKBONE|DICT|INTERRES
     7    4    5 1    
     8    4  130 1    
     9    5    6 1    
    10    5   65 1    
    11    5  131 1    
    12    6    7 1    
    13    6  132 1    
    14    6  133 1    
    15    7    8 1    
    16    8    9 1    
    17    8  134 1    
    18    8  135 1    
    19    9   10 ar   
    20    9   14 ar   
    21   10   11 ar   
    22   10  136 1    
    23   11   12 ar   
    24   11  126 1    
    25   12   13 ar   
    26   12  137 1    
    27   13   14 ar   
    28   13   15 1    
    29   14  138 1    
    30   15   16 1    
    31   15  139 1    
    32   15  140 1    
    33   16   17 1    
    34   17   18 1    
    35   17  141 1    
    36   17  142 1    
    37   18   19 1    
    38   18   67 1    
    39   18  143 1    
    40   19   20 am   BACKBONE|DICT|INTERRES
    41   19  144 1    
    42   20   21 2    
    43   20   22 1    
    44   22   23 1    
    45   22   24 1    
    46   22  145 1    
    47   23  146 1    
    48   23  147 1    
    49   23  148 1    
    50   24   25 am   BACKBONE|DICT|INTERRES
    51   24  149 1    
    52   25   26 2    
    53   25   27 1    
    54   27   28 1    
    55   27   29 1    
    56   27  150 1    
    57   28  151 1    
    58   28  152 1    
    59   28  153 1    
    60   29   30 am   BACKBONE|DICT|INTERRES
    61   29  154 1    
    62   30   31 2    
    63   30   32 1    
    64   32   33 1    
    65   32   34 1    
    66   32  155 1    
    67   33  156 1    
    68   33  157 1    
    69   33  158 1    
    70   34   35 am   BACKBONE|DICT|INTERRES
    71   34  159 1    
    72   35   36 2    
    73   35   37 1    
    74   37   38 1    
    75   37   39 1    
    76   37  160 1    
    77   38  161 1    
    78   38  162 1    
    79   38  163 1    
    80   39   40 am   BACKBONE|DICT|INTERRES
    81   39  164 1    
    82   40   41 2    
    83   40   42 1    
    84   42   43 1    
    85   42   44 1    
    86   42  165 1    
    87   43  166 1    
    88   43  167 1    
    89   43  168 1    
    90   44   45 am   BACKBONE|DICT|INTERRES
    91   44  169 1    
    92   45   46 2    
    93   45   47 1    
    94   47   48 1    
    95   47   49 1    
    96   47  170 1    
    97   48  171 1    
    98   48  172 1    
    99   48  173 1    
   100   49   50 am   BACKBONE|DICT|INTERRES
   101   49  174 1    
   102   50   51 2    
   103   50   52 1    
   104   52   53 1    
   105   52   54 1    
   106   52  175 1    
   107   53  176 1    
   108   53  177 1    
   109   53  178 1    
   110   54   55 am   BACKBONE|DICT|INTERRES
   111   54  179 1    
   112   55   56 2    
   113   55   57 1    
   114   57   58 1    
   115   57   59 1    
   116   57  180 1    
   117   58  181 1    
   118   58  182 1    
   119   58  183 1    
   120   59   60 am   BACKBONE|DICT|INTERRES
   121   59  184 1    
   122   60   61 2    
   123   60   62 1    
   124   62   63 1    
   125   62   64 1    
   126   62  185 1    
   127   63  186 1    
   128   63  187 1    
   129   63  188 1    
   130   64   65 am   BACKBONE|DICT|INTERRES
   131   64  189 1    
   132   65   66 2    
   133   67   68 2    
   134   67   69 am   BACKBONE|DICT|INTERRES
   135   69   70 1    
   136   69  190 1    
   137   70   71 1    
   138   70   72 1    
   139   70  191 1    
   140   71  192 1    
   141   71  193 1    
   142   71  194 1    
   143   72   73 2    
   144   72   74 am   BACKBONE|DICT|INTERRES
   145   74   75 1    
   146   74  195 1    
   147   75   76 1    
   148   75   77 1    
   149   75  196 1    
   150   76  197 1    
   151   76  198 1    
   152   76  199 1    
   153   77   78 2    
   154   77   79 am   BACKBONE|DICT|INTERRES
   155   79   80 1    
   156   79  200 1    
   157   80   81 1    
   158   80   82 1    
   159   80  201 1    
   160   81  202 1    
   161   81  203 1    
   162   81  204 1    
   163   82   83 2    
   164   82   84 am   BACKBONE|DICT|INTERRES
   165   84   85 1    
   166   84  205 1    
   167   85   86 1    
   168   85   87 1    
   169   85  206 1    
   170   86  207 1    
   171   86  208 1    
   172   86  209 1    
   173   87   88 2    
   174   87   89 am   BACKBONE|DICT|INTERRES
   175   89   90 1    
   176   89  210 1    
   177   90   91 1    
   178   90   92 1    
   179   90  211 1    
   180   91  212 1    
   181   91  213 1    
   182   91  214 1    
   183   92   93 2    
   184   92   94 am   BACKBONE|DICT|INTERRES
   185   94   95 1    
   186   94  215 1    
   187   95   96 1    
   188   95   97 1    
   189   95  216 1    
   190   96  217 1    
   191   96  218 1    
   192   96  219 1    
   193   97   98 2    
   194   97   99 am   BACKBONE|DICT|INTERRES
   195   99  100 1    
   196   99  220 1    
   197  100  101 1    
   198  100  102 1    
   199  100  221 1    
   200  101  222 1    
   201  101  223 1    
   202  101  224 1    
   203  102  103 2    
   204  102  104 am   BACKBONE|DICT|INTERRES
   205  104  105 1    
   206  104  225 1    
   207  105  106 1    
   208  105  107 1    
   209  105  226 1    
   210  106  227 1    
   211  106  228 1    
   212  106  229 1    
   213  107  108 2    
   214  107  109 am   BACKBONE|DICT|INTERRES
   215  109  110 1    
   216  109  230 1    
   217  110  111 1    
   218  110  112 1    
   219  110  231 1    
   220  111  232 1    
   221  111  233 1    
   222  111  234 1    
   223  112  113 2    
   224  112  114 am   BACKBONE|DICT|INTERRES
   225  114  115 1    
   226  114  235 1    
   227  115  116 1    
   228  115  117 1    
   229  115  236 1    
   230  116  237 1    
   231  116  238 1    
   232  116  239 1    
   233  117  118 2    
   234  117  119 am   BACKBONE|DICT|INTERRES
   235  119  120 1    
   236  119  240 1    
   237  120  121 1    
   238  120  124 1    
   239  120  241 1    
   240  121  122 am   BACKBONE|DICT|INTERRES
   241  121  123 2    
   242  122  242 1    
   243  122  243 1    
   244  124  125 1    
   245  124  244 1    
   246  124  245 1    
   247  125  126 1    
   248  126  246 1    
   249  126  247 1    
@<TRIPOS>SUBSTRUCTURE
     1 UNK         1 GROUP             0       ****    0 ROOT    
