@<TRIPOS>MOLECULE
3R540
247   249    1
SMALL
USER_CHARGES


@<TRIPOS>ATOM
      1 CA         -1.8918  -16.5700  -47.5031 C.3       0 UNK        -0.1800 
      2 C          -0.9308  -15.6286  -48.2127 C.2       0 UNK         0.5000 
      3 O          -1.2630  -15.0976  -49.2725 O.2       0 UNK        -0.5000 
      4 N           0.2597  -15.4278  -47.6344 N.am      1 UNK        -0.5000 
      5 CA          1.2643  -14.4634  -48.0977 C.3       1 UNK         0.1400 
      6 C6          2.6761  -14.7426  -47.5105 C.3       23 UNK        -0.0398 
      7 S7          3.2314  -16.4740  -47.6672 S.3       23 UNK        -0.2404 
      8 C8          3.5814  -16.6079  -49.4456 C.3       23 UNK        -0.0205 
      9 C9          2.9358  -17.8531  -50.0330 C.ar      23 UNK        -0.0193 
     10 C10         1.5845  -17.8416  -50.3875 C.ar      23 UNK        -0.1150 
     11 C11         0.9907  -18.9681  -50.9631 C.ar      23 UNK        -0.0193 
     12 C12         1.7580  -20.1184  -51.1748 C.ar      23 UNK        -0.1150 
     13 C13         3.1108  -20.1456  -50.8187 C.ar      23 UNK        -0.0193 
     14 C14         3.6911  -19.0099  -50.2439 C.ar      23 UNK        -0.1150 
     15 C15         3.9652  -21.3809  -51.0860 C.3       23 UNK        -0.0205 
     16 S16         3.3239  -22.9036  -50.3139 S.3       23 UNK        -0.2404 
     17 C17         3.3153  -22.4596  -48.5412 C.3       23 UNK        -0.0398 
     18 CA          2.2300  -23.1858  -47.7075 C.3       11 UNK         0.1400 
     19 N           2.3267  -22.7980  -46.2980 N.am      11 UNK        -0.5000 
     20 C           1.6094  -23.2988  -45.2860 C.2       10 UNK         0.5000 
     21 O           0.8116  -24.2270  -45.4126 O.2       10 UNK        -0.5000 
     22 CA          1.7576  -22.6090  -43.9183 C.3       10 UNK         0.1400 
     23 CB          3.0231  -23.0811  -43.1800 C.3       10 UNK        -0.1800 
     24 N           1.6787  -21.1435  -43.9790 N.am      10 UNK        -0.5000 
     25 C           2.5341  -20.2577  -44.5122 C.2       9 UNK         0.5000 
     26 O           3.5626  -20.5672  -45.1147 O.2       9 UNK        -0.5000 
     27 CA          2.1650  -18.7707  -44.3530 C.3       9 UNK         0.1400 
     28 CB          1.2262  -18.3282  -45.4831 C.3       9 UNK        -0.1800 
     29 N           1.5176  -18.4822  -43.0746 N.am      9 UNK        -0.5000 
     30 C           2.0920  -18.5971  -41.8693 C.2       8 UNK         0.5000 
     31 O           3.2823  -18.8586  -41.6934 O.2       8 UNK        -0.5000 
     32 CA          1.1596  -18.4275  -40.6577 C.3       8 UNK         0.1400 
     33 CB          0.9494  -16.9410  -40.3282 C.3       8 UNK        -0.1800 
     34 N          -0.1359  -19.0716  -40.8874 N.am      8 UNK        -0.5000 
     35 C          -0.3397  -20.3967  -40.8447 C.2       7 UNK         0.5000 
     36 O           0.5300  -21.2127  -40.5402 O.2       7 UNK        -0.5000 
     37 CA         -1.7465  -20.9016  -41.2187 C.3       7 UNK         0.1400 
     38 CB         -2.6281  -21.0166  -39.9664 C.3       7 UNK        -0.1800 
     39 N          -2.4188  -20.0488  -42.2001 N.am      7 UNK        -0.5000 
     40 C          -2.0870  -19.9755  -43.4959 C.2       6 UNK         0.5000 
     41 O          -1.1912  -20.6427  -44.0142 O.2       6 UNK        -0.5000 
     42 CA         -2.8565  -18.9447  -44.3432 C.3       6 UNK         0.1400 
     43 CB         -4.1473  -19.5538  -44.9088 C.3       6 UNK        -0.1800 
     44 N          -3.1545  -17.7000  -43.6268 N.am      6 UNK        -0.5000 
     45 C          -2.2114  -16.8772  -43.1492 C.2       5 UNK         0.5000 
     46 O          -1.0036  -17.1179  -43.2258 O.2       5 UNK        -0.5000 
     47 CA         -2.6893  -15.6128  -42.4140 C.3       5 UNK         0.1400 
     48 CB         -3.0499  -15.9514  -40.9590 C.3       5 UNK        -0.1800 
     49 N          -1.6323  -14.6021  -42.4122 N.am      5 UNK        -0.5000 
     50 C          -1.3342  -13.8224  -43.4572 C.2       4 UNK         0.5000 
     51 O          -2.0352  -13.7314  -44.4679 O.2       4 UNK        -0.5000 
     52 CA         -0.0043  -13.0598  -43.3626 C.3       4 UNK         0.1400 
     53 CB          1.1441  -13.9551  -43.8562 C.3       4 UNK        -0.1800 
     54 N          -0.0554  -11.8532  -44.1870 N.am      4 UNK        -0.5000 
     55 C           0.1014  -10.6032  -43.7303 C.2       3 UNK         0.5000 
     56 O           0.3569  -10.3431  -42.5526 O.2       3 UNK        -0.5000 
     57 CA         -0.0812   -9.4438  -44.7383 C.3       3 UNK         0.1400 
     58 CB          0.7035   -8.1746  -44.3417 C.3       3 UNK        -0.1800 
     59 N           0.1861   -9.8072  -46.1346 N.am      3 UNK        -0.5000 
     60 C           1.3508  -10.2029  -46.6671 C.2       2 UNK         0.5000 
     61 O           2.4101  -10.2992  -46.0440 O.2       2 UNK        -0.5000 
     62 CA          1.3037  -10.5988  -48.1577 C.3       2 UNK         0.1400 
     63 CB          2.3352   -9.8047  -48.9753 C.3       2 UNK        -0.1800 
     64 N           1.5291  -12.0324  -48.3613 N.am      2 UNK        -0.5000 
     65 C           0.8203  -13.0147  -47.7866 C.2       1 UNK         0.5000 
     66 O          -0.1300  -12.8054  -47.0271 O.2       1 UNK        -0.5000 
     67 C           0.8032  -22.9490  -48.2518 C.2       11 UNK         0.5000 
     68 O           0.2570  -23.8079  -48.9426 O.2       11 UNK        -0.5000 
     69 N           0.2037  -21.8133  -47.8731 N.am      12 UNK        -0.5000 
     70 CA         -1.1648  -21.4429  -48.2191 C.3       12 UNK         0.1400 
     71 CB         -1.3947  -19.9963  -47.7791 C.3       12 UNK        -0.1800 
     72 C          -2.2189  -22.3800  -47.5989 C.2       12 UNK         0.5000 
     73 O          -3.1796  -22.7400  -48.2791 O.2       12 UNK        -0.5000 
     74 N          -2.0068  -22.7837  -46.3374 N.am      13 UNK        -0.5000 
     75 CA         -2.8402  -23.7660  -45.6416 C.3       13 UNK         0.1400 
     76 CB         -2.5168  -23.7702  -44.1401 C.3       13 UNK        -0.1800 
     77 C          -2.7044  -25.1778  -46.2384 C.2       13 UNK         0.5000 
     78 O          -3.7136  -25.8653  -46.3894 O.2       13 UNK        -0.5000 
     79 N          -1.4768  -25.5684  -46.6110 N.am      14 UNK        -0.5000 
     80 CA         -1.1772  -26.8269  -47.3004 C.3       14 UNK         0.1400 
     81 CB          0.3441  -27.0295  -47.3642 C.3       14 UNK        -0.1800 
     82 C          -1.8032  -26.9011  -48.7075 C.2       14 UNK         0.5000 
     83 O          -2.2769  -27.9649  -49.1075 O.2       14 UNK        -0.5000 
     84 N          -1.8336  -25.7614  -49.4122 N.am      15 UNK        -0.5000 
     85 CA         -2.5036  -25.5811  -50.7023 C.3       15 UNK         0.1400 
     86 CB         -1.9654  -24.3045  -51.3661 C.3       15 UNK        -0.1800 
     87 C          -4.0434  -25.5271  -50.5985 C.2       15 UNK         0.5000 
     88 O          -4.7163  -25.6082  -51.6269 O.2       15 UNK        -0.5000 
     89 N          -4.5708  -25.3772  -49.3746 N.am      16 UNK        -0.5000 
     90 CA         -5.9751  -25.3428  -48.9487 C.3       16 UNK         0.1400 
     91 CB         -6.7082  -26.6456  -49.3194 C.3       16 UNK        -0.1800 
     92 C          -6.7621  -24.1051  -49.4166 C.2       16 UNK         0.5000 
     93 O          -7.4457  -23.4832  -48.6029 O.2       16 UNK        -0.5000 
     94 N          -6.6539  -23.7612  -50.7046 N.am      17 UNK        -0.5000 
     95 CA         -7.3242  -22.6174  -51.3272 C.3       17 UNK         0.1400 
     96 CB         -7.5327  -22.9165  -52.8193 C.3       17 UNK        -0.1800 
     97 C          -6.5743  -21.2851  -51.1167 C.2       17 UNK         0.5000 
     98 O          -7.1051  -20.2353  -51.4837 O.2       17 UNK        -0.5000 
     99 N          -5.3696  -21.3425  -50.5267 N.am      18 UNK        -0.5000 
    100 CA        -4.5136  -20.2175  -50.1467 C.3       18 UNK         0.1400 
    101 CB        -5.1083  -19.4915  -48.9182 C.3       18 UNK        -0.1800 
    102 C         -4.1961  -19.2968  -51.3397 C.2       18 UNK         0.5000 
    103 O         -3.5809  -19.7579  -52.3024 O.2       18 UNK        -0.5000 
    104 N         -4.6349  -18.0328  -51.2762 N.am      19 UNK        -0.5000 
    105 CA        -4.4409  -17.0120  -52.3081 C.3       19 UNK         0.1400 
    106 CB        -5.0614  -15.6917  -51.8286 C.3       19 UNK        -0.1800 
    107 C         -4.9980  -17.4008  -53.6914 C.2       19 UNK         0.5000 
    108 O         -4.4376  -16.9852  -54.7052 O.2       19 UNK        -0.5000 
    109 N         -6.0610  -18.2172  -53.7189 N.am      20 UNK        -0.5000 
    110 CA        -6.6514  -18.7398  -54.9508 C.3       20 UNK         0.1400 
    111 CB        -8.0889  -19.2011  -54.6710 C.3       20 UNK        -0.1800 
    112 C         -5.8178  -19.8649  -55.5979 C.2       20 UNK         0.5000 
    113 O         -6.0009  -20.1243  -56.7880 O.2       20 UNK        -0.5000 
    114 N         -4.9186  -20.5032  -54.8327 N.am      21 UNK        -0.5000 
    115 CA        -3.9669  -21.4852  -55.3494 C.3       21 UNK         0.1400 
    116 CB        -3.6050  -22.5144  -54.2656 C.3       21 UNK        -0.1800 
    117 C         -2.7031  -20.7957  -55.8842 C.2       21 UNK         0.5000 
    118 O         -2.3117  -21.0566  -57.0228 O.2       21 UNK        -0.5000 
    119 N         -2.0800  -19.9455  -55.0557 N.am      22 UNK        -0.5000 
    120 CA        -0.8173  -19.2650  -55.3927 C.3       22 UNK         0.1400 
    121 C         -0.9561  -18.0086  -56.3004 C.2       22 UNK         0.5000 
    122 N         -2.1229  -17.3892  -56.4224 N.am      22 UNK        -0.7600 
    123 O          0.0164  -17.5992  -56.9291 O.2       22 UNK        -0.5000 
    124 C124        0.0633  -18.9978  -54.1466 C.3       23 UNK        -0.0398 
    125 S125       -0.7216  -17.9415  -52.8810 S.3       23 UNK        -0.2404 
    126 C126       -0.4746  -18.9266  -51.3702 C.3       23 UNK        -0.0205 
    127 H127       -2.3688  -17.2336  -48.2235 H         1 UNK         0.0600 
    128 H128       -1.3752  -17.1774  -46.7613 H         1 UNK         0.0600 
    129 H129       -2.6693  -15.9988  -46.9957 H         1 UNK         0.0600 
    130 H130        0.4701  -15.8856  -46.7615 H         1 UNK         0.3000 
    131 H131        1.3263  -14.5501  -49.1840 H         1 UNK         0.0600 
    132 H132        2.7053  -14.4934  -46.4490 H         1 UNK         0.0800 
    133 H133        3.4242  -14.1049  -47.9842 H         1 UNK         0.0800 
    134 H134        3.2232  -15.7284  -49.9810 H         1 UNK         0.0800 
    135 H135        4.6622  -16.6303  -49.5926 H         1 UNK         0.0800 
    136 H136        0.9961  -16.9485  -50.2311 H         1 UNK         0.1150 
    137 H137        1.3077  -20.9923  -51.6242 H         1 UNK         0.1150 
    138 H138        4.7375  -19.0190  -49.9728 H         1 UNK         0.1150 
    139 H139        4.0249  -21.5353  -52.1641 H         1 UNK         0.0800 
    140 H140        4.9895  -21.2248  -50.7439 H         1 UNK         0.0800 
    141 H141        3.1997  -21.3805  -48.4332 H         1 UNK         0.0800 
    142 H142        4.3023  -22.6932  -48.1398 H         1 UNK         0.0800 
    143 H143        2.4233  -24.2590  -47.7614 H         1 UNK         0.0600 
    144 H144        2.9491  -22.0248  -46.0742 H         1 UNK         0.3000 
    145 H145        0.8992  -22.9178  -43.3195 H         1 UNK         0.0600 
    146 H146        3.0866  -22.6330  -42.1881 H         1 UNK         0.0600 
    147 H147        3.0138  -24.1637  -43.0485 H         1 UNK         0.0600 
    148 H148        3.9343  -22.8272  -43.7219 H         1 UNK         0.0600 
    149 H149        0.8107  -20.7657  -43.6150 H         1 UNK         0.3000 
    150 H150        3.0860  -18.1877  -44.4157 H         1 UNK         0.0600 
    151 H151        1.6150  -18.6117  -46.4618 H         1 UNK         0.0600 
    152 H152        1.0970  -17.2466  -45.4752 H         1 UNK         0.0600 
    153 H153        0.2413  -18.7775  -45.3780 H         1 UNK         0.0600 
    154 H154        0.5482  -18.1790  -43.1188 H         1 UNK         0.3000 
    155 H155        1.6360  -18.9003  -39.7960 H         1 UNK         0.0600 
    156 H156        0.5000  -16.3992  -41.1597 H         1 UNK         0.0600 
    157 H157        1.8999  -16.4570  -40.1009 H         1 UNK         0.0600 
    158 H158        0.3054  -16.8169  -39.4575 H         1 UNK         0.0600 
    159 H159       -0.8900  -18.4762  -41.1942 H         1 UNK         0.3000 
    160 H160       -1.6340  -21.8992  -41.6485 H         1 UNK         0.0600 
    161 H161       -3.6017  -21.4435  -40.2078 H         1 UNK         0.0600 
    162 H162       -2.7930  -20.0452  -39.4984 H         1 UNK         0.0600 
    163 H163       -2.1657  -21.6658  -39.2216 H         1 UNK         0.0600 
    164 H164       -3.1698  -19.4662  -41.8608 H         1 UNK         0.3000 
    165 H165       -2.2186  -18.6749  -45.1822 H         1 UNK         0.0600 
    166 H166       -4.6385  -18.8664  -45.5977 H         1 UNK         0.0600 
    167 H167       -3.9370  -20.4700  -45.4629 H         1 UNK         0.0600 
    168 H168       -4.8561  -19.8033  -44.1184 H         1 UNK         0.0600 
    169 H169       -4.1289  -17.4566  -43.5193 H         1 UNK         0.3000 
    170 H170       -3.5731  -15.2181  -42.9195 H         1 UNK         0.0600 
    171 H171       -3.8572  -16.6833  -40.9132 H         1 UNK         0.0600 
    172 H172       -2.1996  -16.3659  -40.4158 H         1 UNK         0.0600 
    173 H173       -3.3885  -15.0650  -40.4222 H         1 UNK         0.0600 
    174 H174       -0.9866  -14.6411  -41.6381 H         1 UNK         0.3000 
    175 H175        0.1748  -12.8088  -42.3152 H         1 UNK         0.0600 
    176 H176        0.9604  -14.3114  -44.8693 H         1 UNK         0.0600 
    177 H177        2.0943  -13.4209  -43.8525 H         1 UNK         0.0600 
    178 H178        1.2590  -14.8340  -43.2201 H         1 UNK         0.0600 
    179 H179       -0.2941  -12.0078  -45.1628 H         1 UNK         0.3000 
    180 H180       -1.1415   -9.1906  -44.6985 H         1 UNK         0.0600 
    181 H181        1.7753   -8.3636  -44.2779 H         1 UNK         0.0600 
    182 H182        0.3805   -7.8014  -43.3692 H         1 UNK         0.0600 
    183 H183        0.5462   -7.3718  -45.0621 H         1 UNK         0.0600 
    184 H184       -0.6277   -9.8114  -46.7340 H         1 UNK         0.3000 
    185 H185        0.3131  -10.3641  -48.5530 H         1 UNK         0.0600 
    186 H186        3.3567  -10.0356  -48.6699 H         1 UNK         0.0600 
    187 H187        2.2462  -10.0197  -50.0403 H         1 UNK         0.0600 
    188 H188        2.1899   -8.7311  -48.8483 H         1 UNK         0.0600 
    189 H189        2.3031  -12.2724  -48.9629 H         1 UNK         0.3000 
    190 H190        0.7168  -21.1699  -47.2907 H         1 UNK         0.3000 
    191 H191       -1.2656  -21.4959  -49.3051 H         1 UNK         0.0600 
    192 H192       -1.2163  -19.8927  -46.7127 H         1 UNK         0.0600 
    193 H193       -2.4159  -19.6752  -47.9733 H         1 UNK         0.0600 
    194 H194       -0.7233  -19.3120  -48.2975 H         1 UNK         0.0600 
    195 H195       -1.2042  -22.4321  -45.8352 H         1 UNK         0.3000 
    196 H196       -3.8836  -23.4638  -45.7560 H         1 UNK         0.0600 
    197 H197       -1.4557  -23.9314  -43.9511 H         1 UNK         0.0600 
    198 H198       -3.0659  -24.5582  -43.6230 H         1 UNK         0.0600 
    199 H199       -2.8040  -22.8279  -43.6771 H         1 UNK         0.0600 
    200 H200       -0.6864  -24.9680  -46.3935 H         1 UNK         0.3000 
    201 H201       -1.6016  -27.6393  -46.7068 H         1 UNK         0.0600 
    202 H202        0.7842  -27.0287  -46.3668 H         1 UNK         0.0600 
    203 H203        0.8320  -26.2470  -47.9450 H         1 UNK         0.0600 
    204 H204        0.5909  -27.9847  -47.8290 H         1 UNK         0.0600 
    205 H205       -1.3342  -24.9552  -49.0477 H         1 UNK         0.3000 
    206 H206       -2.2494  -26.4295  -51.3407 H         1 UNK         0.0600 
    207 H207       -0.8798  -24.3342  -51.4613 H         1 UNK         0.0600 
    208 H208       -2.3729  -24.1921  -52.3698 H         1 UNK         0.0600 
    209 H209       -2.2284  -23.4108  -50.7995 H         1 UNK         0.0600 
    210 H210       -3.9112  -25.2766  -48.6141 H         1 UNK         0.3000 
    211 H211       -5.9437  -25.2911  -47.8595 H         1 UNK         0.0600 
    212 H212       -6.7991  -26.7726  -50.3984 H         1 UNK         0.0600 
    213 H213       -7.7172  -26.6541  -48.9056 H         1 UNK         0.0600 
    214 H214       -6.1863  -27.5160  -48.9217 H         1 UNK         0.0600 
    215 H215       -6.0591  -24.3368  -51.2959 H         1 UNK         0.3000 
    216 H216       -8.3108  -22.5035  -50.8734 H         1 UNK         0.0600 
    217 H217       -8.1788  -22.1704  -53.2797 H         1 UNK         0.0600 
    218 H218       -8.0114  -23.8849  -52.9658 H         1 UNK         0.0600 
    219 H219       -6.5935  -22.9206  -53.3681 H         1 UNK         0.0600 
    220 H220       -5.0199  -22.2554  -50.2727 H         1 UNK         0.3000 
    221 H221       -3.5571  -20.6461  -49.8540 H         1 UNK         0.0600 
    222 H222       -6.1055  -19.0967  -49.1159 H         1 UNK         0.0600 
    223 H223       -5.1896  -20.1745  -48.0721 H         1 UNK         0.0600 
    224 H224       -4.4793  -18.6608  -48.5967 H         1 UNK         0.0600 
    225 H225       -5.1625  -17.7512  -50.4633 H         1 UNK         0.3000 
    226 H226       -3.3676  -16.8574  -52.4209 H         1 UNK         0.0600 
    227 H227       -4.6007  -15.3543  -50.8998 H         1 UNK         0.0600 
    228 H228       -4.9164  -14.9015  -52.5666 H         1 UNK         0.0600 
    229 H229       -6.1342  -15.7897  -51.6579 H         1 UNK         0.0600 
    230 H230       -6.4434  -18.5631  -52.8465 H         1 UNK         0.3000 
    231 H231       -6.7049  -17.9260  -55.6773 H         1 UNK         0.0600 
    232 H232       -8.7031  -18.3762  -54.3099 H         1 UNK         0.0600 
    233 H233       -8.1194  -19.9907  -53.9232 H         1 UNK         0.0600 
    234 H234       -8.5612  -19.5861  -55.5756 H         1 UNK         0.0600 
    235 H235       -4.7746  -20.1972  -53.8769 H         1 UNK         0.3000 
    236 H236       -4.4230  -22.0347  -56.1759 H         1 UNK         0.0600 
    237 H237       -2.8591  -23.2175  -54.6380 H         1 UNK         0.0600 
    238 H238       -3.1912  -22.0482  -53.3724 H         1 UNK         0.0600 
    239 H239       -4.4692  -23.1030  -53.9663 H         1 UNK         0.0600 
    240 H240       -2.4633  -19.7680  -54.1338 H         1 UNK         0.3000 
    241 H241       -0.2383  -19.9666  -55.9972 H         1 UNK         0.0600 
    242 H242       -2.1867  -16.5846  -57.0246 H         1 UNK         0.3800 
    243 H243       -2.9190  -17.6333  -55.8446 H         1 UNK         0.3800 
    244 H244        0.3295  -19.9556  -53.6998 H         1 UNK         0.0800 
    245 H245        1.0114  -18.5404  -54.4347 H         1 UNK         0.0800 
    246 H246       -1.0614  -18.4794  -50.5671 H         1 UNK         0.0800 
    247 H247       -0.8705  -19.9328  -51.5170 H         1 UNK         0.0800 
@<TRIPOS>BOND
     1    1    2 1    
     2    1  127 1    
     3    1  128 1    
     4    1  129 1    
     5    2    3 2    
     6    2    4 am   BACKBONE|DICT|INTERRES
     7    4    5 1    
     8    4  130 1    
     9    5    6 1    
    10    5   65 1    
    11    5  131 1    
    12    6    7 1    
    13    6  132 1    
    14    6  133 1    
    15    7    8 1    
    16    8    9 1    
    17    8  134 1    
    18    8  135 1    
    19    9   10 ar   
    20    9   14 ar   
    21   10   11 ar   
    22   10  136 1    
    23   11   12 ar   
    24   11  126 1    
    25   12   13 ar   
    26   12  137 1    
    27   13   14 ar   
    28   13   15 1    
    29   14  138 1    
    30   15   16 1    
    31   15  139 1    
    32   15  140 1    
    33   16   17 1    
    34   17   18 1    
    35   17  141 1    
    36   17  142 1    
    37   18   19 1    
    38   18   67 1    
    39   18  143 1    
    40   19   20 am   BACKBONE|DICT|INTERRES
    41   19  144 1    
    42   20   21 2    
    43   20   22 1    
    44   22   23 1    
    45   22   24 1    
    46   22  145 1    
    47   23  146 1    
    48   23  147 1    
    49   23  148 1    
    50   24   25 am   BACKBONE|DICT|INTERRES
    51   24  149 1    
    52   25   26 2    
    53   25   27 1    
    54   27   28 1    
    55   27   29 1    
    56   27  150 1    
    57   28  151 1    
    58   28  152 1    
    59   28  153 1    
    60   29   30 am   BACKBONE|DICT|INTERRES
    61   29  154 1    
    62   30   31 2    
    63   30   32 1    
    64   32   33 1    
    65   32   34 1    
    66   32  155 1    
    67   33  156 1    
    68   33  157 1    
    69   33  158 1    
    70   34   35 am   BACKBONE|DICT|INTERRES
    71   34  159 1    
    72   35   36 2    
    73   35   37 1    
    74   37   38 1    
    75   37   39 1    
    76   37  160 1    
    77   38  161 1    
    78   38  162 1    
    79   38  163 1    
    80   39   40 am   BACKBONE|DICT|INTERRES
    81   39  164 1    
    82   40   41 2    
    83   40   42 1    
    84   42   43 1    
    85   42   44 1    
    86   42  165 1    
    87   43  166 1    
    88   43  167 1    
    89   43  168 1    
    90   44   45 am   BACKBONE|DICT|INTERRES
    91   44  169 1    
    92   45   46 2    
    93   45   47 1    
    94   47   48 1    
    95   47   49 1    
    96   47  170 1    
    97   48  171 1    
    98   48  172 1    
    99   48  173 1    
   100   49   50 am   BACKBONE|DICT|INTERRES
   101   49  174 1    
   102   50   51 2    
   103   50   52 1    
   104   52   53 1    
   105   52   54 1    
   106   52  175 1    
   107   53  176 1    
   108   53  177 1    
   109   53  178 1    
   110   54   55 am   BACKBONE|DICT|INTERRES
   111   54  179 1    
   112   55   56 2    
   113   55   57 1    
   114   57   58 1    
   115   57   59 1    
   116   57  180 1    
   117   58  181 1    
   118   58  182 1    
   119   58  183 1    
   120   59   60 am   BACKBONE|DICT|INTERRES
   121   59  184 1    
   122   60   61 2    
   123   60   62 1    
   124   62   63 1    
   125   62   64 1    
   126   62  185 1    
   127   63  186 1    
   128   63  187 1    
   129   63  188 1    
   130   64   65 am   BACKBONE|DICT|INTERRES
   131   64  189 1    
   132   65   66 2    
   133   67   68 2    
   134   67   69 am   BACKBONE|DICT|INTERRES
   135   69   70 1    
   136   69  190 1    
   137   70   71 1    
   138   70   72 1    
   139   70  191 1    
   140   71  192 1    
   141   71  193 1    
   142   71  194 1    
   143   72   73 2    
   144   72   74 am   BACKBONE|DICT|INTERRES
   145   74   75 1    
   146   74  195 1    
   147   75   76 1    
   148   75   77 1    
   149   75  196 1    
   150   76  197 1    
   151   76  198 1    
   152   76  199 1    
   153   77   78 2    
   154   77   79 am   BACKBONE|DICT|INTERRES
   155   79   80 1    
   156   79  200 1    
   157   80   81 1    
   158   80   82 1    
   159   80  201 1    
   160   81  202 1    
   161   81  203 1    
   162   81  204 1    
   163   82   83 2    
   164   82   84 am   BACKBONE|DICT|INTERRES
   165   84   85 1    
   166   84  205 1    
   167   85   86 1    
   168   85   87 1    
   169   85  206 1    
   170   86  207 1    
   171   86  208 1    
   172   86  209 1    
   173   87   88 2    
   174   87   89 am   BACKBONE|DICT|INTERRES
   175   89   90 1    
   176   89  210 1    
   177   90   91 1    
   178   90   92 1    
   179   90  211 1    
   180   91  212 1    
   181   91  213 1    
   182   91  214 1    
   183   92   93 2    
   184   92   94 am   BACKBONE|DICT|INTERRES
   185   94   95 1    
   186   94  215 1    
   187   95   96 1    
   188   95   97 1    
   189   95  216 1    
   190   96  217 1    
   191   96  218 1    
   192   96  219 1    
   193   97   98 2    
   194   97   99 am   BACKBONE|DICT|INTERRES
   195   99  100 1    
   196   99  220 1    
   197  100  101 1    
   198  100  102 1    
   199  100  221 1    
   200  101  222 1    
   201  101  223 1    
   202  101  224 1    
   203  102  103 2    
   204  102  104 am   BACKBONE|DICT|INTERRES
   205  104  105 1    
   206  104  225 1    
   207  105  106 1    
   208  105  107 1    
   209  105  226 1    
   210  106  227 1    
   211  106  228 1    
   212  106  229 1    
   213  107  108 2    
   214  107  109 am   BACKBONE|DICT|INTERRES
   215  109  110 1    
   216  109  230 1    
   217  110  111 1    
   218  110  112 1    
   219  110  231 1    
   220  111  232 1    
   221  111  233 1    
   222  111  234 1    
   223  112  113 2    
   224  112  114 am   BACKBONE|DICT|INTERRES
   225  114  115 1    
   226  114  235 1    
   227  115  116 1    
   228  115  117 1    
   229  115  236 1    
   230  116  237 1    
   231  116  238 1    
   232  116  239 1    
   233  117  118 2    
   234  117  119 am   BACKBONE|DICT|INTERRES
   235  119  120 1    
   236  119  240 1    
   237  120  121 1    
   238  120  124 1    
   239  120  241 1    
   240  121  122 am   BACKBONE|DICT|INTERRES
   241  121  123 2    
   242  122  242 1    
   243  122  243 1    
   244  124  125 1    
   245  124  244 1    
   246  124  245 1    
   247  125  126 1    
   248  126  246 1    
   249  126  247 1    
@<TRIPOS>SUBSTRUCTURE
     1 UNK         1 GROUP             0       ****    0 ROOT    
