@<TRIPOS>MOLECULE
3R540
247   249    1
SMALL
USER_CHARGES


@<TRIPOS>ATOM
      1 CA          4.8457  -12.9027  -47.8473 C.3       0 UNK        -0.1800 
      2 C           4.5041  -14.3860  -47.8433 C.2       0 UNK         0.5000 
      3 O           3.8765  -14.8559  -46.8922 O.2       0 UNK        -0.5000 
      4 N           4.9231  -15.0970  -48.9030 N.am      1 UNK        -0.5000 
      5 CA          4.7836  -16.5378  -49.1680 C.3       1 UNK         0.1400 
      6 C6          3.4946  -16.9225  -49.9565 C.3       23 UNK        -0.0398 
      7 S7          1.8917  -16.5575  -49.1490 S.3       23 UNK        -0.2404 
      8 C8          0.7716  -16.4206  -50.5871 C.3       23 UNK        -0.0205 
      9 C9          0.2253  -17.7373  -51.1498 C.ar      23 UNK        -0.0193 
     10 C10        -0.8152  -17.6719  -52.0797 C.ar      23 UNK        -0.1150 
     11 C11        -1.3775  -18.8340  -52.6134 C.ar      23 UNK        -0.0193 
     12 C12        -0.8886  -20.0787  -52.2107 C.ar      23 UNK        -0.1150 
     13 C13         0.1545  -20.1762  -51.2868 C.ar      23 UNK        -0.0193 
     14 C14         0.7090  -18.9966  -50.7697 C.ar      23 UNK        -0.1150 
     15 C15         0.6403  -21.5758  -50.8948 C.3       23 UNK        -0.0205 
     16 S16         1.8973  -21.6499  -49.5715 S.3       23 UNK        -0.2404 
     17 C17         0.9056  -21.2024  -48.1075 C.3       23 UNK        -0.0398 
     18 CA          0.9653  -22.3056  -47.0227 C.3       11 UNK         0.1400 
     19 N           1.0719  -21.7634  -45.6644 N.am      11 UNK        -0.5000 
     20 C           1.3062  -22.5018  -44.5693 C.2       10 UNK         0.5000 
     21 O           1.5150  -23.7149  -44.5995 O.2       10 UNK        -0.5000 
     22 CA          1.2138  -21.7867  -43.2110 C.3       10 UNK         0.1400 
     23 CB          2.5573  -21.1869  -42.7734 C.3       10 UNK        -0.1800 
     24 N           0.1799  -20.7521  -43.2252 N.am      10 UNK        -0.5000 
     25 C          -1.1256  -21.0273  -43.1049 C.2       9 UNK         0.5000 
     26 O          -1.5657  -22.1597  -42.9049 O.2       9 UNK        -0.5000 
     27 CA         -2.1083  -19.8507  -43.2350 C.3       9 UNK         0.1400 
     28 CB         -2.2887  -19.1716  -41.8701 C.3       9 UNK        -0.1800 
     29 N          -1.7360  -18.8475  -44.2374 N.am      9 UNK        -0.5000 
     30 C          -1.5975  -19.0816  -45.5509 C.2       8 UNK         0.5000 
     31 O          -1.6706  -20.2009  -46.0553 O.2       8 UNK        -0.5000 
     32 CA         -1.3523  -17.8473  -46.4368 C.3       8 UNK         0.1400 
     33 CB         -1.3748  -18.1439  -47.9487 C.3       8 UNK        -0.1800 
     34 N          -2.2580  -16.7498  -46.0852 N.am      8 UNK        -0.5000 
     35 C          -3.5781  -16.6777  -46.3095 C.2       7 UNK         0.5000 
     36 O          -4.2199  -17.5323  -46.9230 O.2       7 UNK        -0.5000 
     37 CA         -4.2831  -15.3996  -45.8112 C.3       7 UNK         0.1400 
     38 CB         -5.8139  -15.5544  -45.6918 C.3       7 UNK        -0.1800 
     39 N          -3.6908  -14.8522  -44.5868 N.am      7 UNK        -0.5000 
     40 C          -3.7119  -15.3830  -43.3543 C.2       6 UNK         0.5000 
     41 O          -4.2935  -16.4310  -43.0769 O.2       6 UNK        -0.5000 
     42 CA         -2.9427  -14.6236  -42.2509 C.3       6 UNK         0.1400 
     43 CB         -2.2446  -15.5821  -41.2710 C.3       6 UNK        -0.1800 
     44 N          -1.9303  -13.7383  -42.8247 N.am      6 UNK        -0.5000 
     45 C          -2.0247  -12.4076  -42.9410 C.2       5 UNK         0.5000 
     46 O          -2.9679  -11.7478  -42.5045 O.2       5 UNK        -0.5000 
     47 CA         -0.8860  -11.6908  -43.6976 C.3       5 UNK         0.1400 
     48 CB          0.1061  -11.0668  -42.7045 C.3       5 UNK        -0.1800 
     49 N          -0.1469  -12.5568  -44.6220 N.am      5 UNK        -0.5000 
     50 C          -0.6616  -13.1526  -45.7073 C.2       4 UNK         0.5000 
     51 O          -1.8312  -13.0233  -46.0681 O.2       4 UNK        -0.5000 
     52 CA          0.2745  -14.0955  -46.4889 C.3       4 UNK         0.1400 
     53 CB          1.0418  -13.2715  -47.5329 C.3       4 UNK        -0.1800 
     54 N           1.2184  -14.8553  -45.6499 N.am      4 UNK        -0.5000 
     55 C           0.8876  -15.6026  -44.5830 C.2       3 UNK         0.5000 
     56 O          -0.2761  -15.7552  -44.2018 O.2       3 UNK        -0.5000 
     57 CA          2.0383  -16.2620  -43.8007 C.3       3 UNK         0.1400 
     58 CB          1.5492  -17.1412  -42.6283 C.3       3 UNK        -0.1800 
     59 N           2.9852  -16.9818  -44.6556 N.am      3 UNK        -0.5000 
     60 C           2.8247  -18.1600  -45.2733 C.2       2 UNK         0.5000 
     61 O           1.7820  -18.8206  -45.2785 O.2       2 UNK        -0.5000 
     62 CA          4.0616  -18.6484  -46.0412 C.3       2 UNK         0.1400 
     63 CB          4.1365  -20.1715  -46.2407 C.3       2 UNK        -0.1800 
     64 N           4.0410  -17.9816  -47.3296 N.am      2 UNK        -0.5000 
     65 C           5.0864  -17.4091  -47.9281 C.2       1 UNK         0.5000 
     66 O           6.2489  -17.5118  -47.5300 O.2       1 UNK        -0.5000 
     67 C          -0.2155  -23.2865  -47.1565 C.2       11 UNK         0.5000 
     68 O          -0.0524  -24.3502  -47.7482 O.2       11 UNK        -0.5000 
     69 N          -1.3540  -22.9462  -46.5374 N.am      12 UNK        -0.5000 
     70 CA         -2.5613  -23.7687  -46.4622 C.3       12 UNK         0.1400 
     71 CB         -3.6647  -22.9826  -45.7384 C.3       12 UNK        -0.1800 
     72 C          -2.3423  -25.1377  -45.7889 C.2       12 UNK         0.5000 
     73 O          -3.0346  -26.0950  -46.1338 O.2       12 UNK        -0.5000 
     74 N          -1.3763  -25.2185  -44.8652 N.am      13 UNK        -0.5000 
     75 CA         -0.9370  -26.4681  -44.2509 C.3       13 UNK         0.1400 
     76 CB         -0.3762  -26.1775  -42.8497 C.3       13 UNK        -0.1800 
     77 C           0.1061  -27.1914  -45.1227 C.2       13 UNK         0.5000 
     78 O           0.0026  -28.4038  -45.3112 O.2       13 UNK        -0.5000 
     79 N           1.1015  -26.4435  -45.6179 N.am      14 UNK        -0.5000 
     80 CA          2.2668  -26.9778  -46.3231 C.3       14 UNK         0.1400 
     81 CB          3.3840  -25.9224  -46.3079 C.3       14 UNK        -0.1800 
     82 C           1.9911  -27.4362  -47.7675 C.2       14 UNK         0.5000 
     83 O           2.5260  -28.4662  -48.1808 O.2       14 UNK        -0.5000 
     84 N           1.2091  -26.6523  -48.5184 N.am      15 UNK        -0.5000 
     85 CA          1.0384  -26.7785  -49.9689 C.3       15 UNK         0.1400 
     86 CB          1.8976  -25.6980  -50.6503 C.3       15 UNK        -0.1800 
     87 C          -0.4306  -26.6800  -50.4239 C.2       15 UNK         0.5000 
     88 O          -0.6829  -26.7540  -51.6278 O.2       15 UNK        -0.5000 
     89 N          -1.3645  -26.5281  -49.4738 N.am      16 UNK        -0.5000 
     90 CA         -2.8027  -26.3040  -49.6646 C.3       16 UNK         0.1400 
     91 CB         -3.4555  -27.4601  -50.4565 C.3       16 UNK        -0.1800 
     92 C          -3.1246  -24.9084  -50.2466 C.2       16 UNK         0.5000 
     93 O          -2.2449  -24.0484  -50.3301 O.2       16 UNK        -0.5000 
     94 N          -4.4041  -24.7008  -50.5908 N.am      17 UNK        -0.5000 
     95 CA         -5.0139  -23.4359  -51.0195 C.3       17 UNK         0.1400 
     96 CB         -4.3926  -22.9365  -52.3457 C.3       17 UNK        -0.1800 
     97 C          -5.0172  -22.3742  -49.8950 C.2       17 UNK         0.5000 
     98 O          -4.9863  -22.7280  -48.7154 O.2       17 UNK        -0.5000 
     99 N          -5.0992  -21.0991  -50.2797 N.am      18 UNK        -0.5000 
    100 CA        -5.0888  -19.9101  -49.4345 C.3       18 UNK         0.1400 
    101 CB        -6.4319  -19.7598  -48.6963 C.3       18 UNK        -0.1800 
    102 C         -4.8408  -18.7140  -50.3637 C.2       18 UNK         0.5000 
    103 O         -5.0335  -18.8478  -51.5761 O.2       18 UNK        -0.5000 
    104 N         -4.4560  -17.5613  -49.7983 N.am      19 UNK        -0.5000 
    105 CA        -4.0952  -16.3409  -50.5368 C.3       19 UNK         0.1400 
    106 CB        -3.7082  -15.2264  -49.5552 C.3       19 UNK        -0.1800 
    107 C         -5.1764  -15.8306  -51.5084 C.2       19 UNK         0.5000 
    108 O         -4.8398  -15.2904  -52.5631 O.2       19 UNK        -0.5000 
    109 N         -6.4501  -16.0646  -51.1660 N.am      20 UNK        -0.5000 
    110 CA        -7.6256  -15.7428  -51.9775 C.3       20 UNK         0.1400 
    111 CB        -8.8879  -16.0720  -51.1659 C.3       20 UNK        -0.1800 
    112 C         -7.6682  -16.4499  -53.3493 C.2       20 UNK         0.5000 
    113 O         -8.3272  -15.9462  -54.2596 O.2       20 UNK        -0.5000 
    114 N         -6.9651  -17.5841  -53.4869 N.am      21 UNK        -0.5000 
    115 CA        -6.8290  -18.3171  -54.7466 C.3       21 UNK         0.1400 
    116 CB        -6.4573  -19.7768  -54.4398 C.3       21 UNK        -0.1800 
    117 C         -5.7945  -17.6877  -55.7022 C.2       21 UNK         0.5000 
    118 O         -5.8381  -17.9778  -56.8987 O.2       21 UNK        -0.5000 
    119 N         -4.8865  -16.8594  -55.1694 N.am      22 UNK        -0.5000 
    120 CA        -3.7976  -16.2038  -55.9131 C.3       22 UNK         0.1400 
    121 C         -4.0159  -14.6734  -56.0523 C.2       22 UNK         0.5000 
    122 N         -4.6075  -13.9980  -55.0744 N.am      22 UNK        -0.7600 
    123 O         -3.6513  -14.0895  -57.0691 O.2       22 UNK        -0.5000 
    124 C124       -2.4117  -16.4917  -55.2795 C.3       23 UNK        -0.0398 
    125 S125       -1.9967  -18.2718  -55.2684 S.3       23 UNK        -0.2404 
    126 C126       -2.5336  -18.7538  -53.5979 C.3       23 UNK        -0.0205 
    127 H127        5.5785  -12.6576  -48.6163 H         1 UNK         0.0600 
    128 H128        5.2587  -12.6098  -46.8822 H         1 UNK         0.0600 
    129 H129        3.9500  -12.3103  -48.0301 H         1 UNK         0.0600 
    130 H130        5.4426  -14.6019  -49.6138 H         1 UNK         0.3000 
    131 H131        5.6081  -16.7590  -49.8478 H         1 UNK         0.0600 
    132 H132        3.5142  -16.3999  -50.9133 H         1 UNK         0.0800 
    133 H133        3.5239  -17.9824  -50.2124 H         1 UNK         0.0800 
    134 H134       -0.0744  -15.8066  -50.2748 H         1 UNK         0.0800 
    135 H135        1.2666  -15.8669  -51.3856 H         1 UNK         0.0800 
    136 H136       -1.1932  -16.7072  -52.3839 H         1 UNK         0.1150 
    137 H137       -1.3248  -20.9808  -52.6168 H         1 UNK         0.1150 
    138 H138        1.5124  -19.0600  -50.0567 H         1 UNK         0.1150 
    139 H139       -0.2143  -22.1863  -50.5978 H         1 UNK         0.0800 
    140 H140        1.0609  -22.0510  -51.7819 H         1 UNK         0.0800 
    141 H141        1.2985  -20.2589  -47.7292 H         1 UNK         0.0800 
    142 H142       -0.1226  -20.9834  -48.4015 H         1 UNK         0.0800 
    143 H143        1.8772  -22.8882  -47.1702 H         1 UNK         0.0600 
    144 H144        0.9227  -20.7674  -45.5541 H         1 UNK         0.3000 
    145 H145        0.9472  -22.5445  -42.4706 H         1 UNK         0.0600 
    146 H146        2.5148  -20.8587  -41.7349 H         1 UNK         0.0600 
    147 H147        3.3595  -21.9220  -42.8492 H         1 UNK         0.0600 
    148 H148        2.8381  -20.3265  -43.3751 H         1 UNK         0.0600 
    149 H149        0.4706  -19.8092  -43.4439 H         1 UNK         0.3000 
    150 H150       -3.0718  -20.2667  -43.5368 H         1 UNK         0.0600 
    151 H151       -2.5488  -19.9000  -41.1009 H         1 UNK         0.0600 
    152 H152       -3.0937  -18.4396  -41.8985 H         1 UNK         0.0600 
    153 H153       -1.3779  -18.6661  -41.5475 H         1 UNK         0.0600 
    154 H154       -1.6552  -17.8935  -43.9153 H         1 UNK         0.3000 
    155 H155       -0.3446  -17.5056  -46.2117 H         1 UNK         0.0600 
    156 H156       -1.3229  -17.2282  -48.5348 H         1 UNK         0.0600 
    157 H157       -2.2643  -18.6934  -48.2528 H         1 UNK         0.0600 
    158 H158       -0.5116  -18.7418  -48.2278 H         1 UNK         0.0600 
    159 H159       -1.8354  -16.0246  -45.5180 H         1 UNK         0.3000 
    160 H160       -4.0987  -14.6455  -46.5765 H         1 UNK         0.0600 
    161 H161       -6.0902  -16.3584  -45.0094 H         1 UNK         0.0600 
    162 H162       -6.2580  -15.7860  -46.6606 H         1 UNK         0.0600 
    163 H163       -6.2775  -14.6348  -45.3352 H         1 UNK         0.0600 
    164 H164       -3.1593  -14.0001  -44.7234 H         1 UNK         0.3000 
    165 H165       -3.6795  -14.0458  -41.6899 H         1 UNK         0.0600 
    166 H166       -1.5316  -16.2276  -41.7836 H         1 UNK         0.0600 
    167 H167       -1.7026  -15.0318  -40.5019 H         1 UNK         0.0600 
    168 H168       -2.9661  -16.2208  -40.7606 H         1 UNK         0.0600 
    169 H169       -1.1402  -14.2109  -43.2509 H         1 UNK         0.3000 
    170 H170       -1.3385  -10.8875  -44.2824 H         1 UNK         0.0600 
    171 H171       -0.4024  -10.3899  -42.0165 H         1 UNK         0.0600 
    172 H172        0.6075  -11.8280  -42.1054 H         1 UNK         0.0600 
    173 H173        0.8709  -10.4869  -43.2215 H         1 UNK         0.0600 
    174 H174        0.8237  -12.7263  -44.4028 H         1 UNK         0.3000 
    175 H175       -0.3479  -14.8187  -47.0186 H         1 UNK         0.0600 
    176 H176        1.7300  -12.5704  -47.0602 H         1 UNK         0.0600 
    177 H177        1.6164  -13.9057  -48.2030 H         1 UNK         0.0600 
    178 H178        0.3588  -12.6921  -48.1558 H         1 UNK         0.0600 
    179 H179        2.1919  -14.8299  -45.9449 H         1 UNK         0.3000 
    180 H180        2.6047  -15.4387  -43.3635 H         1 UNK         0.0600 
    181 H181        0.8813  -17.9337  -42.9628 H         1 UNK         0.0600 
    182 H182        0.9998  -16.5441  -41.8997 H         1 UNK         0.0600 
    183 H183        2.3846  -17.6040  -42.1033 H         1 UNK         0.0600 
    184 H184        3.8580  -16.4968  -44.8158 H         1 UNK         0.3000 
    185 H185        4.9410  -18.3451  -45.4687 H         1 UNK         0.0600 
    186 H186        5.0839  -20.4534  -46.7000 H         1 UNK         0.0600 
    187 H187        4.0701  -20.7028  -45.2926 H         1 UNK         0.0600 
    188 H188        3.3444  -20.5391  -46.8861 H         1 UNK         0.0600 
    189 H189        3.1202  -17.7724  -47.6971 H         1 UNK         0.3000 
    190 H190       -1.4213  -22.0111  -46.1400 H         1 UNK         0.3000 
    191 H191       -2.8889  -23.9534  -47.4851 H         1 UNK         0.0600 
    192 H192       -3.8540  -22.0266  -46.2275 H         1 UNK         0.0600 
    193 H193       -4.6030  -23.5383  -45.7421 H         1 UNK         0.0600 
    194 H194       -3.4047  -22.7824  -44.6996 H         1 UNK         0.0600 
    195 H195       -0.8485  -24.3862  -44.6422 H         1 UNK         0.3000 
    196 H196       -1.7949  -27.1334  -44.1311 H         1 UNK         0.0600 
    197 H197       -0.0668  -27.0994  -42.3557 H         1 UNK         0.0600 
    198 H198       -1.1273  -25.7052  -42.2164 H         1 UNK         0.0600 
    199 H199        0.4914  -25.5183  -42.8850 H         1 UNK         0.0600 
    200 H200        1.1307  -25.4546  -45.3882 H         1 UNK         0.3000 
    201 H201        2.6257  -27.8469  -45.7675 H         1 UNK         0.0600 
    202 H202        3.6562  -25.6506  -45.2878 H         1 UNK         0.0600 
    203 H203        3.0832  -25.0117  -46.8268 H         1 UNK         0.0600 
    204 H204        4.2845  -26.2970  -46.7962 H         1 UNK         0.0600 
    205 H205        0.8045  -25.8116  -48.1039 H         1 UNK         0.3000 
    206 H206        1.3894  -27.7559  -50.3051 H         1 UNK         0.0600 
    207 H207        2.9477  -25.7956  -50.3749 H         1 UNK         0.0600 
    208 H208        1.8398  -25.7715  -51.7369 H         1 UNK         0.0600 
    209 H209        1.5693  -24.6962  -50.3700 H         1 UNK         0.0600 
    210 H210       -1.0353  -26.4186  -48.5254 H         1 UNK         0.3000 
    211 H211       -3.2370  -26.3181  -48.6668 H         1 UNK         0.0600 
    212 H212       -3.2192  -27.4117  -51.5198 H         1 UNK         0.0600 
    213 H213       -4.5415  -27.4404  -50.3641 H         1 UNK         0.0600 
    214 H214       -3.1241  -28.4293  -50.0837 H         1 UNK         0.0600 
    215 H215       -5.0562  -25.4590  -50.4507 H         1 UNK         0.3000 
    216 H216       -6.0619  -23.6651  -51.2166 H         1 UNK         0.0600 
    217 H217       -4.3289  -23.7422  -53.0771 H         1 UNK         0.0600 
    218 H218       -3.3874  -22.5391  -52.2011 H         1 UNK         0.0600 
    219 H219       -4.9964  -22.1482  -52.7960 H         1 UNK         0.0600 
    220 H220       -5.1087  -20.8710  -51.2669 H         1 UNK         0.3000 
    221 H221       -4.2698  -19.9831  -48.7164 H         1 UNK         0.0600 
    222 H222       -7.2680  -19.6932  -49.3936 H         1 UNK         0.0600 
    223 H223       -6.6169  -20.6027  -48.0306 H         1 UNK         0.0600 
    224 H224       -6.4423  -18.8593  -48.0811 H         1 UNK         0.0600 
    225 H225       -4.3523  -17.5325  -48.7858 H         1 UNK         0.3000 
    226 H226       -3.2176  -16.5791  -51.1366 H         1 UNK         0.0600 
    227 H227       -3.4255  -14.3172  -50.0877 H         1 UNK         0.0600 
    228 H228       -4.5383  -14.9735  -48.8956 H         1 UNK         0.0600 
    229 H229       -2.8556  -15.5118  -48.9413 H         1 UNK         0.0600 
    230 H230       -6.6231  -16.5351  -50.2902 H         1 UNK         0.3000 
    231 H231       -7.6100  -14.6679  -52.1682 H         1 UNK         0.0600 
    232 H232       -9.7900  -15.8189  -51.7246 H         1 UNK         0.0600 
    233 H233       -8.9167  -15.5081  -50.2334 H         1 UNK         0.0600 
    234 H234       -8.9410  -17.1334  -50.9197 H         1 UNK         0.0600 
    235 H235       -6.4277  -17.9372  -52.7010 H         1 UNK         0.3000 
    236 H236       -7.7940  -18.3176  -55.2580 H         1 UNK         0.0600 
    237 H237       -7.1760  -20.2355  -53.7605 H         1 UNK         0.0600 
    238 H238       -6.4434  -20.3746  -55.3518 H         1 UNK         0.0600 
    239 H239       -5.4695  -19.8537  -53.9866 H         1 UNK         0.0600 
    240 H240       -4.9597  -16.6219  -54.1889 H         1 UNK         0.3000 
    241 H241       -3.7668  -16.5953  -56.9318 H         1 UNK         0.0600 
    242 H242       -4.7528  -13.0066  -55.1779 H         1 UNK         0.3800 
    243 H243       -4.8297  -14.4467  -54.1892 H         1 UNK         0.3800 
    244 H244       -2.3626  -16.0891  -54.2673 H         1 UNK         0.0800 
    245 H245       -1.6272  -15.9832  -55.8428 H         1 UNK         0.0800 
    246 H246       -3.2761  -18.0483  -53.2290 H         1 UNK         0.0800 
    247 H247       -3.0416  -19.7171  -53.6607 H         1 UNK         0.0800 
@<TRIPOS>BOND
     1    1    2 1    
     2    1  127 1    
     3    1  128 1    
     4    1  129 1    
     5    2    3 2    
     6    2    4 am   BACKBONE|DICT|INTERRES
     7    4    5 1    
     8    4  130 1    
     9    5    6 1    
    10    5   65 1    
    11    5  131 1    
    12    6    7 1    
    13    6  132 1    
    14    6  133 1    
    15    7    8 1    
    16    8    9 1    
    17    8  134 1    
    18    8  135 1    
    19    9   10 ar   
    20    9   14 ar   
    21   10   11 ar   
    22   10  136 1    
    23   11   12 ar   
    24   11  126 1    
    25   12   13 ar   
    26   12  137 1    
    27   13   14 ar   
    28   13   15 1    
    29   14  138 1    
    30   15   16 1    
    31   15  139 1    
    32   15  140 1    
    33   16   17 1    
    34   17   18 1    
    35   17  141 1    
    36   17  142 1    
    37   18   19 1    
    38   18   67 1    
    39   18  143 1    
    40   19   20 am   BACKBONE|DICT|INTERRES
    41   19  144 1    
    42   20   21 2    
    43   20   22 1    
    44   22   23 1    
    45   22   24 1    
    46   22  145 1    
    47   23  146 1    
    48   23  147 1    
    49   23  148 1    
    50   24   25 am   BACKBONE|DICT|INTERRES
    51   24  149 1    
    52   25   26 2    
    53   25   27 1    
    54   27   28 1    
    55   27   29 1    
    56   27  150 1    
    57   28  151 1    
    58   28  152 1    
    59   28  153 1    
    60   29   30 am   BACKBONE|DICT|INTERRES
    61   29  154 1    
    62   30   31 2    
    63   30   32 1    
    64   32   33 1    
    65   32   34 1    
    66   32  155 1    
    67   33  156 1    
    68   33  157 1    
    69   33  158 1    
    70   34   35 am   BACKBONE|DICT|INTERRES
    71   34  159 1    
    72   35   36 2    
    73   35   37 1    
    74   37   38 1    
    75   37   39 1    
    76   37  160 1    
    77   38  161 1    
    78   38  162 1    
    79   38  163 1    
    80   39   40 am   BACKBONE|DICT|INTERRES
    81   39  164 1    
    82   40   41 2    
    83   40   42 1    
    84   42   43 1    
    85   42   44 1    
    86   42  165 1    
    87   43  166 1    
    88   43  167 1    
    89   43  168 1    
    90   44   45 am   BACKBONE|DICT|INTERRES
    91   44  169 1    
    92   45   46 2    
    93   45   47 1    
    94   47   48 1    
    95   47   49 1    
    96   47  170 1    
    97   48  171 1    
    98   48  172 1    
    99   48  173 1    
   100   49   50 am   BACKBONE|DICT|INTERRES
   101   49  174 1    
   102   50   51 2    
   103   50   52 1    
   104   52   53 1    
   105   52   54 1    
   106   52  175 1    
   107   53  176 1    
   108   53  177 1    
   109   53  178 1    
   110   54   55 am   BACKBONE|DICT|INTERRES
   111   54  179 1    
   112   55   56 2    
   113   55   57 1    
   114   57   58 1    
   115   57   59 1    
   116   57  180 1    
   117   58  181 1    
   118   58  182 1    
   119   58  183 1    
   120   59   60 am   BACKBONE|DICT|INTERRES
   121   59  184 1    
   122   60   61 2    
   123   60   62 1    
   124   62   63 1    
   125   62   64 1    
   126   62  185 1    
   127   63  186 1    
   128   63  187 1    
   129   63  188 1    
   130   64   65 am   BACKBONE|DICT|INTERRES
   131   64  189 1    
   132   65   66 2    
   133   67   68 2    
   134   67   69 am   BACKBONE|DICT|INTERRES
   135   69   70 1    
   136   69  190 1    
   137   70   71 1    
   138   70   72 1    
   139   70  191 1    
   140   71  192 1    
   141   71  193 1    
   142   71  194 1    
   143   72   73 2    
   144   72   74 am   BACKBONE|DICT|INTERRES
   145   74   75 1    
   146   74  195 1    
   147   75   76 1    
   148   75   77 1    
   149   75  196 1    
   150   76  197 1    
   151   76  198 1    
   152   76  199 1    
   153   77   78 2    
   154   77   79 am   BACKBONE|DICT|INTERRES
   155   79   80 1    
   156   79  200 1    
   157   80   81 1    
   158   80   82 1    
   159   80  201 1    
   160   81  202 1    
   161   81  203 1    
   162   81  204 1    
   163   82   83 2    
   164   82   84 am   BACKBONE|DICT|INTERRES
   165   84   85 1    
   166   84  205 1    
   167   85   86 1    
   168   85   87 1    
   169   85  206 1    
   170   86  207 1    
   171   86  208 1    
   172   86  209 1    
   173   87   88 2    
   174   87   89 am   BACKBONE|DICT|INTERRES
   175   89   90 1    
   176   89  210 1    
   177   90   91 1    
   178   90   92 1    
   179   90  211 1    
   180   91  212 1    
   181   91  213 1    
   182   91  214 1    
   183   92   93 2    
   184   92   94 am   BACKBONE|DICT|INTERRES
   185   94   95 1    
   186   94  215 1    
   187   95   96 1    
   188   95   97 1    
   189   95  216 1    
   190   96  217 1    
   191   96  218 1    
   192   96  219 1    
   193   97   98 2    
   194   97   99 am   BACKBONE|DICT|INTERRES
   195   99  100 1    
   196   99  220 1    
   197  100  101 1    
   198  100  102 1    
   199  100  221 1    
   200  101  222 1    
   201  101  223 1    
   202  101  224 1    
   203  102  103 2    
   204  102  104 am   BACKBONE|DICT|INTERRES
   205  104  105 1    
   206  104  225 1    
   207  105  106 1    
   208  105  107 1    
   209  105  226 1    
   210  106  227 1    
   211  106  228 1    
   212  106  229 1    
   213  107  108 2    
   214  107  109 am   BACKBONE|DICT|INTERRES
   215  109  110 1    
   216  109  230 1    
   217  110  111 1    
   218  110  112 1    
   219  110  231 1    
   220  111  232 1    
   221  111  233 1    
   222  111  234 1    
   223  112  113 2    
   224  112  114 am   BACKBONE|DICT|INTERRES
   225  114  115 1    
   226  114  235 1    
   227  115  116 1    
   228  115  117 1    
   229  115  236 1    
   230  116  237 1    
   231  116  238 1    
   232  116  239 1    
   233  117  118 2    
   234  117  119 am   BACKBONE|DICT|INTERRES
   235  119  120 1    
   236  119  240 1    
   237  120  121 1    
   238  120  124 1    
   239  120  241 1    
   240  121  122 am   BACKBONE|DICT|INTERRES
   241  121  123 2    
   242  122  242 1    
   243  122  243 1    
   244  124  125 1    
   245  124  244 1    
   246  124  245 1    
   247  125  126 1    
   248  126  246 1    
   249  126  247 1    
@<TRIPOS>SUBSTRUCTURE
     1 UNK         1 GROUP             0       ****    0 ROOT    
