@<TRIPOS>MOLECULE
3R540
247   249    1
SMALL
USER_CHARGES


@<TRIPOS>ATOM
      1 CA         -1.6841  -14.0163  -50.4061 C.3       0 UNK        -0.1800 
      2 C          -1.3332  -13.4393  -49.0422 C.2       0 UNK         0.5000 
      3 O          -2.0613  -12.5954  -48.5207 O.2       0 UNK        -0.5000 
      4 N          -0.2339  -13.9124  -48.4458 N.am      1 UNK        -0.5000 
      5 CA          0.3050  -13.5176  -47.1367 C.3       1 UNK         0.1400 
      6 C6          1.8358  -13.7714  -47.0611 C.3       23 UNK        -0.0398 
      7 S7          2.3092  -15.4945  -47.4436 S.3       23 UNK        -0.2404 
      8 C8          2.9553  -15.3360  -49.1355 C.3       23 UNK        -0.0205 
      9 C9          2.9158  -16.6611  -49.8840 C.ar      23 UNK        -0.0193 
     10 C10         2.1421  -16.7928  -51.0413 C.ar      23 UNK        -0.1150 
     11 C11         2.1591  -17.9822  -51.7760 C.ar      23 UNK        -0.0193 
     12 C12         2.9354  -19.0554  -51.3302 C.ar      23 UNK        -0.1150 
     13 C13         3.7028  -18.9421  -50.1672 C.ar      23 UNK        -0.0193 
     14 C14         3.6911  -17.7412  -49.4510 C.ar      23 UNK        -0.1150 
     15 C15         4.5864  -20.0968  -49.7147 C.3       23 UNK        -0.0205 
     16 S16         3.6328  -21.5466  -49.1637 S.3       23 UNK        -0.2404 
     17 C17         2.8173  -20.9093  -47.6622 C.3       23 UNK        -0.0398 
     18 CA          1.3381  -21.3528  -47.5645 C.3       11 UNK         0.1400 
     19 N           0.8523  -21.3030  -46.1851 N.am      11 UNK        -0.5000 
     20 C          -0.1612  -22.0363  -45.7060 C.2       10 UNK         0.5000 
     21 O          -0.7388  -22.9061  -46.3556 O.2       10 UNK        -0.5000 
     22 CA         -0.6211  -21.7511  -44.2626 C.3       10 UNK         0.1400 
     23 CB          0.0370  -22.7418  -43.2909 C.3       10 UNK        -0.1800 
     24 N          -0.3464  -20.3818  -43.8212 N.am      10 UNK        -0.5000 
     25 C          -0.9244  -19.2882  -44.3378 C.2       9 UNK         0.5000 
     26 O          -1.8001  -19.3293  -45.1997 O.2       9 UNK        -0.5000 
     27 CA         -0.3878  -17.9216  -43.8744 C.3       9 UNK         0.1400 
     28 CB         -1.0758  -17.4633  -42.5819 C.3       9 UNK        -0.1800 
     29 N           1.0619  -17.9036  -43.6912 N.am      9 UNK        -0.5000 
     30 C           1.9561  -18.1375  -44.6603 C.2       8 UNK         0.5000 
     31 O           1.6470  -18.4343  -45.8136 O.2       8 UNK        -0.5000 
     32 CA          3.4369  -18.1114  -44.2514 C.3       8 UNK         0.1400 
     33 CB          3.9534  -16.6738  -44.0867 C.3       8 UNK        -0.1800 
     34 N           3.6417  -18.8457  -43.0052 N.am      8 UNK        -0.5000 
     35 C           3.7012  -20.1805  -42.9152 C.2       7 UNK         0.5000 
     36 O           3.6522  -20.9344  -43.8877 O.2       7 UNK        -0.5000 
     37 CA          3.8170  -20.7735  -41.4972 C.3       7 UNK         0.1400 
     38 CB          5.2903  -20.8766  -41.0751 C.3       7 UNK        -0.1800 
     39 N           3.0794  -20.0104  -40.4868 N.am      7 UNK        -0.5000 
     40 C           1.7436  -19.9153  -40.4421 C.2       6 UNK         0.5000 
     41 O           0.9940  -20.4576  -41.2521 O.2       6 UNK        -0.5000 
     42 CA          1.1402  -19.0326  -39.3333 C.3       6 UNK         0.1400 
     43 CB          1.0192  -19.8262  -38.0236 C.3       6 UNK        -0.1800 
     44 N           1.8542  -17.7767  -39.0744 N.am      6 UNK        -0.5000 
     45 C           2.1837  -16.8598  -39.9940 C.2       5 UNK         0.5000 
     46 O           2.0707  -17.0339  -41.2085 O.2       5 UNK        -0.5000 
     47 CA          2.7669  -15.5354  -39.4657 C.3       5 UNK         0.1400 
     48 CB          4.2779  -15.6810  -39.2280 C.3       5 UNK        -0.1800 
     49 N           2.5439  -14.4193  -40.3887 N.am      5 UNK        -0.5000 
     50 C           1.3470  -13.9621  -40.7845 C.2       4 UNK         0.5000 
     51 O           0.2780  -14.3761  -40.3277 O.2       4 UNK        -0.5000 
     52 CA          1.3671  -12.8507  -41.8576 C.3       4 UNK         0.1400 
     53 CB          2.3698  -13.1492  -42.9888 C.3       4 UNK        -0.1800 
     54 N           0.0454  -12.6319  -42.4492 N.am      4 UNK        -0.5000 
     55 C          -0.9190  -11.8736  -41.9067 C.2       3 UNK         0.5000 
     56 O          -0.7732  -11.2452  -40.8565 O.2       3 UNK        -0.5000 
     57 CA         -2.2619  -11.7568  -42.6605 C.3       3 UNK         0.1400 
     58 CB         -2.4717  -10.3203  -43.1678 C.3       3 UNK        -0.1800 
     59 N          -2.3740  -12.6660  -43.8013 N.am      3 UNK        -0.5000 
     60 C          -2.7602  -13.9469  -43.7358 C.2       2 UNK         0.5000 
     61 O          -3.1219  -14.4996  -42.6974 O.2       2 UNK        -0.5000 
     62 CA         -2.7276  -14.7503  -45.0534 C.3       2 UNK         0.1400 
     63 CB         -4.1325  -14.8553  -45.6644 C.3       2 UNK        -0.1800 
     64 N          -1.8130  -14.2064  -46.0630 N.am      2 UNK        -0.5000 
     65 C          -0.4813  -14.1226  -45.9436 C.2       1 UNK         0.5000 
     66 O           0.1104  -14.4783  -44.9254 O.2       1 UNK        -0.5000 
     67 C           0.4095  -20.5438  -48.4953 C.2       11 UNK         0.5000 
     68 O           0.0748  -21.0171  -49.5802 O.2       11 UNK        -0.5000 
     69 N          -0.0479  -19.3714  -48.0319 N.am      12 UNK        -0.5000 
     70 CA         -1.0264  -18.5330  -48.7292 C.3       12 UNK         0.1400 
     71 CB         -1.1641  -17.1947  -47.9931 C.3       12 UNK        -0.1800 
     72 C          -2.4094  -19.1976  -48.8670 C.2       12 UNK         0.5000 
     73 O          -3.0822  -18.9918  -49.8752 O.2       12 UNK        -0.5000 
     74 N          -2.8015  -19.9785  -47.8525 N.am      13 UNK        -0.5000 
     75 CA         -4.0684  -20.7045  -47.7650 C.3       13 UNK         0.1400 
     76 CB         -4.6496  -20.4986  -46.3553 C.3       13 UNK        -0.1800 
     77 C          -3.9176  -22.2042  -48.1003 C.2       13 UNK         0.5000 
     78 O          -4.7641  -22.9986  -47.6837 O.2       13 UNK        -0.5000 
     79 N          -2.8461  -22.5734  -48.8209 N.am      14 UNK        -0.5000 
     80 CA         -2.4407  -23.9500  -49.1255 C.3       14 UNK         0.1400 
     81 CB         -1.2350  -23.9391  -50.0759 C.3       14 UNK        -0.1800 
     82 C          -3.5626  -24.8338  -49.6987 C.2       14 UNK         0.5000 
     83 O          -4.2526  -24.4253  -50.6374 O.2       14 UNK        -0.5000 
     84 N          -3.7276  -26.0185  -49.0901 N.am      15 UNK        -0.5000 
     85 CA         -4.6846  -27.0861  -49.4166 C.3       15 UNK         0.1400 
     86 CB         -4.3369  -27.6949  -50.7914 C.3       15 UNK        -0.1800 
     87 C          -6.1735  -26.6773  -49.3370 C.2       15 UNK         0.5000 
     88 O          -7.0247  -27.4139  -49.8362 O.2       15 UNK        -0.5000 
     89 N          -6.4584  -25.4956  -48.7648 N.am      16 UNK        -0.5000 
     90 CA         -7.7248  -24.7516  -48.8227 C.3       16 UNK         0.1400 
     91 CB         -8.8726  -25.5309  -48.1485 C.3       16 UNK        -0.1800 
     92 C          -8.0944  -24.2682  -50.2466 C.2       16 UNK         0.5000 
     93 O          -9.1878  -23.7365  -50.4440 O.2       16 UNK        -0.5000 
     94 N          -7.1732  -24.4336  -51.2052 N.am      17 UNK        -0.5000 
     95 CA         -7.2620  -23.9440  -52.5772 C.3       17 UNK         0.1400 
     96 CB         -6.4499  -24.8809  -53.4834 C.3       17 UNK        -0.1800 
     97 C          -6.7538  -22.4959  -52.6703 C.2       17 UNK         0.5000 
     98 O          -7.2657  -21.7261  -53.4843 O.2       17 UNK        -0.5000 
     99 N          -5.7876  -22.1471  -51.8057 N.am      18 UNK        -0.5000 
    100 CA        -5.2642  -20.8060  -51.5467 C.3       18 UNK         0.1400 
    101 CB        -6.3337  -19.9572  -50.8225 C.3       18 UNK        -0.1800 
    102 C         -4.7048  -20.1474  -52.8203 C.2       18 UNK         0.5000 
    103 O         -3.6395  -20.5494  -53.2871 O.2       18 UNK        -0.5000 
    104 N         -5.4511  -19.1986  -53.4015 N.am      19 UNK        -0.5000 
    105 CA        -5.1399  -18.5395  -54.6707 C.3       19 UNK         0.1400 
    106 CB        -6.2239  -17.4959  -54.9762 C.3       19 UNK        -0.1800 
    107 C         -4.9840  -19.5181  -55.8516 C.2       19 UNK         0.5000 
    108 O         -4.1519  -19.2771  -56.7256 O.2       19 UNK        -0.5000 
    109 N         -5.7424  -20.6238  -55.8376 N.am      20 UNK        -0.5000 
    110 CA        -5.6481  -21.6894  -56.8362 C.3       20 UNK         0.1400 
    111 CB        -6.9625  -22.4842  -56.8614 C.3       20 UNK        -0.1800 
    112 C         -4.4296  -22.6140  -56.6311 C.2       20 UNK         0.5000 
    113 O         -4.0278  -23.2817  -57.5847 O.2       20 UNK        -0.5000 
    114 N         -3.8492  -22.6317  -55.4211 N.am      21 UNK        -0.5000 
    115 CA        -2.5768  -23.2997  -55.1377 C.3       21 UNK         0.1400 
    116 CB        -2.5217  -23.7516  -53.6691 C.3       21 UNK        -0.1800 
    117 C         -1.3892  -22.3837  -55.4806 C.2       21 UNK         0.5000 
    118 O         -0.4231  -22.8487  -56.0869 O.2       21 UNK        -0.5000 
    119 N         -1.4910  -21.1009  -55.1060 N.am      22 UNK        -0.5000 
    120 CA        -0.5210  -20.0477  -55.4438 C.3       22 UNK         0.1400 
    121 C         -0.4229  -19.7496  -56.9675 C.2       22 UNK         0.5000 
    122 N         -1.5265  -19.6990  -57.7020 N.am      22 UNK        -0.7600 
    123 O          0.6724  -19.5626  -57.4902 O.2       22 UNK        -0.5000 
    124 C124       -0.7890  -18.7435  -54.6495 C.3       23 UNK        -0.0398 
    125 S125       -0.2338  -18.8503  -52.9138 S.3       23 UNK        -0.2404 
    126 C126        1.4043  -18.0788  -53.0921 C.3       23 UNK        -0.0205 
    127 H127       -2.6725  -14.4749  -50.3761 H         1 UNK         0.0600 
    128 H128       -0.9679  -14.7756  -50.7219 H         1 UNK         0.0600 
    129 H129       -1.6958  -13.2257  -51.1563 H         1 UNK         0.0600 
    130 H130        0.2931  -14.6416  -48.9036 H         1 UNK         0.3000 
    131 H131        0.1687  -12.4383  -47.0433 H         1 UNK         0.0600 
    132 H132        2.3485  -13.1003  -47.7512 H         1 UNK         0.0800 
    133 H133        2.2281  -13.5153  -46.0760 H         1 UNK         0.0800 
    134 H134        3.9839  -14.9754  -49.0923 H         1 UNK         0.0800 
    135 H135        2.3874  -14.5792  -49.6782 H         1 UNK         0.0800 
    136 H136        1.5529  -15.9579  -51.3937 H         1 UNK         0.1150 
    137 H137        2.9565  -19.9752  -51.8980 H         1 UNK         0.1150 
    138 H138        4.2946  -17.6375  -48.5600 H         1 UNK         0.1150 
    139 H139        5.2554  -19.7843  -48.9113 H         1 UNK         0.0800 
    140 H140        5.2280  -20.3953  -50.5448 H         1 UNK         0.0800 
    141 H141        2.9082  -19.8243  -47.6075 H         1 UNK         0.0800 
    142 H142        3.3785  -21.2961  -46.8102 H         1 UNK         0.0800 
    143 H143        1.2868  -22.3958  -47.8856 H         1 UNK         0.0600 
    144 H144        1.2484  -20.5791  -45.5996 H         1 UNK         0.3000 
    145 H145       -1.7016  -21.9053  -44.2279 H         1 UNK         0.0600 
    146 H146       -0.3621  -22.6281  -42.2829 H         1 UNK         0.0600 
    147 H147       -0.1457  -23.7728  -43.5966 H         1 UNK         0.0600 
    148 H148        1.1173  -22.5980  -43.2428 H         1 UNK         0.0600 
    149 H149        0.3222  -20.2760  -43.0631 H         1 UNK         0.3000 
    150 H150       -0.6147  -17.1994  -44.6594 H         1 UNK         0.0600 
    151 H151       -0.8612  -18.1379  -41.7534 H         1 UNK         0.0600 
    152 H152       -2.1587  -17.4262  -42.7066 H         1 UNK         0.0600 
    153 H153       -0.7472  -16.4635  -42.2951 H         1 UNK         0.0600 
    154 H154        1.4036  -17.6503  -42.7658 H         1 UNK         0.3000 
    155 H155        4.0143  -18.5876  -45.0469 H         1 UNK         0.0600 
    156 H156        3.4332  -16.1441  -43.2896 H         1 UNK         0.0600 
    157 H157        3.8179  -16.1007  -45.0033 H         1 UNK         0.0600 
    158 H158        5.0180  -16.6638  -43.8532 H         1 UNK         0.0600 
    159 H159        3.5913  -18.3040  -42.1525 H         1 UNK         0.3000 
    160 H160        3.4003  -21.7827  -41.5284 H         1 UNK         0.0600 
    161 H161        5.7576  -19.8939  -40.9996 H         1 UNK         0.0600 
    162 H162        5.8636  -21.4584  -41.7981 H         1 UNK         0.0600 
    163 H163        5.3902  -21.3718  -40.1090 H         1 UNK         0.0600 
    164 H164        3.6227  -19.5208  -39.7912 H         1 UNK         0.3000 
    165 H165        0.1324  -18.7623  -39.6528 H         1 UNK         0.0600 
    166 H166        0.4759  -19.2598  -37.2669 H         1 UNK         0.0600 
    167 H167        1.9979  -20.0808  -37.6151 H         1 UNK         0.0600 
    168 H168        0.4757  -20.7591  -38.1800 H         1 UNK         0.0600 
    169 H169        2.0135  -17.5569  -38.1018 H         1 UNK         0.3000 
    170 H170        2.2785  -15.2925  -38.5200 H         1 UNK         0.0600 
    171 H171        4.4897  -16.4814  -38.5179 H         1 UNK         0.0600 
    172 H172        4.8094  -15.9134  -40.1520 H         1 UNK         0.0600 
    173 H173        4.7033  -14.7652  -38.8170 H         1 UNK         0.0600 
    174 H174        3.3691  -14.0383  -40.8260 H         1 UNK         0.3000 
    175 H175        1.6873  -11.9307  -41.3644 H         1 UNK         0.0600 
    176 H176        2.1949  -14.1303  -43.4297 H         1 UNK         0.0600 
    177 H177        2.2983  -12.4077  -43.7845 H         1 UNK         0.0600 
    178 H178        3.3989  -13.1292  -42.6299 H         1 UNK         0.0600 
    179 H179       -0.1616  -13.1746  -43.2792 H         1 UNK         0.3000 
    180 H180       -3.0557  -11.9825  -41.9453 H         1 UNK         0.0600 
    181 H181       -1.7004  -10.0291  -43.8819 H         1 UNK         0.0600 
    182 H182       -2.4439   -9.6049  -42.3448 H         1 UNK         0.0600 
    183 H183       -3.4404  -10.2118  -43.6559 H         1 UNK         0.0600 
    184 H184       -2.1037  -12.2969  -44.7009 H         1 UNK         0.3000 
    185 H185       -2.3943  -15.7588  -44.8080 H         1 UNK         0.0600 
    186 H186       -4.1319  -15.5004  -46.5434 H         1 UNK         0.0600 
    187 H187       -4.8391  -15.2812  -44.9508 H         1 UNK         0.0600 
    188 H188       -4.5144  -13.8784  -45.9635 H         1 UNK         0.0600 
    189 H189       -2.2292  -13.8332  -46.9089 H         1 UNK         0.3000 
    190 H190        0.3171  -19.0210  -47.1514 H         1 UNK         0.3000 
    191 H191       -0.6437  -18.3373  -49.7333 H         1 UNK         0.0600 
    192 H192       -1.8370  -16.5231  -48.5266 H         1 UNK         0.0600 
    193 H193       -0.2007  -16.6993  -47.9096 H         1 UNK         0.0600 
    194 H194       -1.5609  -17.3220  -46.9861 H         1 UNK         0.0600 
    195 H195       -2.2125  -20.0148  -47.0262 H         1 UNK         0.3000 
    196 H196       -4.7800  -20.2857  -48.4752 H         1 UNK         0.0600 
    197 H197       -4.0257  -20.9670  -45.5930 H         1 UNK         0.0600 
    198 H198       -4.7323  -19.4387  -46.1135 H         1 UNK         0.0600 
    199 H199       -5.6491  -20.9272  -46.2728 H         1 UNK         0.0600 
    200 H200       -2.2010  -21.8517  -49.1123 H         1 UNK         0.3000 
    201 H201       -2.1141  -24.3924  -48.1827 H         1 UNK         0.0600 
    202 H202       -1.4047  -23.2889  -50.9341 H         1 UNK         0.0600 
    203 H203       -1.0155  -24.9379  -50.4558 H         1 UNK         0.0600 
    204 H204       -0.3389  -23.5929  -49.5624 H         1 UNK         0.0600 
    205 H205       -3.1232  -26.2268  -48.3072 H         1 UNK         0.3000 
    206 H206       -4.5453  -27.8627  -48.6634 H         1 UNK         0.0600 
    207 H207       -3.2904  -27.9963  -50.8361 H         1 UNK         0.0600 
    208 H208       -4.9356  -28.5839  -50.9929 H         1 UNK         0.0600 
    209 H209       -4.5169  -26.9896  -51.6035 H         1 UNK         0.0600 
    210 H210       -5.6822  -24.9641  -48.3873 H         1 UNK         0.3000 
    211 H211       -7.5577  -23.8460  -48.2377 H         1 UNK         0.0600 
    212 H212       -9.7552  -24.9007  -48.0336 H         1 UNK         0.0600 
    213 H213       -8.5873  -25.8718  -47.1534 H         1 UNK         0.0600 
    214 H214       -9.1727  -26.4023  -48.7306 H         1 UNK         0.0600 
    215 H215       -6.2783  -24.8243  -50.9354 H         1 UNK         0.3000 
    216 H216       -8.3026  -23.9588  -52.9076 H         1 UNK         0.0600 
    217 H217       -5.4243  -24.9835  -53.1334 H         1 UNK         0.0600 
    218 H218       -6.4115  -24.5188  -54.5096 H         1 UNK         0.0600 
    219 H219       -6.8901  -25.8778  -53.5068 H         1 UNK         0.0600 
    220 H220       -5.3630  -22.8901  -51.2590 H         1 UNK         0.3000 
    221 H221       -4.4185  -20.9421  -50.8745 H         1 UNK         0.0600 
    222 H222       -6.6542  -20.4402  -49.8996 H         1 UNK         0.0600 
    223 H223       -7.2266  -19.8046  -51.4295 H         1 UNK         0.0600 
    224 H224       -5.9386  -18.9762  -50.5547 H         1 UNK         0.0600 
    225 H225       -6.3330  -18.9587  -52.9731 H         1 UNK         0.3000 
    226 H226       -4.1900  -18.0174  -54.5459 H         1 UNK         0.0600 
    227 H227       -7.2077  -17.9559  -55.0786 H         1 UNK         0.0600 
    228 H228       -6.2836  -16.7456  -54.1876 H         1 UNK         0.0600 
    229 H229       -6.0084  -16.9702  -55.9075 H         1 UNK         0.0600 
    230 H230       -6.3773  -20.7803  -55.0605 H         1 UNK         0.3000 
    231 H231       -5.5298  -21.2289  -57.8196 H         1 UNK         0.0600 
    232 H232       -7.2005  -22.9101  -55.8890 H         1 UNK         0.0600 
    233 H233       -6.9130  -23.3049  -57.5782 H         1 UNK         0.0600 
    234 H234       -7.7971  -21.8477  -57.1555 H         1 UNK         0.0600 
    235 H235       -4.1943  -22.0072  -54.7034 H         1 UNK         0.3000 
    236 H236       -2.4910  -24.1962  -55.7556 H         1 UNK         0.0600 
    237 H237       -3.2534  -24.5316  -53.4695 H         1 UNK         0.0600 
    238 H238       -1.5429  -24.1662  -53.4253 H         1 UNK         0.0600 
    239 H239       -2.7098  -22.9325  -52.9762 H         1 UNK         0.0600 
    240 H240       -2.2883  -20.8189  -54.5419 H         1 UNK         0.3000 
    241 H241        0.4630  -20.4193  -55.1503 H         1 UNK         0.0600 
    242 H242       -1.4496  -19.5109  -58.6885 H         1 UNK         0.3800 
    243 H243       -2.4497  -19.7433  -57.2773 H         1 UNK         0.3800 
    244 H244       -1.8528  -18.5054  -54.6608 H         1 UNK         0.0800 
    245 H245       -0.2959  -17.8876  -55.1142 H         1 UNK         0.0800 
    246 H246        1.2887  -17.0825  -53.5220 H         1 UNK         0.0800 
    247 H247        1.9941  -18.6525  -53.8088 H         1 UNK         0.0800 
@<TRIPOS>BOND
     1    1    2 1    
     2    1  127 1    
     3    1  128 1    
     4    1  129 1    
     5    2    3 2    
     6    2    4 am   BACKBONE|DICT|INTERRES
     7    4    5 1    
     8    4  130 1    
     9    5    6 1    
    10    5   65 1    
    11    5  131 1    
    12    6    7 1    
    13    6  132 1    
    14    6  133 1    
    15    7    8 1    
    16    8    9 1    
    17    8  134 1    
    18    8  135 1    
    19    9   10 ar   
    20    9   14 ar   
    21   10   11 ar   
    22   10  136 1    
    23   11   12 ar   
    24   11  126 1    
    25   12   13 ar   
    26   12  137 1    
    27   13   14 ar   
    28   13   15 1    
    29   14  138 1    
    30   15   16 1    
    31   15  139 1    
    32   15  140 1    
    33   16   17 1    
    34   17   18 1    
    35   17  141 1    
    36   17  142 1    
    37   18   19 1    
    38   18   67 1    
    39   18  143 1    
    40   19   20 am   BACKBONE|DICT|INTERRES
    41   19  144 1    
    42   20   21 2    
    43   20   22 1    
    44   22   23 1    
    45   22   24 1    
    46   22  145 1    
    47   23  146 1    
    48   23  147 1    
    49   23  148 1    
    50   24   25 am   BACKBONE|DICT|INTERRES
    51   24  149 1    
    52   25   26 2    
    53   25   27 1    
    54   27   28 1    
    55   27   29 1    
    56   27  150 1    
    57   28  151 1    
    58   28  152 1    
    59   28  153 1    
    60   29   30 am   BACKBONE|DICT|INTERRES
    61   29  154 1    
    62   30   31 2    
    63   30   32 1    
    64   32   33 1    
    65   32   34 1    
    66   32  155 1    
    67   33  156 1    
    68   33  157 1    
    69   33  158 1    
    70   34   35 am   BACKBONE|DICT|INTERRES
    71   34  159 1    
    72   35   36 2    
    73   35   37 1    
    74   37   38 1    
    75   37   39 1    
    76   37  160 1    
    77   38  161 1    
    78   38  162 1    
    79   38  163 1    
    80   39   40 am   BACKBONE|DICT|INTERRES
    81   39  164 1    
    82   40   41 2    
    83   40   42 1    
    84   42   43 1    
    85   42   44 1    
    86   42  165 1    
    87   43  166 1    
    88   43  167 1    
    89   43  168 1    
    90   44   45 am   BACKBONE|DICT|INTERRES
    91   44  169 1    
    92   45   46 2    
    93   45   47 1    
    94   47   48 1    
    95   47   49 1    
    96   47  170 1    
    97   48  171 1    
    98   48  172 1    
    99   48  173 1    
   100   49   50 am   BACKBONE|DICT|INTERRES
   101   49  174 1    
   102   50   51 2    
   103   50   52 1    
   104   52   53 1    
   105   52   54 1    
   106   52  175 1    
   107   53  176 1    
   108   53  177 1    
   109   53  178 1    
   110   54   55 am   BACKBONE|DICT|INTERRES
   111   54  179 1    
   112   55   56 2    
   113   55   57 1    
   114   57   58 1    
   115   57   59 1    
   116   57  180 1    
   117   58  181 1    
   118   58  182 1    
   119   58  183 1    
   120   59   60 am   BACKBONE|DICT|INTERRES
   121   59  184 1    
   122   60   61 2    
   123   60   62 1    
   124   62   63 1    
   125   62   64 1    
   126   62  185 1    
   127   63  186 1    
   128   63  187 1    
   129   63  188 1    
   130   64   65 am   BACKBONE|DICT|INTERRES
   131   64  189 1    
   132   65   66 2    
   133   67   68 2    
   134   67   69 am   BACKBONE|DICT|INTERRES
   135   69   70 1    
   136   69  190 1    
   137   70   71 1    
   138   70   72 1    
   139   70  191 1    
   140   71  192 1    
   141   71  193 1    
   142   71  194 1    
   143   72   73 2    
   144   72   74 am   BACKBONE|DICT|INTERRES
   145   74   75 1    
   146   74  195 1    
   147   75   76 1    
   148   75   77 1    
   149   75  196 1    
   150   76  197 1    
   151   76  198 1    
   152   76  199 1    
   153   77   78 2    
   154   77   79 am   BACKBONE|DICT|INTERRES
   155   79   80 1    
   156   79  200 1    
   157   80   81 1    
   158   80   82 1    
   159   80  201 1    
   160   81  202 1    
   161   81  203 1    
   162   81  204 1    
   163   82   83 2    
   164   82   84 am   BACKBONE|DICT|INTERRES
   165   84   85 1    
   166   84  205 1    
   167   85   86 1    
   168   85   87 1    
   169   85  206 1    
   170   86  207 1    
   171   86  208 1    
   172   86  209 1    
   173   87   88 2    
   174   87   89 am   BACKBONE|DICT|INTERRES
   175   89   90 1    
   176   89  210 1    
   177   90   91 1    
   178   90   92 1    
   179   90  211 1    
   180   91  212 1    
   181   91  213 1    
   182   91  214 1    
   183   92   93 2    
   184   92   94 am   BACKBONE|DICT|INTERRES
   185   94   95 1    
   186   94  215 1    
   187   95   96 1    
   188   95   97 1    
   189   95  216 1    
   190   96  217 1    
   191   96  218 1    
   192   96  219 1    
   193   97   98 2    
   194   97   99 am   BACKBONE|DICT|INTERRES
   195   99  100 1    
   196   99  220 1    
   197  100  101 1    
   198  100  102 1    
   199  100  221 1    
   200  101  222 1    
   201  101  223 1    
   202  101  224 1    
   203  102  103 2    
   204  102  104 am   BACKBONE|DICT|INTERRES
   205  104  105 1    
   206  104  225 1    
   207  105  106 1    
   208  105  107 1    
   209  105  226 1    
   210  106  227 1    
   211  106  228 1    
   212  106  229 1    
   213  107  108 2    
   214  107  109 am   BACKBONE|DICT|INTERRES
   215  109  110 1    
   216  109  230 1    
   217  110  111 1    
   218  110  112 1    
   219  110  231 1    
   220  111  232 1    
   221  111  233 1    
   222  111  234 1    
   223  112  113 2    
   224  112  114 am   BACKBONE|DICT|INTERRES
   225  114  115 1    
   226  114  235 1    
   227  115  116 1    
   228  115  117 1    
   229  115  236 1    
   230  116  237 1    
   231  116  238 1    
   232  116  239 1    
   233  117  118 2    
   234  117  119 am   BACKBONE|DICT|INTERRES
   235  119  120 1    
   236  119  240 1    
   237  120  121 1    
   238  120  124 1    
   239  120  241 1    
   240  121  122 am   BACKBONE|DICT|INTERRES
   241  121  123 2    
   242  122  242 1    
   243  122  243 1    
   244  124  125 1    
   245  124  244 1    
   246  124  245 1    
   247  125  126 1    
   248  126  246 1    
   249  126  247 1    
@<TRIPOS>SUBSTRUCTURE
     1 UNK         1 GROUP             0       ****    0 ROOT    
