@<TRIPOS>MOLECULE
3R540
247   249    1
SMALL
USER_CHARGES


@<TRIPOS>ATOM
      1 CA          1.3267  -12.7818  -47.1129 C.3       0 UNK        -0.1800 
      2 C           0.2401  -13.8274  -46.9140 C.2       0 UNK         0.5000 
      3 O          -0.1370  -14.1023  -45.7748 O.2       0 UNK        -0.5000 
      4 N          -0.2703  -14.3941  -48.0157 N.am      1 UNK        -0.5000 
      5 CA         -1.2343  -15.5050  -48.0829 C.3       1 UNK         0.1400 
      6 C6         -1.6063  -15.8323  -49.5515 C.3       23 UNK        -0.0398 
      7 S7         -0.2221  -16.5855  -50.4744 S.3       23 UNK        -0.2404 
      8 C8         -0.6214  -18.3248  -50.1500 C.3       23 UNK        -0.0205 
      9 C9          0.3159  -19.3156  -50.8097 C.ar      23 UNK        -0.0193 
     10 C10        -0.0767  -20.0032  -51.9600 C.ar      23 UNK        -0.1150 
     11 C11         0.7375  -21.0037  -52.4987 C.ar      23 UNK        -0.0193 
     12 C12         1.9484  -21.3166  -51.8732 C.ar      23 UNK        -0.1150 
     13 C13         2.3491  -20.6328  -50.7209 C.ar      23 UNK        -0.0193 
     14 C14         1.5368  -19.6194  -50.2066 C.ar      23 UNK        -0.1150 
     15 C15         3.6502  -21.0006  -50.0252 C.3       23 UNK        -0.0205 
     16 S16         3.4237  -22.3654  -48.8378 S.3       23 UNK        -0.2404 
     17 C17         2.6424  -21.5156  -47.4233 C.3       23 UNK        -0.0398 
     18 CA          1.4296  -22.2726  -46.8320 C.3       11 UNK         0.1400 
     19 N           1.1519  -21.8342  -45.4630 N.am      11 UNK        -0.5000 
     20 C           0.2855  -22.4114  -44.6197 C.2       10 UNK         0.5000 
     21 O          -0.3283  -23.4469  -44.8730 O.2       10 UNK        -0.5000 
     22 CA          0.0092  -21.6615  -43.3043 C.3       10 UNK         0.1400 
     23 CB          1.0637  -21.9882  -42.2365 C.3       10 UNK        -0.1800 
     24 N          -0.0485  -20.2150  -43.5280 N.am      10 UNK        -0.5000 
     25 C          -1.0793  -19.5973  -44.1238 C.2       9 UNK         0.5000 
     26 O          -2.1227  -20.1732  -44.4315 O.2       9 UNK        -0.5000 
     27 CA         -0.8991  -18.1085  -44.4788 C.3       9 UNK         0.1400 
     28 CB         -1.4643  -17.2028  -43.3768 C.3       9 UNK        -0.1800 
     29 N           0.5008  -17.7607  -44.7321 N.am      9 UNK        -0.5000 
     30 C           1.1511  -18.0775  -45.8602 C.2       8 UNK         0.5000 
     31 O           0.6239  -18.6766  -46.7944 O.2       8 UNK        -0.5000 
     32 CA          2.6485  -17.7242  -45.9513 C.3       8 UNK         0.1400 
     33 CB          2.8380  -16.3194  -46.5378 C.3       8 UNK        -0.1800 
     34 N           3.3516  -17.8162  -44.6714 N.am      8 UNK        -0.5000 
     35 C           3.4758  -18.9357  -43.9461 C.2       7 UNK         0.5000 
     36 O           3.0358  -20.0264  -44.3088 O.2       7 UNK        -0.5000 
     37 CA          4.1385  -18.8187  -42.5574 C.3       7 UNK         0.1400 
     38 CB          4.9796  -17.5353  -42.3756 C.3       7 UNK        -0.1800 
     39 N           3.1559  -18.9359  -41.4715 N.am      7 UNK        -0.5000 
     40 C           2.0514  -18.1916  -41.3111 C.2       6 UNK         0.5000 
     41 O           1.6885  -17.3365  -42.1201 O.2       6 UNK        -0.5000 
     42 CA          1.1789  -18.4334  -40.0609 C.3       6 UNK         0.1400 
     43 CB          1.8298  -19.3270  -38.9810 C.3       6 UNK        -0.1800 
     44 N           0.7264  -17.1517  -39.5081 N.am      6 UNK        -0.5000 
     45 C           1.5046  -16.1832  -39.0048 C.2       5 UNK         0.5000 
     46 O           2.7086  -16.3077  -38.7700 O.2       5 UNK        -0.5000 
     47 CA          0.8359  -14.8115  -38.8191 C.3       5 UNK         0.1400 
     48 CB          1.3821  -14.0579  -37.5938 C.3       5 UNK        -0.1800 
     49 N           1.0907  -14.0201  -40.0200 N.am      5 UNK        -0.5000 
     50 C           0.3605  -14.0801  -41.1398 C.2       4 UNK         0.5000 
     51 O          -0.6966  -14.7083  -41.2350 O.2       4 UNK        -0.5000 
     52 CA          0.9377  -13.3394  -42.3612 C.3       4 UNK         0.1400 
     53 CB          1.8530  -14.2672  -43.1742 C.3       4 UNK        -0.1800 
     54 N          -0.1057  -12.8166  -43.2423 N.am      4 UNK        -0.5000 
     55 C          -0.8886  -11.7727  -42.9388 C.2       3 UNK         0.5000 
     56 O          -0.7931  -11.1426  -41.8840 O.2       3 UNK        -0.5000 
     57 CA         -1.9425  -11.3314  -43.9679 C.3       3 UNK         0.1400 
     58 CB         -1.3982  -10.2022  -44.8591 C.3       3 UNK        -0.1800 
     59 N          -2.4359  -12.4256  -44.8100 N.am      3 UNK        -0.5000 
     60 C          -3.7119  -12.5420  -45.2072 C.2       2 UNK         0.5000 
     61 O          -4.5980  -11.7513  -44.8774 O.2       2 UNK        -0.5000 
     62 CA         -4.0581  -13.7184  -46.1397 C.3       2 UNK         0.1400 
     63 CB         -5.2828  -13.4403  -47.0321 C.3       2 UNK        -0.1800 
     64 N          -2.9180  -14.0711  -46.9835 N.am      2 UNK        -0.5000 
     65 C          -2.5198  -15.3214  -47.2433 C.2       1 UNK         0.5000 
     66 O          -3.1183  -16.3205  -46.8452 O.2       1 UNK        -0.5000 
     67 C           0.1686  -22.2009  -47.7262 C.2       11 UNK         0.5000 
     68 O          -0.0597  -23.1222  -48.5085 O.2       11 UNK        -0.5000 
     69 N          -0.6724  -21.1684  -47.5337 N.am      12 UNK        -0.5000 
     70 CA         -1.9937  -21.0332  -48.1586 C.3       12 UNK         0.1400 
     71 CB         -2.6817  -19.7273  -47.7112 C.3       12 UNK        -0.1800 
     72 C          -2.9096  -22.2233  -47.8339 C.2       12 UNK         0.5000 
     73 O          -3.4879  -22.8123  -48.7465 O.2       12 UNK        -0.5000 
     74 N          -3.0036  -22.5612  -46.5394 N.am      13 UNK        -0.5000 
     75 CA         -3.7910  -23.6783  -46.0198 C.3       13 UNK         0.1400 
     76 CB         -3.8377  -23.6087  -44.4864 C.3       13 UNK        -0.1800 
     77 C          -3.2683  -25.0432  -46.5002 C.2       13 UNK         0.5000 
     78 O          -4.0697  -25.8858  -46.9049 O.2       13 UNK        -0.5000 
     79 N          -1.9385  -25.2168  -46.5056 N.am      14 UNK        -0.5000 
     80 CA         -1.2485  -26.3990  -47.0322 C.3       14 UNK         0.1400 
     81 CB          0.2521  -26.2967  -46.7223 C.3       14 UNK        -0.1800 
     82 C          -1.4797  -26.6115  -48.5420 C.2       14 UNK         0.5000 
     83 O          -1.5765  -27.7544  -48.9888 O.2       14 UNK        -0.5000 
     84 N          -1.6223  -25.5075  -49.2861 N.am      15 UNK        -0.5000 
     85 CA         -1.9930  -25.4629  -50.7007 C.3       15 UNK         0.1400 
     86 CB         -1.3799  -24.1981  -51.3252 C.3       15 UNK        -0.1800 
     87 C          -3.5201  -25.5494  -50.9403 C.2       15 UNK         0.5000 
     88 O          -3.9701  -25.2535  -52.0475 O.2       15 UNK        -0.5000 
     89 N          -4.2864  -25.9661  -49.9198 N.am      16 UNK        -0.5000 
     90 CA         -5.7371  -26.1817  -49.9102 C.3       16 UNK         0.1400 
     91 CB         -6.1553  -27.2574  -50.9357 C.3       16 UNK        -0.1800 
     92 C          -6.5388  -24.8706  -50.0276 C.2       16 UNK         0.5000 
     93 O          -7.5019  -24.7965  -50.7929 O.2       16 UNK        -0.5000 
     94 N          -6.1229  -23.8686  -49.2403 N.am      17 UNK        -0.5000 
     95 CA         -6.6780  -22.5145  -49.1395 C.3       17 UNK         0.1400 
     96 CB         -8.1346  -22.5390  -48.6301 C.3       17 UNK        -0.1800 
     97 C          -6.4920  -21.7195  -50.4462 C.2       17 UNK         0.5000 
     98 O          -7.4370  -21.1063  -50.9468 O.2       17 UNK        -0.5000 
     99 N          -5.2664  -21.7652  -50.9836 N.am      18 UNK        -0.5000 
    100 CA        -4.8713  -21.0745  -52.2078 C.3       18 UNK         0.1400 
    101 CB        -3.5012  -21.5912  -52.6650 C.3       18 UNK        -0.1800 
    102 C         -4.8200  -19.5516  -52.0077 C.2       18 UNK         0.5000 
    103 O         -4.0814  -19.0734  -51.1451 O.2       18 UNK        -0.5000 
    104 N         -5.5574  -18.8111  -52.8417 N.am      19 UNK        -0.5000 
    105 CA        -5.6013  -17.3479  -52.8533 C.3       19 UNK         0.1400 
    106 CB        -6.9764  -16.9007  -53.3816 C.3       19 UNK        -0.1800 
    107 C         -4.4295  -16.7597  -53.6672 C.2       19 UNK         0.5000 
    108 O         -4.6524  -16.0279  -54.6322 O.2       19 UNK        -0.5000 
    109 N         -3.1992  -17.1381  -53.2921 N.am      20 UNK        -0.5000 
    110 CA        -1.8913  -16.7333  -53.8362 C.3       20 UNK         0.1400 
    111 CB        -1.6786  -15.2165  -53.6673 C.3       20 UNK        -0.1800 
    112 C         -1.5872  -17.1672  -55.2879 C.2       20 UNK         0.5000 
    113 O         -0.4134  -17.2514  -55.6488 O.2       20 UNK        -0.5000 
    114 N         -2.6204  -17.4342  -56.0960 N.am      21 UNK        -0.5000 
    115 CA        -2.5148  -17.8680  -57.4912 C.3       21 UNK         0.1400 
    116 CB        -3.8822  -17.6896  -58.1688 C.3       21 UNK        -0.1800 
    117 C         -2.0235  -19.3207  -57.6458 C.2       21 UNK         0.5000 
    118 O         -1.4192  -19.6478  -58.6678 O.2       21 UNK        -0.5000 
    119 N         -2.2971  -20.1559  -56.6337 N.am      22 UNK        -0.5000 
    120 CA        -1.8953  -21.5730  -56.5297 C.3       22 UNK         0.1400 
    121 C         -2.5886  -22.5320  -57.5466 C.2       22 UNK         0.5000 
    122 N         -3.6765  -22.1347  -58.1951 N.am      22 UNK        -0.7600 
    123 O         -2.1574  -23.6672  -57.7304 O.2       22 UNK        -0.5000 
    124 C124       -0.3526  -21.7802  -56.4766 C.3       23 UNK        -0.0398 
    125 S125        0.4789  -20.7390  -55.2288 S.3       23 UNK        -0.2404 
    126 C126        0.2902  -21.7606  -53.7383 C.3       23 UNK        -0.0205 
    127 H127        0.9995  -11.8184  -46.7248 H         1 UNK         0.0600 
    128 H128        1.5814  -12.6567  -48.1654 H         1 UNK         0.0600 
    129 H129        2.2297  -13.0750  -46.5781 H         1 UNK         0.0600 
    130 H130        0.0922  -14.1042  -48.9130 H         1 UNK         0.3000 
    131 H131       -0.7300  -16.3739  -47.6562 H         1 UNK         0.0600 
    132 H132       -2.4630  -16.5081  -49.6040 H         1 UNK         0.0800 
    133 H133       -1.9198  -14.9270  -50.0737 H         1 UNK         0.0800 
    134 H134       -0.5605  -18.4763  -49.0771 H         1 UNK         0.0800 
    135 H135       -1.6504  -18.5334  -50.4407 H         1 UNK         0.0800 
    136 H136       -1.0239  -19.7747  -52.4270 H         1 UNK         0.1150 
    137 H137        2.5744  -22.1012  -52.2743 H         1 UNK         0.1150 
    138 H138        1.8316  -19.0833  -49.3162 H         1 UNK         0.1150 
    139 H139        4.3875  -21.3038  -50.7700 H         1 UNK         0.0800 
    140 H140        4.0740  -20.1331  -49.5168 H         1 UNK         0.0800 
    141 H141        2.3675  -20.4973  -47.6863 H         1 UNK         0.0800 
    142 H142        3.4191  -21.4191  -46.6633 H         1 UNK         0.0800 
    143 H143        1.7068  -23.3258  -46.7573 H         1 UNK         0.0600 
    144 H144        1.6763  -21.0288  -45.1331 H         1 UNK         0.3000 
    145 H145       -0.9602  -21.9960  -42.9281 H         1 UNK         0.0600 
    146 H146        0.8329  -21.4937  -41.2934 H         1 UNK         0.0600 
    147 H147        1.0951  -23.0606  -42.0402 H         1 UNK         0.0600 
    148 H148        2.0650  -21.6843  -42.5400 H         1 UNK         0.0600 
    149 H149        0.7984  -19.6902  -43.3658 H         1 UNK         0.3000 
    150 H150       -1.4716  -17.9167  -45.3877 H         1 UNK         0.0600 
    151 H151       -2.5267  -17.3943  -43.2230 H         1 UNK         0.0600 
    152 H152       -1.3593  -16.1502  -43.6425 H         1 UNK         0.0600 
    153 H153       -0.9614  -17.3590  -42.4227 H         1 UNK         0.0600 
    154 H154        1.0082  -17.3293  -43.9645 H         1 UNK         0.3000 
    155 H155        3.1118  -18.4383  -46.6344 H         1 UNK         0.0600 
    156 H156        3.8910  -16.1076  -46.7235 H         1 UNK         0.0600 
    157 H157        2.3133  -16.2179  -47.4892 H         1 UNK         0.0600 
    158 H158        2.4553  -15.5526  -45.8649 H         1 UNK         0.0600 
    159 H159        3.7018  -16.9535  -44.2820 H         1 UNK         0.3000 
    160 H160        4.8118  -19.6724  -42.4679 H         1 UNK         0.0600 
    161 H161        4.3682  -16.6323  -42.3843 H         1 UNK         0.0600 
    162 H162        5.7297  -17.4401  -43.1617 H         1 UNK         0.0600 
    163 H163        5.5135  -17.5559  -41.4255 H         1 UNK         0.0600 
    164 H164        3.3651  -19.6316  -40.7699 H         1 UNK         0.3000 
    165 H165        0.2826  -18.9448  -40.4146 H         1 UNK         0.0600 
    166 H166        1.1814  -19.4179  -38.1095 H         1 UNK         0.0600 
    167 H167        2.0016  -20.3368  -39.3547 H         1 UNK         0.0600 
    168 H168        2.7878  -18.9338  -38.6394 H         1 UNK         0.0600 
    169 H169       -0.2267  -16.9032  -39.7359 H         1 UNK         0.3000 
    170 H170       -0.2384  -14.9501  -38.6786 H         1 UNK         0.0600 
    171 H171        2.4498  -13.8529  -37.6817 H         1 UNK         0.0600 
    172 H172        0.8700  -13.1049  -37.4598 H         1 UNK         0.0600 
    173 H173        1.2326  -14.6385  -36.6827 H         1 UNK         0.0600 
    174 H174        1.9638  -13.5130  -40.0345 H         1 UNK         0.3000 
    175 H175        1.5361  -12.4979  -42.0056 H         1 UNK         0.0600 
    176 H176        2.3292  -13.7315  -43.9953 H         1 UNK         0.0600 
    177 H177        1.2949  -15.1022  -43.5982 H         1 UNK         0.0600 
    178 H178        2.6459  -14.6838  -42.5519 H         1 UNK         0.0600 
    179 H179       -0.2144  -13.3026  -44.1274 H         1 UNK         0.3000 
    180 H180       -2.7689  -10.9252  -43.3805 H         1 UNK         0.0600 
    181 H181       -0.5779  -10.5478  -45.4875 H         1 UNK         0.0600 
    182 H182       -1.0249   -9.3726  -44.2572 H         1 UNK         0.0600 
    183 H183       -2.1759   -9.8046  -45.5113 H         1 UNK         0.0600 
    184 H184       -1.7639  -13.1288  -45.0976 H         1 UNK         0.3000 
    185 H185       -4.3031  -14.5516  -45.4777 H         1 UNK         0.0600 
    186 H186       -6.1696  -13.2301  -46.4329 H         1 UNK         0.0600 
    187 H187       -5.1144  -12.5844  -47.6865 H         1 UNK         0.0600 
    188 H188       -5.5159  -14.3010  -47.6592 H         1 UNK         0.0600 
    189 H189       -2.3671  -13.3015  -47.3373 H         1 UNK         0.3000 
    190 H190       -0.3702  -20.4063  -46.9373 H         1 UNK         0.3000 
    191 H191       -1.8384  -20.9967  -49.2388 H         1 UNK         0.0600 
    192 H192       -1.9829  -18.9102  -47.5544 H         1 UNK         0.0600 
    193 H193       -3.4037  -19.4015  -48.4604 H         1 UNK         0.0600 
    194 H194       -3.2305  -19.8416  -46.7765 H         1 UNK         0.0600 
    195 H195       -2.4938  -22.0104  -45.8604 H         1 UNK         0.3000 
    196 H196       -4.8113  -23.5647  -46.3916 H         1 UNK         0.0600 
    197 H197       -4.4623  -24.4050  -44.0797 H         1 UNK         0.0600 
    198 H198       -4.2568  -22.6609  -44.1479 H         1 UNK         0.0600 
    199 H199       -2.8470  -23.7118  -44.0439 H         1 UNK         0.0600 
    200 H200       -1.3531  -24.4863  -46.1082 H         1 UNK         0.3000 
    201 H201       -1.6457  -27.2719  -46.5102 H         1 UNK         0.0600 
    202 H202        0.4287  -26.1734  -45.6536 H         1 UNK         0.0600 
    203 H203        0.7110  -25.4537  -47.2382 H         1 UNK         0.0600 
    204 H204        0.7773  -27.1988  -47.0383 H         1 UNK         0.0600 
    205 H205       -1.4656  -24.6073  -48.8443 H         1 UNK         0.3000 
    206 H206       -1.5514  -26.3247  -51.2045 H         1 UNK         0.0600 
    207 H207       -0.2955  -24.1896  -51.2128 H         1 UNK         0.0600 
    208 H208       -1.5927  -24.1359  -52.3926 H         1 UNK         0.0600 
    209 H209       -1.7650  -23.2955  -50.8520 H         1 UNK         0.0600 
    210 H210       -3.8296  -26.1392  -49.0327 H         1 UNK         0.3000 
    211 H211       -5.9686  -26.5803  -48.9214 H         1 UNK         0.0600 
    212 H212       -6.0233  -26.9171  -51.9629 H         1 UNK         0.0600 
    213 H213       -7.2066  -27.5210  -50.8146 H         1 UNK         0.0600 
    214 H214       -5.5757  -28.1714  -50.8069 H         1 UNK         0.0600 
    215 H215       -5.2502  -24.0029  -48.7443 H         1 UNK         0.3000 
    216 H216       -6.0852  -21.9964  -48.3846 H         1 UNK         0.0600 
    217 H217       -8.4931  -21.5282  -48.4324 H         1 UNK         0.0600 
    218 H218       -8.2168  -23.0998  -47.6991 H         1 UNK         0.0600 
    219 H219       -8.8147  -22.9880  -49.3542 H         1 UNK         0.0600 
    220 H220       -4.5420  -22.2628  -50.4785 H         1 UNK         0.3000 
    221 H221       -5.6009  -21.3107  -52.9852 H         1 UNK         0.0600 
    222 H222       -2.7469  -21.4567  -51.8897 H         1 UNK         0.0600 
    223 H223       -3.5439  -22.6500  -52.9188 H         1 UNK         0.0600 
    224 H224       -3.1589  -21.0551  -53.5498 H         1 UNK         0.0600 
    225 H225       -6.1246  -19.2761  -53.5359 H         1 UNK         0.3000 
    226 H226       -5.5036  -16.9751  -51.8314 H         1 UNK         0.0600 
    227 H227       -7.7826  -17.2962  -52.7634 H         1 UNK         0.0600 
    228 H228       -7.0656  -15.8136  -53.3711 H         1 UNK         0.0600 
    229 H229       -7.1446  -17.2353  -54.4061 H         1 UNK         0.0600 
    230 H230       -3.1567  -17.7744  -52.5036 H         1 UNK         0.3000 
    231 H231       -1.1507  -17.2407  -53.2173 H         1 UNK         0.0600 
    232 H232       -2.3542  -14.6382  -54.2982 H         1 UNK         0.0600 
    233 H233       -0.6601  -14.9345  -53.9367 H         1 UNK         0.0600 
    234 H234       -1.8370  -14.9071  -52.6347 H         1 UNK         0.0600 
    235 H235       -3.5483  -17.2289  -55.7426 H         1 UNK         0.3000 
    236 H236       -1.7954  -17.2208  -57.9974 H         1 UNK         0.0600 
    237 H237       -4.2052  -16.6488  -58.1352 H         1 UNK         0.0600 
    238 H238       -3.8401  -17.9821  -59.2189 H         1 UNK         0.0600 
    239 H239       -4.6521  -18.2947  -57.6886 H         1 UNK         0.0600 
    240 H240       -2.8004  -19.7807  -55.8446 H         1 UNK         0.3000 
    241 H241       -2.2834  -21.9032  -55.5672 H         1 UNK         0.0600 
    242 H242       -4.0496  -21.2101  -58.0545 H         1 UNK         0.3800 
    243 H243       -4.1250  -22.7637  -58.8428 H         1 UNK         0.3800 
    244 H244       -0.1099  -22.8238  -56.2694 H         1 UNK         0.0800 
    245 H245        0.0905  -21.5582  -57.4483 H         1 UNK         0.0800 
    246 H246       -0.7529  -22.0545  -53.6227 H         1 UNK         0.0800 
    247 H247        0.8611  -22.6830  -53.8553 H         1 UNK         0.0800 
@<TRIPOS>BOND
     1    1    2 1    
     2    1  127 1    
     3    1  128 1    
     4    1  129 1    
     5    2    3 2    
     6    2    4 am   BACKBONE|DICT|INTERRES
     7    4    5 1    
     8    4  130 1    
     9    5    6 1    
    10    5   65 1    
    11    5  131 1    
    12    6    7 1    
    13    6  132 1    
    14    6  133 1    
    15    7    8 1    
    16    8    9 1    
    17    8  134 1    
    18    8  135 1    
    19    9   10 ar   
    20    9   14 ar   
    21   10   11 ar   
    22   10  136 1    
    23   11   12 ar   
    24   11  126 1    
    25   12   13 ar   
    26   12  137 1    
    27   13   14 ar   
    28   13   15 1    
    29   14  138 1    
    30   15   16 1    
    31   15  139 1    
    32   15  140 1    
    33   16   17 1    
    34   17   18 1    
    35   17  141 1    
    36   17  142 1    
    37   18   19 1    
    38   18   67 1    
    39   18  143 1    
    40   19   20 am   BACKBONE|DICT|INTERRES
    41   19  144 1    
    42   20   21 2    
    43   20   22 1    
    44   22   23 1    
    45   22   24 1    
    46   22  145 1    
    47   23  146 1    
    48   23  147 1    
    49   23  148 1    
    50   24   25 am   BACKBONE|DICT|INTERRES
    51   24  149 1    
    52   25   26 2    
    53   25   27 1    
    54   27   28 1    
    55   27   29 1    
    56   27  150 1    
    57   28  151 1    
    58   28  152 1    
    59   28  153 1    
    60   29   30 am   BACKBONE|DICT|INTERRES
    61   29  154 1    
    62   30   31 2    
    63   30   32 1    
    64   32   33 1    
    65   32   34 1    
    66   32  155 1    
    67   33  156 1    
    68   33  157 1    
    69   33  158 1    
    70   34   35 am   BACKBONE|DICT|INTERRES
    71   34  159 1    
    72   35   36 2    
    73   35   37 1    
    74   37   38 1    
    75   37   39 1    
    76   37  160 1    
    77   38  161 1    
    78   38  162 1    
    79   38  163 1    
    80   39   40 am   BACKBONE|DICT|INTERRES
    81   39  164 1    
    82   40   41 2    
    83   40   42 1    
    84   42   43 1    
    85   42   44 1    
    86   42  165 1    
    87   43  166 1    
    88   43  167 1    
    89   43  168 1    
    90   44   45 am   BACKBONE|DICT|INTERRES
    91   44  169 1    
    92   45   46 2    
    93   45   47 1    
    94   47   48 1    
    95   47   49 1    
    96   47  170 1    
    97   48  171 1    
    98   48  172 1    
    99   48  173 1    
   100   49   50 am   BACKBONE|DICT|INTERRES
   101   49  174 1    
   102   50   51 2    
   103   50   52 1    
   104   52   53 1    
   105   52   54 1    
   106   52  175 1    
   107   53  176 1    
   108   53  177 1    
   109   53  178 1    
   110   54   55 am   BACKBONE|DICT|INTERRES
   111   54  179 1    
   112   55   56 2    
   113   55   57 1    
   114   57   58 1    
   115   57   59 1    
   116   57  180 1    
   117   58  181 1    
   118   58  182 1    
   119   58  183 1    
   120   59   60 am   BACKBONE|DICT|INTERRES
   121   59  184 1    
   122   60   61 2    
   123   60   62 1    
   124   62   63 1    
   125   62   64 1    
   126   62  185 1    
   127   63  186 1    
   128   63  187 1    
   129   63  188 1    
   130   64   65 am   BACKBONE|DICT|INTERRES
   131   64  189 1    
   132   65   66 2    
   133   67   68 2    
   134   67   69 am   BACKBONE|DICT|INTERRES
   135   69   70 1    
   136   69  190 1    
   137   70   71 1    
   138   70   72 1    
   139   70  191 1    
   140   71  192 1    
   141   71  193 1    
   142   71  194 1    
   143   72   73 2    
   144   72   74 am   BACKBONE|DICT|INTERRES
   145   74   75 1    
   146   74  195 1    
   147   75   76 1    
   148   75   77 1    
   149   75  196 1    
   150   76  197 1    
   151   76  198 1    
   152   76  199 1    
   153   77   78 2    
   154   77   79 am   BACKBONE|DICT|INTERRES
   155   79   80 1    
   156   79  200 1    
   157   80   81 1    
   158   80   82 1    
   159   80  201 1    
   160   81  202 1    
   161   81  203 1    
   162   81  204 1    
   163   82   83 2    
   164   82   84 am   BACKBONE|DICT|INTERRES
   165   84   85 1    
   166   84  205 1    
   167   85   86 1    
   168   85   87 1    
   169   85  206 1    
   170   86  207 1    
   171   86  208 1    
   172   86  209 1    
   173   87   88 2    
   174   87   89 am   BACKBONE|DICT|INTERRES
   175   89   90 1    
   176   89  210 1    
   177   90   91 1    
   178   90   92 1    
   179   90  211 1    
   180   91  212 1    
   181   91  213 1    
   182   91  214 1    
   183   92   93 2    
   184   92   94 am   BACKBONE|DICT|INTERRES
   185   94   95 1    
   186   94  215 1    
   187   95   96 1    
   188   95   97 1    
   189   95  216 1    
   190   96  217 1    
   191   96  218 1    
   192   96  219 1    
   193   97   98 2    
   194   97   99 am   BACKBONE|DICT|INTERRES
   195   99  100 1    
   196   99  220 1    
   197  100  101 1    
   198  100  102 1    
   199  100  221 1    
   200  101  222 1    
   201  101  223 1    
   202  101  224 1    
   203  102  103 2    
   204  102  104 am   BACKBONE|DICT|INTERRES
   205  104  105 1    
   206  104  225 1    
   207  105  106 1    
   208  105  107 1    
   209  105  226 1    
   210  106  227 1    
   211  106  228 1    
   212  106  229 1    
   213  107  108 2    
   214  107  109 am   BACKBONE|DICT|INTERRES
   215  109  110 1    
   216  109  230 1    
   217  110  111 1    
   218  110  112 1    
   219  110  231 1    
   220  111  232 1    
   221  111  233 1    
   222  111  234 1    
   223  112  113 2    
   224  112  114 am   BACKBONE|DICT|INTERRES
   225  114  115 1    
   226  114  235 1    
   227  115  116 1    
   228  115  117 1    
   229  115  236 1    
   230  116  237 1    
   231  116  238 1    
   232  116  239 1    
   233  117  118 2    
   234  117  119 am   BACKBONE|DICT|INTERRES
   235  119  120 1    
   236  119  240 1    
   237  120  121 1    
   238  120  124 1    
   239  120  241 1    
   240  121  122 am   BACKBONE|DICT|INTERRES
   241  121  123 2    
   242  122  242 1    
   243  122  243 1    
   244  124  125 1    
   245  124  244 1    
   246  124  245 1    
   247  125  126 1    
   248  126  246 1    
   249  126  247 1    
@<TRIPOS>SUBSTRUCTURE
     1 UNK         1 GROUP             0       ****    0 ROOT    
