@<TRIPOS>MOLECULE
3R540
247   249    1
SMALL
USER_CHARGES


@<TRIPOS>ATOM
      1 CA         -0.2165   -9.3819  -48.8455 C.3       0 UNK        -0.1800 
      2 C          -0.5734  -10.8603  -48.7836 C.2       0 UNK         0.5000 
      3 O          -0.6119  -11.5262  -49.8180 O.2       0 UNK        -0.5000 
      4 N          -0.8269  -11.3741  -47.5764 N.am      1 UNK        -0.5000 
      5 CA         -1.1130  -12.7824  -47.3090 C.3       1 UNK         0.1400 
      6 C6         -2.5446  -13.2048  -47.7357 C.3       23 UNK        -0.0398 
      7 S7         -2.8611  -14.9855  -47.5006 S.3       23 UNK        -0.2404 
      8 C8         -3.0092  -15.5826  -49.2110 C.3       23 UNK        -0.0205 
      9 C9         -3.0108  -17.1031  -49.2509 C.ar      23 UNK        -0.0193 
     10 C10        -1.9605  -17.7951  -49.8586 C.ar      23 UNK        -0.1150 
     11 C11        -1.9414  -19.1928  -49.8806 C.ar      23 UNK        -0.0193 
     12 C12        -2.9664  -19.8954  -49.2398 C.ar      23 UNK        -0.1150 
     13 C13        -4.0080  -19.2174  -48.5995 C.ar      23 UNK        -0.0193 
     14 C14        -4.0432  -17.8216  -48.6429 C.ar      23 UNK        -0.1150 
     15 C15        -5.0542  -19.9764  -47.7960 C.3       23 UNK        -0.0205 
     16 S16        -4.7321  -19.7602  -46.0142 S.3       23 UNK        -0.2404 
     17 C17        -5.0199  -21.4084  -45.2779 C.3       23 UNK        -0.0398 
     18 CA         -4.0498  -22.5132  -45.7639 C.3       11 UNK         0.1400 
     19 N          -2.6419  -22.0957  -45.7953 N.am      11 UNK        -0.5000 
     20 C          -1.6610  -22.7932  -46.3873 C.2       10 UNK         0.5000 
     21 O          -1.8682  -23.8253  -47.0273 O.2       10 UNK        -0.5000 
     22 CA         -0.2129  -22.3023  -46.2203 C.3       10 UNK         0.1400 
     23 CB          0.3469  -21.8244  -47.5635 C.3       10 UNK        -0.1800 
     24 N          -0.0609  -21.2427  -45.2226 N.am      10 UNK        -0.5000 
     25 C          -0.0774  -21.4435  -43.8959 C.2       9 UNK         0.5000 
     26 O          -0.2715  -22.5462  -43.3836 O.2       9 UNK        -0.5000 
     27 CA          0.1369  -20.2159  -42.9863 C.3       9 UNK         0.1400 
     28 CB          1.6077  -20.1185  -42.5557 C.3       9 UNK        -0.1800 
     29 N          -0.2568  -18.9578  -43.6202 N.am      9 UNK        -0.5000 
     30 C          -1.5208  -18.6194  -43.9115 C.2       8 UNK         0.5000 
     31 O          -2.4903  -19.2943  -43.5664 O.2       8 UNK        -0.5000 
     32 CA         -1.7420  -17.3366  -44.7430 C.3       8 UNK         0.1400 
     33 CB         -2.2383  -16.1949  -43.8424 C.3       8 UNK        -0.1800 
     34 N          -0.5590  -16.8771  -45.4779 N.am      8 UNK        -0.5000 
     35 C           0.0993  -17.5737  -46.4164 C.2       7 UNK         0.5000 
     36 O          -0.2107  -18.7110  -46.7647 O.2       7 UNK        -0.5000 
     37 CA          1.3581  -16.9213  -47.0134 C.3       7 UNK         0.1400 
     38 CB          1.0354  -16.2062  -48.3323 C.3       7 UNK        -0.1800 
     39 N           1.9884  -15.9811  -46.0854 N.am      7 UNK        -0.5000 
     40 C           2.6893  -16.3385  -45.0020 C.2       6 UNK         0.5000 
     41 O           2.8481  -17.5144  -44.6699 O.2       6 UNK        -0.5000 
     42 CA          3.2858  -15.2168  -44.1208 C.3       6 UNK         0.1400 
     43 CB          4.6992  -15.5732  -43.6179 C.3       6 UNK        -0.1800 
     44 N           3.2898  -13.8693  -44.7053 N.am      6 UNK        -0.5000 
     45 C           3.8906  -13.4497  -45.8302 C.2       5 UNK         0.5000 
     46 O           4.4690  -14.1890  -46.6264 O.2       5 UNK        -0.5000 
     47 CA          3.8597  -11.9315  -46.0950 C.3       5 UNK         0.1400 
     48 CB          2.5940  -11.5350  -46.8663 C.3       5 UNK        -0.1800 
     49 N           3.9421  -11.1471  -44.8605 N.am      5 UNK        -0.5000 
     50 C           5.0474  -11.0576  -44.1056 C.2       4 UNK         0.5000 
     51 O           6.1285  -11.5558  -44.4224 O.2       4 UNK        -0.5000 
     52 CA          4.9423  -10.2930  -42.7711 C.3       4 UNK         0.1400 
     53 CB          5.5060   -8.8716  -42.9229 C.3       4 UNK        -0.1800 
     54 N           3.5902  -10.2061  -42.2133 N.am      4 UNK        -0.5000 
     55 C           2.8378  -11.2401  -41.8128 C.2       3 UNK         0.5000 
     56 O           3.1741  -12.4188  -41.9371 O.2       3 UNK        -0.5000 
     57 CA          1.4777  -10.9171  -41.1594 C.3       3 UNK         0.1400 
     58 CB          1.1665   -9.4069  -41.0396 C.3       3 UNK        -0.1800 
     59 N           0.3725  -11.6161  -41.8205 N.am      3 UNK        -0.5000 
     60 C           0.0027  -11.5043  -43.1033 C.2       2 UNK         0.5000 
     61 O           0.5847  -10.7968  -43.9315 O.2       2 UNK        -0.5000 
     62 CA         -1.2560  -12.2995  -43.5026 C.3       2 UNK         0.1400 
     63 CB         -2.5088  -11.7244  -42.8207 C.3       2 UNK        -0.1800 
     64 N          -1.4746  -12.2812  -44.9467 N.am      2 UNK        -0.5000 
     65 C          -0.8199  -13.0510  -45.8240 C.2       1 UNK         0.5000 
     66 O           0.0043  -13.9093  -45.5047 O.2       1 UNK        -0.5000 
     67 C          -4.2425  -23.8304  -44.9788 C.2       11 UNK         0.5000 
     68 O          -5.1134  -24.6242  -45.3347 O.2       11 UNK        -0.5000 
     69 N          -3.3741  -24.0772  -43.9852 N.am      12 UNK        -0.5000 
     70 CA         -3.2802  -25.3371  -43.2436 C.3       12 UNK         0.1400 
     71 CB         -2.4407  -25.1076  -41.9780 C.3       12 UNK        -0.1800 
     72 C          -2.6920  -26.4959  -44.0775 C.2       12 UNK         0.5000 
     73 O          -2.9352  -27.6566  -43.7484 O.2       12 UNK        -0.5000 
     74 N          -1.9621  -26.1719  -45.1544 N.am      13 UNK        -0.5000 
     75 CA         -1.3984  -27.1108  -46.1275 C.3       13 UNK         0.1400 
     76 CB          0.0240  -26.6516  -46.4986 C.3       13 UNK        -0.1800 
     77 C          -2.3163  -27.2327  -47.3618 C.2       13 UNK         0.5000 
     78 O          -1.8312  -27.3211  -48.4925 O.2       13 UNK        -0.5000 
     79 N          -3.6363  -27.1976  -47.1214 N.am      14 UNK        -0.5000 
     80 CA         -4.7242  -27.2671  -48.1016 C.3       14 UNK         0.1400 
     81 CB         -4.7884  -28.6716  -48.7380 C.3       14 UNK        -0.1800 
     82 C          -4.6606  -26.1384  -49.1502 C.2       14 UNK         0.5000 
     83 O          -4.9386  -26.3769  -50.3237 O.2       14 UNK        -0.5000 
     84 N          -4.2656  -24.9363  -48.7090 N.am      15 UNK        -0.5000 
     85 CA         -4.0345  -23.7362  -49.5193 C.3       15 UNK         0.1400 
     86 CB         -5.3444  -23.2329  -50.1571 C.3       15 UNK        -0.1800 
     87 C          -2.8873  -23.9261  -50.5277 C.2       15 UNK         0.5000 
     88 O          -3.0453  -23.6240  -51.7117 O.2       15 UNK        -0.5000 
     89 N          -1.7616  -24.4517  -50.0222 N.am      16 UNK        -0.5000 
     90 CA         -0.5689  -24.8707  -50.7665 C.3       16 UNK         0.1400 
     91 CB          0.1953  -23.6507  -51.3233 C.3       16 UNK        -0.1800 
     92 C          -0.9044  -25.9211  -51.8461 C.2       16 UNK         0.5000 
     93 O          -0.5410  -25.7531  -53.0112 O.2       16 UNK        -0.5000 
     94 N          -1.6203  -26.9741  -51.4240 N.am      17 UNK        -0.5000 
     95 CA         -2.1432  -28.0715  -52.2444 C.3       17 UNK         0.1400 
     96 CB         -0.9930  -28.9483  -52.7825 C.3       17 UNK        -0.1800 
     97 C          -3.1056  -27.5801  -53.3485 C.2       17 UNK         0.5000 
     98 O          -2.9058  -27.8713  -54.5296 O.2       17 UNK        -0.5000 
     99 N          -4.1409  -26.8455  -52.9209 N.am      18 UNK        -0.5000 
    100 CA        -5.2455  -26.2943  -53.7086 C.3       18 UNK         0.1400 
    101 CB        -6.1112  -27.4258  -54.3022 C.3       18 UNK        -0.1800 
    102 C         -4.8093  -25.2481  -54.7541 C.2       18 UNK         0.5000 
    103 O         -5.3964  -25.1817  -55.8362 O.2       18 UNK        -0.5000 
    104 N         -3.8038  -24.4335  -54.4104 N.am      19 UNK        -0.5000 
    105 CA        -3.3745  -23.2863  -55.2050 C.3       19 UNK         0.1400 
    106 CB        -1.8748  -23.0280  -54.9819 C.3       19 UNK        -0.1800 
    107 C         -4.2282  -22.0590  -54.8464 C.2       19 UNK         0.5000 
    108 O         -4.9738  -21.5744  -55.6989 O.2       19 UNK        -0.5000 
    109 N         -4.1210  -21.6267  -53.5795 N.am      20 UNK        -0.5000 
    110 CA        -4.7547  -20.4660  -52.9394 C.3       20 UNK         0.1400 
    111 CB        -6.2873  -20.6307  -52.9162 C.3       20 UNK        -0.1800 
    112 C         -4.3565  -19.0965  -53.5341 C.2       20 UNK         0.5000 
    113 O         -3.9156  -19.0048  -54.6813 O.2       20 UNK        -0.5000 
    114 N         -4.5356  -18.0410  -52.7216 N.am      21 UNK        -0.5000 
    115 CA        -4.2959  -16.6246  -53.0456 C.3       21 UNK         0.1400 
    116 CB        -5.3834  -16.1082  -54.0099 C.3       21 UNK        -0.1800 
    117 C         -2.8620  -16.3490  -53.5530 C.2       21 UNK         0.5000 
    118 O         -2.6653  -15.5966  -54.5087 O.2       21 UNK        -0.5000 
    119 N         -1.8946  -17.0104  -52.9097 N.am      22 UNK        -0.5000 
    120 CA        -0.4877  -17.1258  -53.3239 C.3       22 UNK         0.1400 
    121 C          0.3509  -15.8131  -53.2790 C.2       22 UNK         0.5000 
    122 N         -0.1364  -14.7270  -52.6928 N.am      22 UNK        -0.7600 
    123 O          1.4694  -15.7832  -53.7848 O.2       22 UNK        -0.5000 
    124 C124        0.2488  -18.2604  -52.5571 C.3       23 UNK        -0.0398 
    125 S125       -0.7272  -19.7964  -52.3395 S.3       23 UNK        -0.2404 
    126 C126       -0.7850  -19.9523  -50.5231 C.3       23 UNK        -0.0205 
    127 H127       -0.9348   -8.8479  -49.4675 H         1 UNK         0.0600 
    128 H128        0.7749   -9.2543  -49.2804 H         1 UNK         0.0600 
    129 H129       -0.2147   -8.9231  -47.8564 H         1 UNK         0.0600 
    130 H130       -0.7274  -10.7900  -46.7567 H         1 UNK         0.3000 
    131 H131       -0.3968  -13.3711  -47.8839 H         1 UNK         0.0600 
    132 H132       -2.7129  -12.9521  -48.7830 H         1 UNK         0.0800 
    133 H133       -3.2950  -12.6462  -47.1744 H         1 UNK         0.0800 
    134 H134       -2.1858  -15.1827  -49.8049 H         1 UNK         0.0800 
    135 H135       -3.9323  -15.2030  -49.6508 H         1 UNK         0.0800 
    136 H136       -1.1501  -17.2378  -50.3000 H         1 UNK         0.1150 
    137 H137       -2.9250  -20.9709  -49.2040 H         1 UNK         0.1150 
    138 H138       -4.8408  -17.2907  -48.1421 H         1 UNK         0.1150 
    139 H139       -6.0493  -19.5963  -48.0305 H         1 UNK         0.0800 
    140 H140       -5.0567  -21.0299  -48.0693 H         1 UNK         0.0800 
    141 H141       -6.0540  -21.6982  -45.4726 H         1 UNK         0.0800 
    142 H142       -4.9372  -21.2875  -44.1961 H         1 UNK         0.0800 
    143 H143       -4.3374  -22.7449  -46.7852 H         1 UNK         0.0600 
    144 H144       -2.4136  -21.2395  -45.3082 H         1 UNK         0.3000 
    145 H145        0.3806  -23.1612  -45.8998 H         1 UNK         0.0600 
    146 H146       -0.2486  -21.0091  -47.9702 H         1 UNK         0.0600 
    147 H147        1.3758  -21.4776  -47.4680 H         1 UNK         0.0600 
    148 H148        0.3407  -22.6351  -48.2909 H         1 UNK         0.0600 
    149 H149        0.0370  -20.2993  -45.5865 H         1 UNK         0.3000 
    150 H150       -0.4738  -20.3553  -42.0919 H         1 UNK         0.0600 
    151 H151        1.9251  -21.0264  -42.0410 H         1 UNK         0.0600 
    152 H152        1.7653  -19.2848  -41.8711 H         1 UNK         0.0600 
    153 H153        2.2687  -19.9784  -43.4121 H         1 UNK         0.0600 
    154 H154        0.4900  -18.3599  -43.9459 H         1 UNK         0.3000 
    155 H155       -2.5175  -17.5585  -45.4791 H         1 UNK         0.0600 
    156 H156       -3.1320  -16.4907  -43.2915 H         1 UNK         0.0600 
    157 H157       -2.4991  -15.3138  -44.4282 H         1 UNK         0.0600 
    158 H158       -1.4821  -15.9026  -43.1130 H         1 UNK         0.0600 
    159 H159       -0.2453  -15.9312  -45.2879 H         1 UNK         0.3000 
    160 H160        2.0762  -17.7154  -47.2289 H         1 UNK         0.0600 
    161 H161        1.8854  -15.6267  -48.6935 H         1 UNK         0.0600 
    162 H162        0.1840  -15.5352  -48.2303 H         1 UNK         0.0600 
    163 H163        0.7895  -16.9330  -49.1054 H         1 UNK         0.0600 
    164 H164        1.8178  -14.9963  -46.2388 H         1 UNK         0.3000 
    165 H165        2.6349  -15.1538  -43.2477 H         1 UNK         0.0600 
    166 H166        5.4010  -15.6966  -44.4433 H         1 UNK         0.0600 
    167 H167        5.0886  -14.7958  -42.9599 H         1 UNK         0.0600 
    168 H168        4.6945  -16.5036  -43.0491 H         1 UNK         0.0600 
    169 H169        2.8689  -13.1610  -44.1183 H         1 UNK         0.3000 
    170 H170        4.7234  -11.6873  -46.7173 H         1 UNK         0.0600 
    171 H171        1.7020  -11.6852  -46.2613 H         1 UNK         0.0600 
    172 H172        2.6237  -10.4863  -47.1621 H         1 UNK         0.0600 
    173 H173        2.4816  -12.1280  -47.7751 H         1 UNK         0.0600 
    174 H174        3.0889  -10.7169  -44.5289 H         1 UNK         0.3000 
    175 H175        5.5602  -10.8283  -42.0473 H         1 UNK         0.0600 
    176 H176        4.9091   -8.2746  -43.6136 H         1 UNK         0.0600 
    177 H177        5.5327   -8.3521  -41.9648 H         1 UNK         0.0600 
    178 H178        6.5271   -8.8936  -43.3063 H         1 UNK         0.0600 
    179 H179        3.2180   -9.2755  -42.0923 H         1 UNK         0.3000 
    180 H180        1.5320  -11.3193  -40.1468 H         1 UNK         0.0600 
    181 H181        1.1091   -8.9174  -42.0125 H         1 UNK         0.0600 
    182 H182        1.9245   -8.8917  -40.4484 H         1 UNK         0.0600 
    183 H183        0.2123   -9.2475  -40.5372 H         1 UNK         0.0600 
    184 H184       -0.1490  -12.2458  -41.2271 H         1 UNK         0.3000 
    185 H185       -1.1231  -13.3329  -43.1761 H         1 UNK         0.0600 
    186 H186       -3.4009  -12.2853  -43.1005 H         1 UNK         0.0600 
    187 H187       -2.4291  -11.7726  -41.7341 H         1 UNK         0.0600 
    188 H188       -2.6706  -10.6801  -43.0913 H         1 UNK         0.0600 
    189 H189       -2.1269  -11.5902  -45.2856 H         1 UNK         0.3000 
    190 H190       -2.6703  -23.3824  -43.7737 H         1 UNK         0.3000 
    191 H191       -4.2867  -25.6299  -42.9376 H         1 UNK         0.0600 
    192 H192       -1.4186  -24.8144  -42.2211 H         1 UNK         0.0600 
    193 H193       -2.8739  -24.3273  -41.3521 H         1 UNK         0.0600 
    194 H194       -2.3868  -26.0147  -41.3746 H         1 UNK         0.0600 
    195 H195       -1.8694  -25.1948  -45.3990 H         1 UNK         0.3000 
    196 H196       -1.3223  -28.1061  -45.6857 H         1 UNK         0.0600 
    197 H197        0.6488  -26.5491  -45.6113 H         1 UNK         0.0600 
    198 H198        0.0201  -25.6931  -47.0178 H         1 UNK         0.0600 
    199 H199        0.5098  -27.3757  -47.1537 H         1 UNK         0.0600 
    200 H200       -3.9278  -27.0971  -46.1591 H         1 UNK         0.3000 
    201 H201       -5.6502  -27.1114  -47.5464 H         1 UNK         0.0600 
    202 H202       -5.6632  -28.7716  -49.3816 H         1 UNK         0.0600 
    203 H203       -4.8597  -29.4464  -47.9747 H         1 UNK         0.0600 
    204 H204       -3.9090  -28.8820  -49.3468 H         1 UNK         0.0600 
    205 H205       -4.0034  -24.8665  -47.7356 H         1 UNK         0.3000 
    206 H206       -3.6895  -22.9678  -48.8354 H         1 UNK         0.0600 
    207 H207       -6.1396  -23.1517  -49.4163 H         1 UNK         0.0600 
    208 H208       -5.6927  -23.8906  -50.9540 H         1 UNK         0.0600 
    209 H209       -5.2036  -22.2431  -50.5872 H         1 UNK         0.0600 
    210 H210       -1.7484  -24.6504  -49.0283 H         1 UNK         0.3000 
    211 H211        0.0849  -25.3691  -50.0492 H         1 UNK         0.0600 
    212 H212        0.5229  -22.9881  -50.5253 H         1 UNK         0.0600 
    213 H213        1.0900  -23.9618  -51.8634 H         1 UNK         0.0600 
    214 H214       -0.4134  -23.0656  -52.0108 H         1 UNK         0.0600 
    215 H215       -1.8431  -27.0235  -50.4328 H         1 UNK         0.3000 
    216 H216       -2.7392  -28.6936  -51.5754 H         1 UNK         0.0600 
    217 H217       -1.3825  -29.8241  -53.3025 H         1 UNK         0.0600 
    218 H218       -0.3608  -28.4060  -53.4861 H         1 UNK         0.0600 
    219 H219       -0.3600  -29.3078  -51.9712 H         1 UNK         0.0600 
    220 H220       -4.2259  -26.6682  -51.9204 H         1 UNK         0.3000 
    221 H221       -5.8692  -25.7520  -52.9965 H         1 UNK         0.0600 
    222 H222       -5.5766  -27.9847  -55.0707 H         1 UNK         0.0600 
    223 H223       -6.4226  -28.1293  -53.5300 H         1 UNK         0.0600 
    224 H224       -7.0176  -27.0271  -54.7591 H         1 UNK         0.0600 
    225 H225       -3.4083  -24.5060  -53.4784 H         1 UNK         0.3000 
    226 H226       -3.5143  -23.5003  -56.2669 H         1 UNK         0.0600 
    227 H227       -1.2796  -23.8904  -55.2827 H         1 UNK         0.0600 
    228 H228       -1.5354  -22.1740  -55.5690 H         1 UNK         0.0600 
    229 H229       -1.6460  -22.8179  -53.9381 H         1 UNK         0.0600 
    230 H230       -3.5124  -22.1646  -52.9697 H         1 UNK         0.3000 
    231 H231       -4.3950  -20.4751  -51.9098 H         1 UNK         0.0600 
    232 H232       -6.7550  -19.8662  -52.2950 H         1 UNK         0.0600 
    233 H233       -6.5777  -21.5998  -52.5110 H         1 UNK         0.0600 
    234 H234       -6.7181  -20.5452  -53.9142 H         1 UNK         0.0600 
    235 H235       -4.8852  -18.2128  -51.7892 H         1 UNK         0.3000 
    236 H236       -4.3971  -16.0727  -52.1103 H         1 UNK         0.0600 
    237 H237       -6.3814  -16.2867  -53.6098 H         1 UNK         0.0600 
    238 H238       -5.2871  -15.0339  -54.1711 H         1 UNK         0.0600 
    239 H239       -5.3217  -16.5933  -54.9846 H         1 UNK         0.0600 
    240 H240       -2.1712  -17.6350  -52.1660 H         1 UNK         0.3000 
    241 H241       -0.5141  -17.4184  -54.3752 H         1 UNK         0.0600 
    242 H242       -1.0675  -14.7263  -52.3118 H         1 UNK         0.3800 
    243 H243        0.4155  -13.8842  -52.6706 H         1 UNK         0.3800 
    244 H244        1.1607  -18.5288  -53.0931 H         1 UNK         0.0800 
    245 H245        0.5856  -17.9062  -51.5825 H         1 UNK         0.0800 
    246 H246       -0.8728  -21.0148  -50.2954 H         1 UNK         0.0800 
    247 H247        0.1588  -19.6310  -50.0807 H         1 UNK         0.0800 
@<TRIPOS>BOND
     1    1    2 1    
     2    1  127 1    
     3    1  128 1    
     4    1  129 1    
     5    2    3 2    
     6    2    4 am   BACKBONE|DICT|INTERRES
     7    4    5 1    
     8    4  130 1    
     9    5    6 1    
    10    5   65 1    
    11    5  131 1    
    12    6    7 1    
    13    6  132 1    
    14    6  133 1    
    15    7    8 1    
    16    8    9 1    
    17    8  134 1    
    18    8  135 1    
    19    9   10 ar   
    20    9   14 ar   
    21   10   11 ar   
    22   10  136 1    
    23   11   12 ar   
    24   11  126 1    
    25   12   13 ar   
    26   12  137 1    
    27   13   14 ar   
    28   13   15 1    
    29   14  138 1    
    30   15   16 1    
    31   15  139 1    
    32   15  140 1    
    33   16   17 1    
    34   17   18 1    
    35   17  141 1    
    36   17  142 1    
    37   18   19 1    
    38   18   67 1    
    39   18  143 1    
    40   19   20 am   BACKBONE|DICT|INTERRES
    41   19  144 1    
    42   20   21 2    
    43   20   22 1    
    44   22   23 1    
    45   22   24 1    
    46   22  145 1    
    47   23  146 1    
    48   23  147 1    
    49   23  148 1    
    50   24   25 am   BACKBONE|DICT|INTERRES
    51   24  149 1    
    52   25   26 2    
    53   25   27 1    
    54   27   28 1    
    55   27   29 1    
    56   27  150 1    
    57   28  151 1    
    58   28  152 1    
    59   28  153 1    
    60   29   30 am   BACKBONE|DICT|INTERRES
    61   29  154 1    
    62   30   31 2    
    63   30   32 1    
    64   32   33 1    
    65   32   34 1    
    66   32  155 1    
    67   33  156 1    
    68   33  157 1    
    69   33  158 1    
    70   34   35 am   BACKBONE|DICT|INTERRES
    71   34  159 1    
    72   35   36 2    
    73   35   37 1    
    74   37   38 1    
    75   37   39 1    
    76   37  160 1    
    77   38  161 1    
    78   38  162 1    
    79   38  163 1    
    80   39   40 am   BACKBONE|DICT|INTERRES
    81   39  164 1    
    82   40   41 2    
    83   40   42 1    
    84   42   43 1    
    85   42   44 1    
    86   42  165 1    
    87   43  166 1    
    88   43  167 1    
    89   43  168 1    
    90   44   45 am   BACKBONE|DICT|INTERRES
    91   44  169 1    
    92   45   46 2    
    93   45   47 1    
    94   47   48 1    
    95   47   49 1    
    96   47  170 1    
    97   48  171 1    
    98   48  172 1    
    99   48  173 1    
   100   49   50 am   BACKBONE|DICT|INTERRES
   101   49  174 1    
   102   50   51 2    
   103   50   52 1    
   104   52   53 1    
   105   52   54 1    
   106   52  175 1    
   107   53  176 1    
   108   53  177 1    
   109   53  178 1    
   110   54   55 am   BACKBONE|DICT|INTERRES
   111   54  179 1    
   112   55   56 2    
   113   55   57 1    
   114   57   58 1    
   115   57   59 1    
   116   57  180 1    
   117   58  181 1    
   118   58  182 1    
   119   58  183 1    
   120   59   60 am   BACKBONE|DICT|INTERRES
   121   59  184 1    
   122   60   61 2    
   123   60   62 1    
   124   62   63 1    
   125   62   64 1    
   126   62  185 1    
   127   63  186 1    
   128   63  187 1    
   129   63  188 1    
   130   64   65 am   BACKBONE|DICT|INTERRES
   131   64  189 1    
   132   65   66 2    
   133   67   68 2    
   134   67   69 am   BACKBONE|DICT|INTERRES
   135   69   70 1    
   136   69  190 1    
   137   70   71 1    
   138   70   72 1    
   139   70  191 1    
   140   71  192 1    
   141   71  193 1    
   142   71  194 1    
   143   72   73 2    
   144   72   74 am   BACKBONE|DICT|INTERRES
   145   74   75 1    
   146   74  195 1    
   147   75   76 1    
   148   75   77 1    
   149   75  196 1    
   150   76  197 1    
   151   76  198 1    
   152   76  199 1    
   153   77   78 2    
   154   77   79 am   BACKBONE|DICT|INTERRES
   155   79   80 1    
   156   79  200 1    
   157   80   81 1    
   158   80   82 1    
   159   80  201 1    
   160   81  202 1    
   161   81  203 1    
   162   81  204 1    
   163   82   83 2    
   164   82   84 am   BACKBONE|DICT|INTERRES
   165   84   85 1    
   166   84  205 1    
   167   85   86 1    
   168   85   87 1    
   169   85  206 1    
   170   86  207 1    
   171   86  208 1    
   172   86  209 1    
   173   87   88 2    
   174   87   89 am   BACKBONE|DICT|INTERRES
   175   89   90 1    
   176   89  210 1    
   177   90   91 1    
   178   90   92 1    
   179   90  211 1    
   180   91  212 1    
   181   91  213 1    
   182   91  214 1    
   183   92   93 2    
   184   92   94 am   BACKBONE|DICT|INTERRES
   185   94   95 1    
   186   94  215 1    
   187   95   96 1    
   188   95   97 1    
   189   95  216 1    
   190   96  217 1    
   191   96  218 1    
   192   96  219 1    
   193   97   98 2    
   194   97   99 am   BACKBONE|DICT|INTERRES
   195   99  100 1    
   196   99  220 1    
   197  100  101 1    
   198  100  102 1    
   199  100  221 1    
   200  101  222 1    
   201  101  223 1    
   202  101  224 1    
   203  102  103 2    
   204  102  104 am   BACKBONE|DICT|INTERRES
   205  104  105 1    
   206  104  225 1    
   207  105  106 1    
   208  105  107 1    
   209  105  226 1    
   210  106  227 1    
   211  106  228 1    
   212  106  229 1    
   213  107  108 2    
   214  107  109 am   BACKBONE|DICT|INTERRES
   215  109  110 1    
   216  109  230 1    
   217  110  111 1    
   218  110  112 1    
   219  110  231 1    
   220  111  232 1    
   221  111  233 1    
   222  111  234 1    
   223  112  113 2    
   224  112  114 am   BACKBONE|DICT|INTERRES
   225  114  115 1    
   226  114  235 1    
   227  115  116 1    
   228  115  117 1    
   229  115  236 1    
   230  116  237 1    
   231  116  238 1    
   232  116  239 1    
   233  117  118 2    
   234  117  119 am   BACKBONE|DICT|INTERRES
   235  119  120 1    
   236  119  240 1    
   237  120  121 1    
   238  120  124 1    
   239  120  241 1    
   240  121  122 am   BACKBONE|DICT|INTERRES
   241  121  123 2    
   242  122  242 1    
   243  122  243 1    
   244  124  125 1    
   245  124  244 1    
   246  124  245 1    
   247  125  126 1    
   248  126  246 1    
   249  126  247 1    
@<TRIPOS>SUBSTRUCTURE
     1 UNK         1 GROUP             0       ****    0 ROOT    
