@<TRIPOS>MOLECULE
3R540
247   249    1
SMALL
USER_CHARGES


@<TRIPOS>ATOM
      1 CA          3.1854   -9.4054  -49.6849 C.3       0 UNK        -0.1800 
      2 C           1.7010   -9.7695  -49.6741 C.2       0 UNK         0.5000 
      3 O           0.8653   -8.8754  -49.5569 O.2       0 UNK        -0.5000 
      4 N           1.3157  -11.0471  -49.8079 N.am      1 UNK        -0.5000 
      5 CA          2.1703  -12.2375  -49.8647 C.3       1 UNK         0.1400 
      6 C6          1.3489  -13.4789  -50.2940 C.3       23 UNK        -0.0398 
      7 S7          2.3803  -14.9158  -50.7446 S.3       23 UNK        -0.2404 
      8 C8          1.2067  -15.9079  -51.7233 C.3       23 UNK        -0.0205 
      9 C9          0.3484  -16.8152  -50.8524 C.ar      23 UNK        -0.0193 
     10 C10        -0.8526  -16.3530  -50.3040 C.ar      23 UNK        -0.1150 
     11 C11        -1.6536  -17.2026  -49.5335 C.ar      23 UNK        -0.0193 
     12 C12        -1.2485  -18.5220  -49.3195 C.ar      23 UNK        -0.1150 
     13 C13        -0.0588  -19.0014  -49.8741 C.ar      23 UNK        -0.0193 
     14 C14         0.7387  -18.1396  -50.6317 C.ar      23 UNK        -0.1150 
     15 C15         0.3360  -20.4626  -49.7168 C.3       23 UNK        -0.0205 
     16 S16         1.4046  -20.7682  -48.2781 S.3       23 UNK        -0.2404 
     17 C17         0.2451  -20.6385  -46.8755 C.3       23 UNK        -0.0398 
     18 CA         -0.2647  -22.0170  -46.3918 C.3       11 UNK         0.1400 
     19 N          -0.6528  -21.9777  -44.9787 N.am      11 UNK        -0.5000 
     20 C          -0.9836  -23.0502  -44.2463 C.2       10 UNK         0.5000 
     21 O          -0.9969  -24.1977  -44.6862 O.2       10 UNK        -0.5000 
     22 CA         -1.4318  -22.7938  -42.8011 C.3       10 UNK         0.1400 
     23 CB         -0.2236  -22.5315  -41.8915 C.3       10 UNK        -0.1800 
     24 N          -2.3694  -21.6744  -42.7356 N.am      10 UNK        -0.5000 
     25 C          -3.6442  -21.7457  -43.1454 C.2       9 UNK         0.5000 
     26 O          -4.1750  -22.7782  -43.5545 O.2       9 UNK        -0.5000 
     27 CA         -4.4576  -20.4389  -43.1168 C.3       9 UNK         0.1400 
     28 CB         -5.1326  -20.2540  -41.7496 C.3       9 UNK        -0.1800 
     29 N          -3.6570  -19.2520  -43.4227 N.am      9 UNK        -0.5000 
     30 C          -3.0916  -19.0017  -44.6118 C.2       8 UNK         0.5000 
     31 O          -3.1578  -19.7578  -45.5796 O.2       8 UNK        -0.5000 
     32 CA         -2.2793  -17.7008  -44.7239 C.3       8 UNK         0.1400 
     33 CB         -3.2331  -16.5088  -44.9132 C.3       8 UNK        -0.1800 
     34 N          -1.4002  -17.4482  -43.5749 N.am      8 UNK        -0.5000 
     35 C          -0.4760  -18.2992  -43.1072 C.2       7 UNK         0.5000 
     36 O          -0.2429  -19.3990  -43.6153 O.2       7 UNK        -0.5000 
     37 CA          0.2949  -17.8540  -41.8547 C.3       7 UNK         0.1400 
     38 CB          0.7473  -19.0670  -41.0117 C.3       7 UNK        -0.1800 
     39 N           1.4368  -17.0265  -42.2411 N.am      7 UNK        -0.5000 
     40 C           2.2004  -16.3330  -41.3837 C.2       6 UNK         0.5000 
     41 O           2.0021  -16.2928  -40.1683 O.2       6 UNK        -0.5000 
     42 CA          3.3764  -15.5323  -41.9728 C.3       6 UNK         0.1400 
     43 CB          4.3920  -16.4440  -42.6811 C.3       6 UNK        -0.1800 
     44 N           2.9185  -14.4880  -42.8843 N.am      6 UNK        -0.5000 
     45 C           2.2433  -13.3905  -42.5122 C.2       5 UNK         0.5000 
     46 O           2.0252  -13.0816  -41.3402 O.2       5 UNK        -0.5000 
     47 CA          1.6932  -12.4978  -43.6414 C.3       5 UNK         0.1400 
     48 CB          2.7368  -11.4594  -44.0801 C.3       5 UNK        -0.1800 
     49 N           1.2560  -13.2671  -44.8057 N.am      5 UNK        -0.5000 
     50 C           0.2554  -14.1594  -44.8010 C.2       4 UNK         0.5000 
     51 O          -0.4652  -14.3894  -43.8292 O.2       4 UNK        -0.5000 
     52 CA          0.0559  -14.9568  -46.0975 C.3       4 UNK         0.1400 
     53 CB         -0.7646  -14.1469  -47.1098 C.3       4 UNK        -0.1800 
     54 N           1.3286  -15.3771  -46.6830 N.am      4 UNK        -0.5000 
     55 C           2.1198  -16.3212  -46.1510 C.2       3 UNK         0.5000 
     56 O           1.8314  -16.9646  -45.1418 O.2       3 UNK        -0.5000 
     57 CA          3.4840  -16.5504  -46.8274 C.3       3 UNK         0.1400 
     58 CB          3.3676  -17.5846  -47.9519 C.3       3 UNK        -0.1800 
     59 N           4.0568  -15.3172  -47.3639 N.am      3 UNK        -0.5000 
     60 C           4.5246  -14.3150  -46.6073 C.2       2 UNK         0.5000 
     61 O           4.5569  -14.3464  -45.3779 O.2       2 UNK        -0.5000 
     62 CA          4.9815  -13.0456  -47.3498 C.3       2 UNK         0.1400 
     63 CB          6.4587  -13.1565  -47.7541 C.3       2 UNK        -0.1800 
     64 N           4.1724  -12.7571  -48.5376 N.am      2 UNK        -0.5000 
     65 C           2.8649  -12.4682  -48.5065 C.2       1 UNK         0.5000 
     66 O           2.2054  -12.4096  -47.4665 O.2       1 UNK        -0.5000 
     67 C          -1.3942  -22.5722  -47.2904 C.2       11 UNK         0.5000 
     68 O          -1.1309  -23.3862  -48.1779 O.2       11 UNK        -0.5000 
     69 N          -2.6425  -22.1790  -47.0034 N.am      12 UNK        -0.5000 
     70 CA         -3.8523  -22.6751  -47.6617 C.3       12 UNK         0.1400 
     71 CB         -5.0442  -21.7945  -47.2580 C.3       12 UNK        -0.1800 
     72 C          -4.1564  -24.1653  -47.4046 C.2       12 UNK         0.5000 
     73 O          -4.9226  -24.7513  -48.1688 O.2       12 UNK        -0.5000 
     74 N          -3.5573  -24.7564  -46.3636 N.am      13 UNK        -0.5000 
     75 CA         -3.6292  -26.1875  -46.0797 C.3       13 UNK         0.1400 
     76 CB         -3.7373  -26.4011  -44.5611 C.3       13 UNK        -0.1800 
     77 C          -2.4068  -26.9248  -46.6533 C.2       13 UNK         0.5000 
     78 O          -2.5707  -27.9637  -47.2934 O.2       13 UNK        -0.5000 
     79 N          -1.2062  -26.3876  -46.3967 N.am      14 UNK        -0.5000 
     80 CA          0.0767  -27.0028  -46.7302 C.3       14 UNK         0.1400 
     81 CB          1.1932  -26.3124  -45.9302 C.3       14 UNK        -0.1800 
     82 C           0.3954  -26.9813  -48.2335 C.2       14 UNK         0.5000 
     83 O           0.7642  -28.0191  -48.7855 O.2       14 UNK        -0.5000 
     84 N           0.2662  -25.8060  -48.8619 N.am      15 UNK        -0.5000 
     85 CA          0.5344  -25.6070  -50.2853 C.3       15 UNK         0.1400 
     86 CB          1.2127  -24.2450  -50.5022 C.3       15 UNK        -0.1800 
     87 C          -0.7653  -25.7099  -51.0932 C.2       15 UNK         0.5000 
     88 O          -0.7956  -26.4178  -52.1005 O.2       15 UNK        -0.5000 
     89 N          -1.8120  -25.0149  -50.6208 N.am      16 UNK        -0.5000 
     90 CA         -3.1904  -24.9698  -51.1274 C.3       16 UNK         0.1400 
     91 CB         -3.8673  -26.3494  -51.0261 C.3       16 UNK        -0.1800 
     92 C          -3.3465  -24.3667  -52.5365 C.2       16 UNK         0.5000 
     93 O          -4.0518  -23.3695  -52.6927 O.2       16 UNK        -0.5000 
     94 N          -2.6726  -24.9491  -53.5340 N.am      17 UNK        -0.5000 
     95 CA         -2.6928  -24.5181  -54.9342 C.3       17 UNK         0.1400 
     96 CB         -1.9983  -25.5812  -55.7980 C.3       17 UNK        -0.1800 
     97 C          -2.0460  -23.1373  -55.1479 C.2       17 UNK         0.5000 
     98 O          -2.4867  -22.3860  -56.0176 O.2       17 UNK        -0.5000 
     99 N          -1.0321  -22.8212  -54.3300 N.am      18 UNK        -0.5000 
    100 CA        -0.3689  -21.5171  -54.2957 C.3       18 UNK         0.1400 
    101 CB         0.9762  -21.6601  -53.5690 C.3       18 UNK        -0.1800 
    102 C         -1.2315  -20.4265  -53.6307 C.2       18 UNK         0.5000 
    103 O         -1.0703  -19.2510  -53.9583 O.2       18 UNK        -0.5000 
    104 N         -2.1277  -20.8341  -52.7204 N.am      19 UNK        -0.5000 
    105 CA        -3.0941  -19.9557  -52.0662 C.3       19 UNK         0.1400 
    106 CB        -3.5784  -20.6063  -50.7569 C.3       19 UNK        -0.1800 
    107 C         -4.2831  -19.6678  -52.9942 C.2       19 UNK         0.5000 
    108 O         -4.6230  -18.5058  -53.2136 O.2       19 UNK        -0.5000 
    109 N         -4.8915  -20.7473  -53.5115 N.am      20 UNK        -0.5000 
    110 CA        -6.1166  -20.7631  -54.3169 C.3       20 UNK         0.1400 
    111 CB        -5.8759  -20.1198  -55.6986 C.3       20 UNK        -0.1800 
    112 C         -7.3219  -20.1637  -53.5568 C.2       20 UNK         0.5000 
    113 O         -8.1163  -19.4252  -54.1409 O.2       20 UNK        -0.5000 
    114 N         -7.4162  -20.5108  -52.2622 N.am      21 UNK        -0.5000 
    115 CA        -8.4052  -20.0701  -51.2735 C.3       21 UNK         0.1400 
    116 CB        -9.8257  -20.5314  -51.6626 C.3       21 UNK        -0.1800 
    117 C         -8.3216  -18.5545  -50.9978 C.2       21 UNK         0.5000 
    118 O         -9.1207  -17.7794  -51.5272 O.2       21 UNK        -0.5000 
    119 N         -7.3494  -18.1637  -50.1617 N.am      22 UNK        -0.5000 
    120 CA        -7.1345  -16.7733  -49.7116 C.3       22 UNK         0.1400 
    121 C         -8.2644  -16.1901  -48.8090 C.2       22 UNK         0.5000 
    122 N         -9.1385  -16.9996  -48.2227 N.am      22 UNK        -0.7600 
    123 O         -8.3486  -14.9769  -48.6392 O.2       22 UNK        -0.5000 
    124 C124       -5.7614  -16.5895  -49.0120 C.3       23 UNK        -0.0398 
    125 S125       -4.3505  -17.0100  -50.0830 S.3       23 UNK        -0.2404 
    126 C126       -2.9671  -16.7137  -48.9435 C.3       23 UNK        -0.0205 
    127 H127        3.6439   -9.6344  -48.7231 H         1 UNK         0.0600 
    128 H128        3.3108   -8.3377  -49.8660 H         1 UNK         0.0600 
    129 H129        3.7266   -9.9325  -50.4697 H         1 UNK         0.0600 
    130 H130        0.3252  -11.2390  -49.7765 H         1 UNK         0.3000 
    131 H131        2.9302  -12.0641  -50.6285 H         1 UNK         0.0600 
    132 H132        0.6452  -13.7760  -49.5188 H         1 UNK         0.0800 
    133 H133        0.7435  -13.2206  -51.1640 H         1 UNK         0.0800 
    134 H134        0.5744  -15.2605  -52.3324 H         1 UNK         0.0800 
    135 H135        1.7758  -16.5133  -52.4304 H         1 UNK         0.0800 
    136 H136       -1.1708  -15.3366  -50.4868 H         1 UNK         0.1150 
    137 H137       -1.8826  -19.1815  -48.7451 H         1 UNK         0.1150 
    138 H138        1.6568  -18.5073  -51.0678 H         1 UNK         0.1150 
    139 H139       -0.5458  -21.0981  -49.6647 H         1 UNK         0.0800 
    140 H140        0.8772  -20.7818  -50.6068 H         1 UNK         0.0800 
    141 H141        0.8074  -20.1554  -46.0747 H         1 UNK         0.0800 
    142 H142       -0.5765  -19.9581  -47.0915 H         1 UNK         0.0800 
    143 H143        0.5650  -22.7246  -46.4538 H         1 UNK         0.0600 
    144 H144       -0.6467  -21.0652  -44.5305 H         1 UNK         0.3000 
    145 H145       -1.9371  -23.6917  -42.4381 H         1 UNK         0.0600 
    146 H146       -0.5347  -22.3197  -40.8685 H         1 UNK         0.0600 
    147 H147        0.4305  -23.4036  -41.8586 H         1 UNK         0.0600 
    148 H148        0.3745  -21.6927  -42.2458 H         1 UNK         0.0600 
    149 H149       -1.9947  -20.7779  -42.4633 H         1 UNK         0.3000 
    150 H150       -5.2391  -20.5210  -43.8752 H         1 UNK         0.0600 
    151 H151       -5.7553  -21.1149  -41.5023 H         1 UNK         0.0600 
    152 H152       -5.7784  -19.3757  -41.7438 H         1 UNK         0.0600 
    153 H153       -4.3998  -20.1385  -40.9500 H         1 UNK         0.0600 
    154 H154       -3.5424  -18.5758  -42.6822 H         1 UNK         0.3000 
    155 H155       -1.6503  -17.7943  -45.6110 H         1 UNK         0.0600 
    156 H156       -2.6934  -15.5798  -45.0864 H         1 UNK         0.0600 
    157 H157       -3.8669  -16.3597  -44.0382 H         1 UNK         0.0600 
    158 H158       -3.8926  -16.6637  -45.7677 H         1 UNK         0.0600 
    159 H159       -1.4870  -16.5409  -43.1363 H         1 UNK         0.3000 
    160 H160       -0.3809  -17.2492  -41.2466 H         1 UNK         0.0600 
    161 H161        1.5109  -19.6506  -41.5271 H         1 UNK         0.0600 
    162 H162       -0.0931  -19.7285  -40.8001 H         1 UNK         0.0600 
    163 H163        1.1554  -18.7645  -40.0481 H         1 UNK         0.0600 
    164 H164        1.6369  -16.9935  -43.2396 H         1 UNK         0.3000 
    165 H165        3.8957  -15.0479  -41.1430 H         1 UNK         0.0600 
    166 H166        3.9626  -16.9410  -43.5500 H         1 UNK         0.0600 
    167 H167        5.2592  -15.8764  -43.0189 H         1 UNK         0.0600 
    168 H168        4.7543  -17.2203  -42.0062 H         1 UNK         0.0600 
    169 H169        3.1214  -14.6204  -43.8680 H         1 UNK         0.3000 
    170 H170        0.8242  -11.9646  -43.2505 H         1 UNK         0.0600 
    171 H171        3.0371  -10.8308  -43.2410 H         1 UNK         0.0600 
    172 H172        3.6363  -11.9332  -44.4728 H         1 UNK         0.0600 
    173 H173        2.3395  -10.8026  -44.8544 H         1 UNK         0.0600 
    174 H174        1.7521  -13.1000  -45.6759 H         1 UNK         0.3000 
    175 H175       -0.5019  -15.8591  -45.8581 H         1 UNK         0.0600 
    176 H176       -1.7586  -13.9286  -46.7181 H         1 UNK         0.0600 
    177 H177       -0.2960  -13.1926  -47.3483 H         1 UNK         0.0600 
    178 H178       -0.8961  -14.6998  -48.0360 H         1 UNK         0.0600 
    179 H179        1.6587  -14.8615  -47.4842 H         1 UNK         0.3000 
    180 H180        4.1696  -16.9449  -46.0745 H         1 UNK         0.0600 
    181 H181        2.6508  -17.2761  -48.7126 H         1 UNK         0.0600 
    182 H182        3.0352  -18.5409  -47.5513 H         1 UNK         0.0600 
    183 H183        4.3273  -17.7542  -48.4401 H         1 UNK         0.0600 
    184 H184        4.0585  -15.2113  -48.3681 H         1 UNK         0.3000 
    185 H185        4.8785  -12.2046  -46.6611 H         1 UNK         0.0600 
    186 H186        6.8139  -12.2313  -48.2084 H         1 UNK         0.0600 
    187 H187        7.0873  -13.3521  -46.8842 H         1 UNK         0.0600 
    188 H188        6.6228  -13.9660  -48.4665 H         1 UNK         0.0600 
    189 H189        4.6491  -12.8023  -49.4271 H         1 UNK         0.3000 
    190 H190       -2.7816  -21.4610  -46.2962 H         1 UNK         0.3000 
    191 H191       -3.7073  -22.5717  -48.7365 H         1 UNK         0.0600 
    192 H192       -5.9611  -22.1230  -47.7489 H         1 UNK         0.0600 
    193 H193       -4.8794  -20.7549  -47.5423 H         1 UNK         0.0600 
    194 H194       -5.2163  -21.8253  -46.1816 H         1 UNK         0.0600 
    195 H195       -2.9385  -24.2090  -45.7802 H         1 UNK         0.3000 
    196 H196       -4.5234  -26.6181  -46.5353 H         1 UNK         0.0600 
    197 H197       -3.8118  -27.4624  -44.3213 H         1 UNK         0.0600 
    198 H198       -4.6256  -25.9128  -44.1596 H         1 UNK         0.0600 
    199 H199       -2.8728  -26.0044  -44.0283 H         1 UNK         0.0600 
    200 H200       -1.1597  -25.5431  -45.8294 H         1 UNK         0.3000 
    201 H201        0.0391  -28.0478  -46.4150 H         1 UNK         0.0600 
    202 H202        1.0212  -26.4022  -44.8574 H         1 UNK         0.0600 
    203 H203        1.2632  -25.2503  -46.1679 H         1 UNK         0.0600 
    204 H204        2.1637  -26.7625  -46.1430 H         1 UNK         0.0600 
    205 H205       -0.1031  -25.0071  -48.3558 H         1 UNK         0.3000 
    206 H206        1.2202  -26.3755  -50.6487 H         1 UNK         0.0600 
    207 H207        2.1214  -24.1584  -49.9062 H         1 UNK         0.0600 
    208 H208        1.4982  -24.1199  -51.5468 H         1 UNK         0.0600 
    209 H209        0.5614  -23.4131  -50.2358 H         1 UNK         0.0600 
    210 H210       -1.6442  -24.4527  -49.7919 H         1 UNK         0.3000 
    211 H211       -3.7251  -24.2977  -50.4578 H         1 UNK         0.0600 
    212 H212       -3.3929  -27.0903  -51.6699 H         1 UNK         0.0600 
    213 H213       -4.9172  -26.2890  -51.3150 H         1 UNK         0.0600 
    214 H214       -3.8342  -26.7259  -50.0033 H         1 UNK         0.0600 
    215 H215       -2.0593  -25.7236  -53.2916 H         1 UNK         0.3000 
    216 H216       -3.7358  -24.4464  -55.2497 H         1 UNK         0.0600 
    217 H217       -0.9565  -25.7193  -55.5056 H         1 UNK         0.0600 
    218 H218       -2.5003  -26.5453  -55.7148 H         1 UNK         0.0600 
    219 H219       -2.0105  -25.2986  -56.8515 H         1 UNK         0.0600 
    220 H220       -0.7234  -23.5122  -53.6628 H         1 UNK         0.3000 
    221 H221       -0.1695  -21.2002  -55.3218 H         1 UNK         0.0600 
    222 H222        1.6362  -22.3511  -54.0937 H         1 UNK         0.0600 
    223 H223        1.4929  -20.7014  -53.5054 H         1 UNK         0.0600 
    224 H224        0.8430  -22.0304  -52.5537 H         1 UNK         0.0600 
    225 H225       -2.2334  -21.8240  -52.5591 H         1 UNK         0.3000 
    226 H226       -2.6066  -19.0092  -51.8232 H         1 UNK         0.0600 
    227 H227       -4.1666  -21.5058  -50.9302 H         1 UNK         0.0600 
    228 H228       -2.7434  -20.8829  -50.1186 H         1 UNK         0.0600 
    229 H229       -4.2065  -19.9213  -50.1886 H         1 UNK         0.0600 
    230 H230       -4.5304  -21.6651  -53.2594 H         1 UNK         0.3000 
    231 H231       -6.3553  -21.8144  -54.4839 H         1 UNK         0.0600 
    232 H232       -6.7416  -20.2549  -56.3478 H         1 UNK         0.0600 
    233 H233       -5.0207  -20.5744  -56.1992 H         1 UNK         0.0600 
    234 H234       -5.6892  -19.0484  -55.6222 H         1 UNK         0.0600 
    235 H235       -6.6925  -21.1165  -51.9030 H         1 UNK         0.3000 
    236 H236       -8.1527  -20.5779  -50.3412 H         1 UNK         0.0600 
    237 H237       -9.8661  -21.6128  -51.7931 H         1 UNK         0.0600 
    238 H238      -10.5434  -20.2711  -50.8837 H         1 UNK         0.0600 
    239 H239      -10.1717  -20.0702  -52.5878 H         1 UNK         0.0600 
    240 H240       -6.7151  -18.8513  -49.7848 H         1 UNK         0.3000 
    241 H241       -7.1262  -16.1520  -50.6094 H         1 UNK         0.0600 
    242 H242       -9.0844  -17.9970  -48.3492 H         1 UNK         0.3800 
    243 H243       -9.8659  -16.6074  -47.6455 H         1 UNK         0.3800 
    244 H244       -5.6298  -15.5542  -48.6911 H         1 UNK         0.0800 
    245 H245       -5.7116  -17.2007  -48.1090 H         1 UNK         0.0800 
    246 H246       -3.1569  -17.2269  -48.0001 H         1 UNK         0.0800 
    247 H247       -2.9147  -15.6488  -48.7161 H         1 UNK         0.0800 
@<TRIPOS>BOND
     1    1    2 1    
     2    1  127 1    
     3    1  128 1    
     4    1  129 1    
     5    2    3 2    
     6    2    4 am   BACKBONE|DICT|INTERRES
     7    4    5 1    
     8    4  130 1    
     9    5    6 1    
    10    5   65 1    
    11    5  131 1    
    12    6    7 1    
    13    6  132 1    
    14    6  133 1    
    15    7    8 1    
    16    8    9 1    
    17    8  134 1    
    18    8  135 1    
    19    9   10 ar   
    20    9   14 ar   
    21   10   11 ar   
    22   10  136 1    
    23   11   12 ar   
    24   11  126 1    
    25   12   13 ar   
    26   12  137 1    
    27   13   14 ar   
    28   13   15 1    
    29   14  138 1    
    30   15   16 1    
    31   15  139 1    
    32   15  140 1    
    33   16   17 1    
    34   17   18 1    
    35   17  141 1    
    36   17  142 1    
    37   18   19 1    
    38   18   67 1    
    39   18  143 1    
    40   19   20 am   BACKBONE|DICT|INTERRES
    41   19  144 1    
    42   20   21 2    
    43   20   22 1    
    44   22   23 1    
    45   22   24 1    
    46   22  145 1    
    47   23  146 1    
    48   23  147 1    
    49   23  148 1    
    50   24   25 am   BACKBONE|DICT|INTERRES
    51   24  149 1    
    52   25   26 2    
    53   25   27 1    
    54   27   28 1    
    55   27   29 1    
    56   27  150 1    
    57   28  151 1    
    58   28  152 1    
    59   28  153 1    
    60   29   30 am   BACKBONE|DICT|INTERRES
    61   29  154 1    
    62   30   31 2    
    63   30   32 1    
    64   32   33 1    
    65   32   34 1    
    66   32  155 1    
    67   33  156 1    
    68   33  157 1    
    69   33  158 1    
    70   34   35 am   BACKBONE|DICT|INTERRES
    71   34  159 1    
    72   35   36 2    
    73   35   37 1    
    74   37   38 1    
    75   37   39 1    
    76   37  160 1    
    77   38  161 1    
    78   38  162 1    
    79   38  163 1    
    80   39   40 am   BACKBONE|DICT|INTERRES
    81   39  164 1    
    82   40   41 2    
    83   40   42 1    
    84   42   43 1    
    85   42   44 1    
    86   42  165 1    
    87   43  166 1    
    88   43  167 1    
    89   43  168 1    
    90   44   45 am   BACKBONE|DICT|INTERRES
    91   44  169 1    
    92   45   46 2    
    93   45   47 1    
    94   47   48 1    
    95   47   49 1    
    96   47  170 1    
    97   48  171 1    
    98   48  172 1    
    99   48  173 1    
   100   49   50 am   BACKBONE|DICT|INTERRES
   101   49  174 1    
   102   50   51 2    
   103   50   52 1    
   104   52   53 1    
   105   52   54 1    
   106   52  175 1    
   107   53  176 1    
   108   53  177 1    
   109   53  178 1    
   110   54   55 am   BACKBONE|DICT|INTERRES
   111   54  179 1    
   112   55   56 2    
   113   55   57 1    
   114   57   58 1    
   115   57   59 1    
   116   57  180 1    
   117   58  181 1    
   118   58  182 1    
   119   58  183 1    
   120   59   60 am   BACKBONE|DICT|INTERRES
   121   59  184 1    
   122   60   61 2    
   123   60   62 1    
   124   62   63 1    
   125   62   64 1    
   126   62  185 1    
   127   63  186 1    
   128   63  187 1    
   129   63  188 1    
   130   64   65 am   BACKBONE|DICT|INTERRES
   131   64  189 1    
   132   65   66 2    
   133   67   68 2    
   134   67   69 am   BACKBONE|DICT|INTERRES
   135   69   70 1    
   136   69  190 1    
   137   70   71 1    
   138   70   72 1    
   139   70  191 1    
   140   71  192 1    
   141   71  193 1    
   142   71  194 1    
   143   72   73 2    
   144   72   74 am   BACKBONE|DICT|INTERRES
   145   74   75 1    
   146   74  195 1    
   147   75   76 1    
   148   75   77 1    
   149   75  196 1    
   150   76  197 1    
   151   76  198 1    
   152   76  199 1    
   153   77   78 2    
   154   77   79 am   BACKBONE|DICT|INTERRES
   155   79   80 1    
   156   79  200 1    
   157   80   81 1    
   158   80   82 1    
   159   80  201 1    
   160   81  202 1    
   161   81  203 1    
   162   81  204 1    
   163   82   83 2    
   164   82   84 am   BACKBONE|DICT|INTERRES
   165   84   85 1    
   166   84  205 1    
   167   85   86 1    
   168   85   87 1    
   169   85  206 1    
   170   86  207 1    
   171   86  208 1    
   172   86  209 1    
   173   87   88 2    
   174   87   89 am   BACKBONE|DICT|INTERRES
   175   89   90 1    
   176   89  210 1    
   177   90   91 1    
   178   90   92 1    
   179   90  211 1    
   180   91  212 1    
   181   91  213 1    
   182   91  214 1    
   183   92   93 2    
   184   92   94 am   BACKBONE|DICT|INTERRES
   185   94   95 1    
   186   94  215 1    
   187   95   96 1    
   188   95   97 1    
   189   95  216 1    
   190   96  217 1    
   191   96  218 1    
   192   96  219 1    
   193   97   98 2    
   194   97   99 am   BACKBONE|DICT|INTERRES
   195   99  100 1    
   196   99  220 1    
   197  100  101 1    
   198  100  102 1    
   199  100  221 1    
   200  101  222 1    
   201  101  223 1    
   202  101  224 1    
   203  102  103 2    
   204  102  104 am   BACKBONE|DICT|INTERRES
   205  104  105 1    
   206  104  225 1    
   207  105  106 1    
   208  105  107 1    
   209  105  226 1    
   210  106  227 1    
   211  106  228 1    
   212  106  229 1    
   213  107  108 2    
   214  107  109 am   BACKBONE|DICT|INTERRES
   215  109  110 1    
   216  109  230 1    
   217  110  111 1    
   218  110  112 1    
   219  110  231 1    
   220  111  232 1    
   221  111  233 1    
   222  111  234 1    
   223  112  113 2    
   224  112  114 am   BACKBONE|DICT|INTERRES
   225  114  115 1    
   226  114  235 1    
   227  115  116 1    
   228  115  117 1    
   229  115  236 1    
   230  116  237 1    
   231  116  238 1    
   232  116  239 1    
   233  117  118 2    
   234  117  119 am   BACKBONE|DICT|INTERRES
   235  119  120 1    
   236  119  240 1    
   237  120  121 1    
   238  120  124 1    
   239  120  241 1    
   240  121  122 am   BACKBONE|DICT|INTERRES
   241  121  123 2    
   242  122  242 1    
   243  122  243 1    
   244  124  125 1    
   245  124  244 1    
   246  124  245 1    
   247  125  126 1    
   248  126  246 1    
   249  126  247 1    
@<TRIPOS>SUBSTRUCTURE
     1 UNK         1 GROUP             0       ****    0 ROOT    
