@<TRIPOS>MOLECULE
3R540
247   249    1
SMALL
USER_CHARGES


@<TRIPOS>ATOM
      1 CA         -1.6844  -11.1266  -42.9931 C.3       0 UNK        -0.1800 
      2 C          -2.4071  -11.3737  -44.3097 C.2       0 UNK         0.5000 
      3 O          -2.5460  -10.4527  -45.1146 O.2       0 UNK        -0.5000 
      4 N          -2.8660  -12.6124  -44.5274 N.am      1 UNK        -0.5000 
      5 CA         -3.4828  -13.0727  -45.7754 C.3       1 UNK         0.1400 
      6 C6         -4.3130  -14.3743  -45.5736 C.3       23 UNK        -0.0398 
      7 S7         -6.0098  -14.2738  -46.2417 S.3       23 UNK        -0.2404 
      8 C8         -5.7783  -14.5447  -48.0315 C.3       23 UNK        -0.0205 
      9 C9         -5.0853  -15.8605  -48.3570 C.ar      23 UNK        -0.0193 
     10 C10        -3.8075  -15.8502  -48.9238 C.ar      23 UNK        -0.1150 
     11 C11        -3.1513  -17.0446  -49.2226 C.ar      23 UNK        -0.0193 
     12 C12        -3.7873  -18.2583  -48.9561 C.ar      23 UNK        -0.1150 
     13 C13        -5.0774  -18.2875  -48.4201 C.ar      23 UNK        -0.0193 
     14 C14        -5.7220  -17.0836  -48.1178 C.ar      23 UNK        -0.1150 
     15 C15        -5.7733  -19.6239  -48.1978 C.3       23 UNK        -0.0205 
     16 S16        -5.7784  -20.1559  -46.4535 S.3       23 UNK        -0.2404 
     17 C17        -4.0059  -20.1607  -46.0291 C.3       23 UNK        -0.0398 
     18 CA         -3.2551  -21.4224  -46.5274 C.3       11 UNK         0.1400 
     19 N          -1.8995  -21.1075  -46.9748 N.am      11 UNK        -0.5000 
     20 C          -1.0852  -21.9358  -47.6425 C.2       10 UNK         0.5000 
     21 O          -1.4065  -23.0643  -48.0219 O.2       10 UNK        -0.5000 
     22 CA          0.3389  -21.4151  -47.9087 C.3       10 UNK         0.1400 
     23 CB          0.4087  -20.7285  -49.2793 C.3       10 UNK        -0.1800 
     24 N           0.8129  -20.4919  -46.8705 N.am      10 UNK        -0.5000 
     25 C           1.0913  -20.8689  -45.6142 C.2       9 UNK         0.5000 
     26 O           0.9545  -22.0208  -45.2033 O.2       9 UNK        -0.5000 
     27 CA          1.5597  -19.7695  -44.6432 C.3       9 UNK         0.1400 
     28 CB          2.9690  -19.2843  -45.0198 C.3       9 UNK        -0.1800 
     29 N           0.6620  -18.6127  -44.5302 N.am      9 UNK        -0.5000 
     30 C          -0.6621  -18.6492  -44.3115 C.2       8 UNK         0.5000 
     31 O          -1.3264  -19.6848  -44.2828 O.2       8 UNK        -0.5000 
     32 CA         -1.3368  -17.2949  -44.0400 C.3       8 UNK         0.1400 
     33 CB         -2.8214  -17.4049  -43.6455 C.3       8 UNK        -0.1800 
     34 N          -0.6020  -16.6077  -42.9828 N.am      8 UNK        -0.5000 
     35 C          -0.3724  -15.2927  -42.9361 C.2       7 UNK         0.5000 
     36 O          -0.7608  -14.5004  -43.7942 O.2       7 UNK        -0.5000 
     37 CA          0.4659  -14.7716  -41.7557 C.3       7 UNK         0.1400 
     38 CB         -0.4435  -14.4468  -40.5607 C.3       7 UNK        -0.1800 
     39 N           1.5278  -15.6818  -41.3156 N.am      7 UNK        -0.5000 
     40 C           2.5067  -16.1685  -42.0884 C.2       6 UNK         0.5000 
     41 O           2.5848  -15.9772  -43.3090 O.2       6 UNK        -0.5000 
     42 CA          3.5673  -17.0212  -41.3747 C.3       6 UNK         0.1400 
     43 CB          3.0438  -18.4327  -41.0634 C.3       6 UNK        -0.1800 
     44 N           4.7136  -17.1068  -42.2634 N.am      6 UNK        -0.5000 
     45 C           6.0023  -17.0156  -41.9237 C.2       5 UNK         0.5000 
     46 O           6.4150  -17.0531  -40.7638 O.2       5 UNK        -0.5000 
     47 CA          6.9942  -16.8133  -43.0899 C.3       5 UNK         0.1400 
     48 CB          7.6529  -18.1475  -43.4725 C.3       5 UNK        -0.1800 
     49 N           6.3624  -16.2344  -44.2835 N.am      5 UNK        -0.5000 
     50 C           5.8483  -14.9972  -44.3592 C.2       4 UNK         0.5000 
     51 O           5.9589  -14.1655  -43.4556 O.2       4 UNK        -0.5000 
     52 CA          5.0571  -14.6369  -45.6333 C.3       4 UNK         0.1400 
     53 CB          4.7061  -15.8522  -46.5167 C.3       4 UNK        -0.1800 
     54 N           3.8082  -13.9761  -45.2613 N.am      4 UNK        -0.5000 
     55 C           3.5860  -12.6566  -45.3047 C.2       3 UNK         0.5000 
     56 O           4.4357  -11.8290  -45.6419 O.2       3 UNK        -0.5000 
     57 CA          2.1519  -12.2023  -44.9461 C.3       3 UNK         0.1400 
     58 CB          1.9011  -10.7082  -45.2393 C.3       3 UNK        -0.1800 
     59 N           1.1208  -13.0273  -45.5897 N.am      3 UNK        -0.5000 
     60 C           0.9737  -13.2592  -46.9065 C.2       2 UNK         0.5000 
     61 O           1.6730  -12.7565  -47.7866 O.2       2 UNK        -0.5000 
     62 CA         -0.1496  -14.2279  -47.3053 C.3       2 UNK         0.1400 
     63 CB          0.3231  -15.6812  -47.1189 C.3       2 UNK        -0.1800 
     64 N          -1.3393  -13.9977  -46.4896 N.am      2 UNK        -0.5000 
     65 C          -2.3966  -13.2598  -46.8539 C.2       1 UNK         0.5000 
     66 O          -2.5246  -12.7293  -47.9577 O.2       1 UNK        -0.5000 
     67 C          -3.2320  -22.5351  -45.4622 C.2       11 UNK         0.5000 
     68 O          -3.9250  -23.5421  -45.6067 O.2       11 UNK        -0.5000 
     69 N          -2.3843  -22.3470  -44.4427 N.am      12 UNK        -0.5000 
     70 CA         -2.1434  -23.3038  -43.3657 C.3       12 UNK         0.1400 
     71 CB         -1.2733  -22.6364  -42.2895 C.3       12 UNK        -0.1800 
     72 C          -1.4964  -24.6108  -43.8594 C.2       12 UNK         0.5000 
     73 O          -1.8439  -25.6820  -43.3606 O.2       12 UNK        -0.5000 
     74 N          -0.5749  -24.4993  -44.8262 N.am      13 UNK        -0.5000 
     75 CA          0.1451  -25.6246  -45.4152 C.3       13 UNK         0.1400 
     76 CB          1.3371  -25.1101  -46.2372 C.3       13 UNK        -0.1800 
     77 C          -0.7472  -26.5412  -46.2697 C.2       13 UNK         0.5000 
     78 O          -0.7410  -27.7536  -46.0479 O.2       13 UNK        -0.5000 
     79 N          -1.4676  -25.9680  -47.2456 N.am      14 UNK        -0.5000 
     80 CA         -2.1721  -26.7421  -48.2733 C.3       14 UNK         0.1400 
     81 CB         -1.1545  -27.2652  -49.3144 C.3       14 UNK        -0.1800 
     82 C          -3.3183  -25.9581  -48.9382 C.2       14 UNK         0.5000 
     83 O          -3.6135  -26.2085  -50.1091 O.2       14 UNK        -0.5000 
     84 N          -3.9307  -25.0025  -48.2193 N.am      15 UNK        -0.5000 
     85 CA         -5.0326  -24.1379  -48.6795 C.3       15 UNK         0.1400 
     86 CB         -6.3147  -24.9711  -48.8931 C.3       15 UNK        -0.1800 
     87 C          -4.6825  -23.2880  -49.9241 C.2       15 UNK         0.5000 
     88 O          -5.5820  -22.9100  -50.6767 O.2       15 UNK        -0.5000 
     89 N          -3.3790  -23.0571  -50.1562 N.am      16 UNK        -0.5000 
     90 CA         -2.7770  -22.5160  -51.3810 C.3       16 UNK         0.1400 
     91 CB         -2.9565  -20.9901  -51.4383 C.3       16 UNK        -0.1800 
     92 C          -3.2533  -23.2518  -52.6543 C.2       16 UNK         0.5000 
     93 O          -3.6234  -22.6191  -53.6477 O.2       16 UNK        -0.5000 
     94 N          -3.3074  -24.5901  -52.5549 N.am      17 UNK        -0.5000 
     95 CA         -3.7889  -25.5571  -53.5495 C.3       17 UNK         0.1400 
     96 CB         -2.9064  -25.5140  -54.8148 C.3       17 UNK        -0.1800 
     97 C          -5.2905  -25.4211  -53.8891 C.2       17 UNK         0.5000 
     98 O          -5.7383  -26.0068  -54.8761 O.2       17 UNK        -0.5000 
     99 N          -6.0322  -24.6302  -53.0943 N.am      18 UNK        -0.5000 
    100 CA        -7.4060  -24.1655  -53.3223 C.3       18 UNK         0.1400 
    101 CB        -8.4054  -25.3392  -53.2644 C.3       18 UNK        -0.1800 
    102 C         -7.5502  -23.3114  -54.6042 C.2       18 UNK         0.5000 
    103 O         -8.6524  -23.1978  -55.1446 O.2       18 UNK        -0.5000 
    104 N         -6.4343  -22.7318  -55.0685 N.am      19 UNK        -0.5000 
    105 CA        -6.3168  -21.9973  -56.3291 C.3       19 UNK         0.1400 
    106 CB        -5.5585  -22.8853  -57.3331 C.3       19 UNK        -0.1800 
    107 C         -5.6103  -20.6410  -56.1464 C.2       19 UNK         0.5000 
    108 O         -5.3363  -19.9711  -57.1432 O.2       19 UNK        -0.5000 
    109 N         -5.3108  -20.2689  -54.8909 N.am      20 UNK        -0.5000 
    110 CA        -4.5253  -19.0997  -54.4783 C.3       20 UNK         0.1400 
    111 CB        -5.2544  -17.7830  -54.8211 C.3       20 UNK        -0.1800 
    112 C         -3.0727  -19.1477  -55.0013 C.2       20 UNK         0.5000 
    113 O         -2.4921  -18.1116  -55.3316 O.2       20 UNK        -0.5000 
    114 N         -2.4921  -20.3560  -55.0356 N.am      21 UNK        -0.5000 
    115 CA        -1.0954  -20.6301  -55.3772 C.3       21 UNK         0.1400 
    116 CB        -0.9860  -22.0843  -55.8709 C.3       21 UNK        -0.1800 
    117 C         -0.1672  -20.3323  -54.1790 C.2       21 UNK         0.5000 
    118 O          0.5321  -21.2212  -53.6890 O.2       21 UNK        -0.5000 
    119 N         -0.2291  -19.0879  -53.6965 N.am      22 UNK        -0.5000 
    120 CA         0.5222  -18.5630  -52.5506 C.3       22 UNK         0.1400 
    121 C          2.0454  -18.4357  -52.8346 C.2       22 UNK         0.5000 
    122 N          2.8844  -18.5577  -51.8127 N.am      22 UNK        -0.7600 
    123 O          2.4735  -18.1842  -53.9614 O.2       22 UNK        -0.5000 
    124 C124       -0.0612  -17.2065  -52.0789 C.3       23 UNK        -0.0398 
    125 S125       -1.8308  -17.3143  -51.6309 S.3       23 UNK        -0.2404 
    126 C126       -1.7620  -17.0220  -49.8380 C.3       23 UNK        -0.0205 
    127 H127       -1.5894  -12.0432  -42.4069 H         1 UNK         0.0600 
    128 H128       -2.2326  -10.3937  -42.3967 H         1 UNK         0.0600 
    129 H129       -0.6804  -10.7379  -43.1785 H         1 UNK         0.0600 
    130 H130       -2.6509  -13.3317  -43.8495 H         1 UNK         0.3000 
    131 H131       -4.1491  -12.2783  -46.1191 H         1 UNK         0.0600 
    132 H132       -4.4346  -14.5769  -44.5081 H         1 UNK         0.0800 
    133 H133       -3.8168  -15.2651  -45.9650 H         1 UNK         0.0800 
    134 H134       -5.2233  -13.7016  -48.4475 H         1 UNK         0.0800 
    135 H135       -6.7561  -14.5314  -48.5165 H         1 UNK         0.0800 
    136 H136       -3.3210  -14.9104  -49.1401 H         1 UNK         0.1150 
    137 H137       -3.2809  -19.1842  -49.1726 H         1 UNK         0.1150 
    138 H138       -6.7169  -17.0979  -47.6950 H         1 UNK         0.1150 
    139 H139       -6.8055  -19.5514  -48.5431 H         1 UNK         0.0800 
    140 H140       -5.3094  -20.3999  -48.8086 H         1 UNK         0.0800 
    141 H141       -3.9260  -20.0485  -44.9464 H         1 UNK         0.0800 
    142 H142       -3.5527  -19.2552  -46.4294 H         1 UNK         0.0800 
    143 H143       -3.7711  -21.8067  -47.4057 H         1 UNK         0.0600 
    144 H144       -1.5122  -20.2376  -46.6412 H         1 UNK         0.3000 
    145 H145        1.0095  -22.2760  -47.9299 H         1 UNK         0.0600 
    146 H146        1.4204  -20.3878  -49.4983 H         1 UNK         0.0600 
    147 H147        0.1208  -21.4161  -50.0756 H         1 UNK         0.0600 
    148 H148       -0.2584  -19.8698  -49.3326 H         1 UNK         0.0600 
    149 H149        0.9468  -19.5267  -47.1324 H         1 UNK         0.3000 
    150 H150        1.6124  -20.2261  -43.6533 H         1 UNK         0.0600 
    151 H151        3.6695  -20.1189  -45.0727 H         1 UNK         0.0600 
    152 H152        3.3585  -18.5840  -44.2832 H         1 UNK         0.0600 
    153 H153        2.9784  -18.7857  -45.9896 H         1 UNK         0.0600 
    154 H154        1.1147  -17.7093  -44.5075 H         1 UNK         0.3000 
    155 H155       -1.2789  -16.7250  -44.9678 H         1 UNK         0.0600 
    156 H156       -2.9659  -18.0775  -42.7990 H         1 UNK         0.0600 
    157 H157       -3.4205  -17.7761  -44.4756 H         1 UNK         0.0600 
    158 H158       -3.2294  -16.4332  -43.3686 H         1 UNK         0.0600 
    159 H159       -0.2209  -17.1926  -42.2523 H         1 UNK         0.3000 
    160 H160        0.9428  -13.8456  -42.0838 H         1 UNK         0.0600 
    161 H161       -0.8948  -15.3480  -40.1422 H         1 UNK         0.0600 
    162 H162       -1.2571  -13.7802  -40.8489 H         1 UNK         0.0600 
    163 H163        0.1132  -13.9499  -39.7658 H         1 UNK         0.0600 
    164 H164        1.5385  -15.9014  -40.3298 H         1 UNK         0.3000 
    165 H165        3.8492  -16.5172  -40.4476 H         1 UNK         0.0600 
    166 H166        3.8152  -19.0406  -40.5897 H         1 UNK         0.0600 
    167 H167        2.1947  -18.3966  -40.3797 H         1 UNK         0.0600 
    168 H168        2.7182  -18.9513  -41.9639 H         1 UNK         0.0600 
    169 H169        4.4725  -16.9829  -43.2376 H         1 UNK         0.3000 
    170 H170        7.7727  -16.1281  -42.7479 H         1 UNK         0.0600 
    171 H171        8.1554  -18.5953  -42.6139 H         1 UNK         0.0600 
    172 H172        6.9195  -18.8687  -43.8362 H         1 UNK         0.0600 
    173 H173        8.4038  -18.0087  -44.2506 H         1 UNK         0.0600 
    174 H174        6.2480  -16.8522  -45.0740 H         1 UNK         0.3000 
    175 H175        5.6848  -13.9645  -46.2214 H         1 UNK         0.0600 
    176 H176        4.1137  -16.5893  -45.9734 H         1 UNK         0.0600 
    177 H177        4.1246  -15.5431  -47.3861 H         1 UNK         0.0600 
    178 H178        5.6017  -16.3458  -46.8962 H         1 UNK         0.0600 
    179 H179        3.0899  -14.5789  -44.8777 H         1 UNK         0.3000 
    180 H180        2.0419  -12.3516  -43.8711 H         1 UNK         0.0600 
    181 H181        2.0610  -10.4702  -46.2915 H         1 UNK         0.0600 
    182 H182        2.5722  -10.0776  -44.6552 H         1 UNK         0.0600 
    183 H183        0.8813  -10.4199  -44.9863 H         1 UNK         0.0600 
    184 H184        0.4827  -13.4972  -44.9568 H         1 UNK         0.3000 
    185 H185       -0.3833  -14.0735  -48.3608 H         1 UNK         0.0600 
    186 H186        1.1348  -15.9153  -47.8091 H         1 UNK         0.0600 
    187 H187        0.6947  -15.8610  -46.1094 H         1 UNK         0.0600 
    188 H188       -0.4830  -16.3892  -47.3082 H         1 UNK         0.0600 
    189 H189       -1.2866  -14.3104  -45.5239 H         1 UNK         0.3000 
    190 H190       -1.8623  -21.4745  -44.4001 H         1 UNK         0.3000 
    191 H191       -3.1074  -23.5566  -42.9194 H         1 UNK         0.0600 
    192 H192       -0.3042  -22.3326  -42.6875 H         1 UNK         0.0600 
    193 H193       -1.0897  -23.3166  -41.4569 H         1 UNK         0.0600 
    194 H194       -1.7597  -21.7485  -41.8849 H         1 UNK         0.0600 
    195 H195       -0.2887  -23.5708  -45.1199 H         1 UNK         0.3000 
    196 H196        0.5462  -26.2256  -44.5962 H         1 UNK         0.0600 
    197 H197        1.9003  -25.9384  -46.6688 H         1 UNK         0.0600 
    198 H198        2.0269  -24.5379  -45.6166 H         1 UNK         0.0600 
    199 H199        1.0145  -24.4710  -47.0586 H         1 UNK         0.0600 
    200 H200       -1.4234  -24.9619  -47.3830 H         1 UNK         0.3000 
    201 H201       -2.6491  -27.6043  -47.8004 H         1 UNK         0.0600 
    202 H202       -0.3774  -27.8734  -48.8507 H         1 UNK         0.0600 
    203 H203       -0.6658  -26.4409  -49.8375 H         1 UNK         0.0600 
    204 H204       -1.6375  -27.8936  -50.0643 H         1 UNK         0.0600 
    205 H205       -3.6356  -24.8425  -47.2621 H         1 UNK         0.3000 
    206 H206       -5.2472  -23.4345  -47.8767 H         1 UNK         0.0600 
    207 H207       -7.1748  -24.3269  -49.0797 H         1 UNK         0.0600 
    208 H208       -6.5468  -25.5698  -48.0121 H         1 UNK         0.0600 
    209 H209       -6.2248  -25.6467  -49.7447 H         1 UNK         0.0600 
    210 H210       -2.7175  -23.3654  -49.4492 H         1 UNK         0.3000 
    211 H211       -1.7058  -22.7137  -51.3135 H         1 UNK         0.0600 
    212 H212       -2.5198  -20.5721  -52.3421 H         1 UNK         0.0600 
    213 H213       -2.4355  -20.5223  -50.6052 H         1 UNK         0.0600 
    214 H214       -4.0070  -20.6955  -51.4034 H         1 UNK         0.0600 
    215 H215       -3.0911  -25.0050  -51.6534 H         1 UNK         0.3000 
    216 H216       -3.6700  -26.5408  -53.0929 H         1 UNK         0.0600 
    217 H217       -3.1389  -26.3439  -55.4835 H         1 UNK         0.0600 
    218 H218       -1.8484  -25.5898  -54.5623 H         1 UNK         0.0600 
    219 H219       -3.0523  -24.5925  -55.3794 H         1 UNK         0.0600 
    220 H220       -5.5722  -24.1895  -52.3049 H         1 UNK         0.3000 
    221 H221       -7.6378  -23.4975  -52.4913 H         1 UNK         0.0600 
    222 H222       -8.2932  -26.0121  -54.1152 H         1 UNK         0.0600 
    223 H223       -8.2733  -25.9234  -52.3535 H         1 UNK         0.0600 
    224 H224       -9.4343  -24.9770  -53.2695 H         1 UNK         0.0600 
    225 H225       -5.5677  -22.8852  -54.5639 H         1 UNK         0.3000 
    226 H226       -7.3057  -21.7775  -56.7373 H         1 UNK         0.0600 
    227 H227       -6.0658  -23.8399  -57.4764 H         1 UNK         0.0600 
    228 H228       -5.4877  -22.4069  -58.3109 H         1 UNK         0.0600 
    229 H229       -4.5428  -23.0949  -56.9928 H         1 UNK         0.0600 
    230 H230       -5.5781  -20.8961  -54.1459 H         1 UNK         0.3000 
    231 H231       -4.4516  -19.1516  -53.3908 H         1 UNK         0.0600 
    232 H232       -6.2746  -17.7846  -54.4364 H         1 UNK         0.0600 
    233 H233       -5.3005  -17.6102  -55.8970 H         1 UNK         0.0600 
    234 H234       -4.7424  -16.9288  -54.3751 H         1 UNK         0.0600 
    235 H235       -3.0219  -21.1516  -54.6887 H         1 UNK         0.3000 
    236 H236       -0.7944  -19.9753  -56.1975 H         1 UNK         0.0600 
    237 H237        0.0293  -22.3093  -56.1999 H         1 UNK         0.0600 
    238 H238       -1.2421  -22.7972  -55.0866 H         1 UNK         0.0600 
    239 H239       -1.6500  -22.2655  -56.7165 H         1 UNK         0.0600 
    240 H240       -0.8520  -18.4349  -54.1589 H         1 UNK         0.3000 
    241 H241        0.4007  -19.2823  -51.7396 H         1 UNK         0.0600 
    242 H242        3.8737  -18.4618  -51.9846 H         1 UNK         0.3800 
    243 H243        2.5653  -18.7500  -50.8754 H         1 UNK         0.3800 
    244 H244        0.5032  -16.8242  -51.2263 H         1 UNK         0.0800 
    245 H245        0.0404  -16.4567  -52.8660 H         1 UNK         0.0800 
    246 H246       -1.2847  -16.0579  -49.6553 H         1 UNK         0.0800 
    247 H247       -1.1357  -17.7751  -49.3610 H         1 UNK         0.0800 
@<TRIPOS>BOND
     1    1    2 1    
     2    1  127 1    
     3    1  128 1    
     4    1  129 1    
     5    2    3 2    
     6    2    4 am   BACKBONE|DICT|INTERRES
     7    4    5 1    
     8    4  130 1    
     9    5    6 1    
    10    5   65 1    
    11    5  131 1    
    12    6    7 1    
    13    6  132 1    
    14    6  133 1    
    15    7    8 1    
    16    8    9 1    
    17    8  134 1    
    18    8  135 1    
    19    9   10 ar   
    20    9   14 ar   
    21   10   11 ar   
    22   10  136 1    
    23   11   12 ar   
    24   11  126 1    
    25   12   13 ar   
    26   12  137 1    
    27   13   14 ar   
    28   13   15 1    
    29   14  138 1    
    30   15   16 1    
    31   15  139 1    
    32   15  140 1    
    33   16   17 1    
    34   17   18 1    
    35   17  141 1    
    36   17  142 1    
    37   18   19 1    
    38   18   67 1    
    39   18  143 1    
    40   19   20 am   BACKBONE|DICT|INTERRES
    41   19  144 1    
    42   20   21 2    
    43   20   22 1    
    44   22   23 1    
    45   22   24 1    
    46   22  145 1    
    47   23  146 1    
    48   23  147 1    
    49   23  148 1    
    50   24   25 am   BACKBONE|DICT|INTERRES
    51   24  149 1    
    52   25   26 2    
    53   25   27 1    
    54   27   28 1    
    55   27   29 1    
    56   27  150 1    
    57   28  151 1    
    58   28  152 1    
    59   28  153 1    
    60   29   30 am   BACKBONE|DICT|INTERRES
    61   29  154 1    
    62   30   31 2    
    63   30   32 1    
    64   32   33 1    
    65   32   34 1    
    66   32  155 1    
    67   33  156 1    
    68   33  157 1    
    69   33  158 1    
    70   34   35 am   BACKBONE|DICT|INTERRES
    71   34  159 1    
    72   35   36 2    
    73   35   37 1    
    74   37   38 1    
    75   37   39 1    
    76   37  160 1    
    77   38  161 1    
    78   38  162 1    
    79   38  163 1    
    80   39   40 am   BACKBONE|DICT|INTERRES
    81   39  164 1    
    82   40   41 2    
    83   40   42 1    
    84   42   43 1    
    85   42   44 1    
    86   42  165 1    
    87   43  166 1    
    88   43  167 1    
    89   43  168 1    
    90   44   45 am   BACKBONE|DICT|INTERRES
    91   44  169 1    
    92   45   46 2    
    93   45   47 1    
    94   47   48 1    
    95   47   49 1    
    96   47  170 1    
    97   48  171 1    
    98   48  172 1    
    99   48  173 1    
   100   49   50 am   BACKBONE|DICT|INTERRES
   101   49  174 1    
   102   50   51 2    
   103   50   52 1    
   104   52   53 1    
   105   52   54 1    
   106   52  175 1    
   107   53  176 1    
   108   53  177 1    
   109   53  178 1    
   110   54   55 am   BACKBONE|DICT|INTERRES
   111   54  179 1    
   112   55   56 2    
   113   55   57 1    
   114   57   58 1    
   115   57   59 1    
   116   57  180 1    
   117   58  181 1    
   118   58  182 1    
   119   58  183 1    
   120   59   60 am   BACKBONE|DICT|INTERRES
   121   59  184 1    
   122   60   61 2    
   123   60   62 1    
   124   62   63 1    
   125   62   64 1    
   126   62  185 1    
   127   63  186 1    
   128   63  187 1    
   129   63  188 1    
   130   64   65 am   BACKBONE|DICT|INTERRES
   131   64  189 1    
   132   65   66 2    
   133   67   68 2    
   134   67   69 am   BACKBONE|DICT|INTERRES
   135   69   70 1    
   136   69  190 1    
   137   70   71 1    
   138   70   72 1    
   139   70  191 1    
   140   71  192 1    
   141   71  193 1    
   142   71  194 1    
   143   72   73 2    
   144   72   74 am   BACKBONE|DICT|INTERRES
   145   74   75 1    
   146   74  195 1    
   147   75   76 1    
   148   75   77 1    
   149   75  196 1    
   150   76  197 1    
   151   76  198 1    
   152   76  199 1    
   153   77   78 2    
   154   77   79 am   BACKBONE|DICT|INTERRES
   155   79   80 1    
   156   79  200 1    
   157   80   81 1    
   158   80   82 1    
   159   80  201 1    
   160   81  202 1    
   161   81  203 1    
   162   81  204 1    
   163   82   83 2    
   164   82   84 am   BACKBONE|DICT|INTERRES
   165   84   85 1    
   166   84  205 1    
   167   85   86 1    
   168   85   87 1    
   169   85  206 1    
   170   86  207 1    
   171   86  208 1    
   172   86  209 1    
   173   87   88 2    
   174   87   89 am   BACKBONE|DICT|INTERRES
   175   89   90 1    
   176   89  210 1    
   177   90   91 1    
   178   90   92 1    
   179   90  211 1    
   180   91  212 1    
   181   91  213 1    
   182   91  214 1    
   183   92   93 2    
   184   92   94 am   BACKBONE|DICT|INTERRES
   185   94   95 1    
   186   94  215 1    
   187   95   96 1    
   188   95   97 1    
   189   95  216 1    
   190   96  217 1    
   191   96  218 1    
   192   96  219 1    
   193   97   98 2    
   194   97   99 am   BACKBONE|DICT|INTERRES
   195   99  100 1    
   196   99  220 1    
   197  100  101 1    
   198  100  102 1    
   199  100  221 1    
   200  101  222 1    
   201  101  223 1    
   202  101  224 1    
   203  102  103 2    
   204  102  104 am   BACKBONE|DICT|INTERRES
   205  104  105 1    
   206  104  225 1    
   207  105  106 1    
   208  105  107 1    
   209  105  226 1    
   210  106  227 1    
   211  106  228 1    
   212  106  229 1    
   213  107  108 2    
   214  107  109 am   BACKBONE|DICT|INTERRES
   215  109  110 1    
   216  109  230 1    
   217  110  111 1    
   218  110  112 1    
   219  110  231 1    
   220  111  232 1    
   221  111  233 1    
   222  111  234 1    
   223  112  113 2    
   224  112  114 am   BACKBONE|DICT|INTERRES
   225  114  115 1    
   226  114  235 1    
   227  115  116 1    
   228  115  117 1    
   229  115  236 1    
   230  116  237 1    
   231  116  238 1    
   232  116  239 1    
   233  117  118 2    
   234  117  119 am   BACKBONE|DICT|INTERRES
   235  119  120 1    
   236  119  240 1    
   237  120  121 1    
   238  120  124 1    
   239  120  241 1    
   240  121  122 am   BACKBONE|DICT|INTERRES
   241  121  123 2    
   242  122  242 1    
   243  122  243 1    
   244  124  125 1    
   245  124  244 1    
   246  124  245 1    
   247  125  126 1    
   248  126  246 1    
   249  126  247 1    
@<TRIPOS>SUBSTRUCTURE
     1 UNK         1 GROUP             0       ****    0 ROOT    
