@<TRIPOS>MOLECULE
3R540
247   249    1
SMALL
USER_CHARGES


@<TRIPOS>ATOM
      1 CA          5.3250  -21.6401  -46.6072 C.3       0 UNK        -0.1800 
      2 C           5.6013  -20.1665  -46.8718 C.2       0 UNK         0.5000 
      3 O           6.7358  -19.7992  -47.1748 O.2       0 UNK        -0.5000 
      4 N           4.5656  -19.3244  -46.7569 N.am      1 UNK        -0.5000 
      5 CA          4.5835  -17.8740  -47.0001 C.3       1 UNK         0.1400 
      6 C6          4.8651  -17.5005  -48.4917 C.3       23 UNK        -0.0398 
      7 S7          3.3961  -16.7810  -49.2987 S.3       23 UNK        -0.2404 
      8 C8          2.5704  -18.3301  -49.7732 C.3       23 UNK        -0.0205 
      9 C9          1.1078  -18.1735  -50.1605 C.ar      23 UNK        -0.0193 
     10 C10         0.6016  -18.8698  -51.2630 C.ar      23 UNK        -0.1150 
     11 C11        -0.7674  -18.8557  -51.5476 C.ar      23 UNK        -0.0193 
     12 C12        -1.6311  -18.1365  -50.7169 C.ar      23 UNK        -0.1150 
     13 C13        -1.1385  -17.4383  -49.6108 C.ar      23 UNK        -0.0193 
     14 C14         0.2339  -17.4403  -49.3530 C.ar      23 UNK        -0.1150 
     15 C15        -2.0958  -16.7443  -48.6525 C.3       23 UNK        -0.0205 
     16 S16        -2.0230  -17.4427  -46.9658 S.3       23 UNK        -0.2404 
     17 C17        -2.1146  -19.2421  -47.2598 C.3       23 UNK        -0.0398 
     18 CA         -0.7570  -19.9594  -47.0448 C.3       11 UNK         0.1400 
     19 N          -0.2147  -19.7852  -45.6980 N.am      11 UNK        -0.5000 
     20 C           1.0548  -20.0356  -45.3516 C.2       10 UNK         0.5000 
     21 O           1.9495  -20.3040  -46.1546 O.2       10 UNK        -0.5000 
     22 CA          1.3843  -20.0031  -43.8502 C.3       10 UNK         0.1400 
     23 CB          1.9718  -18.6408  -43.4567 C.3       10 UNK        -0.1800 
     24 N           0.2181  -20.3035  -43.0166 N.am      10 UNK        -0.5000 
     25 C          -0.2944  -21.5348  -42.8639 C.2       9 UNK         0.5000 
     26 O           0.1804  -22.5377  -43.3950 O.2       9 UNK        -0.5000 
     27 CA         -1.5771  -21.6683  -42.0190 C.3       9 UNK         0.1400 
     28 CB         -1.2293  -21.8002  -40.5291 C.3       9 UNK        -0.1800 
     29 N          -2.5022  -20.5499  -42.2008 N.am      9 UNK        -0.5000 
     30 C          -3.0843  -20.2227  -43.3624 C.2       8 UNK         0.5000 
     31 O          -2.9733  -20.8947  -44.3873 O.2       8 UNK        -0.5000 
     32 CA         -3.8791  -18.9016  -43.4096 C.3       8 UNK         0.1400 
     33 CB         -5.3841  -19.1795  -43.2809 C.3       8 UNK        -0.1800 
     34 N          -3.4869  -17.9020  -42.4072 N.am      8 UNK        -0.5000 
     35 C          -2.2563  -17.3918  -42.2569 C.2       7 UNK         0.5000 
     36 O          -1.2732  -17.7818  -42.8868 O.2       7 UNK        -0.5000 
     37 CA         -2.0866  -16.2975  -41.1990 C.3       7 UNK         0.1400 
     38 CB         -1.0603  -16.7085  -40.1279 C.3       7 UNK        -0.1800 
     39 N          -1.6712  -15.0603  -41.8543 N.am      7 UNK        -0.5000 
     40 C          -1.9632  -13.8350  -41.3934 C.2       6 UNK         0.5000 
     41 O          -2.5739  -13.6379  -40.3414 O.2       6 UNK        -0.5000 
     42 CA         -1.5188  -12.6128  -42.2244 C.3       6 UNK         0.1400 
     43 CB         -0.2628  -11.9741  -41.6131 C.3       6 UNK        -0.1800 
     44 N          -1.2726  -12.9129  -43.6350 N.am      6 UNK        -0.5000 
     45 C          -2.2290  -13.2097  -44.5273 C.2       5 UNK         0.5000 
     46 O          -3.4307  -13.1951  -44.2568 O.2       5 UNK        -0.5000 
     47 CA         -1.7908  -13.5924  -45.9592 C.3       5 UNK         0.1400 
     48 CB         -2.1677  -12.4845  -46.9552 C.3       5 UNK        -0.1800 
     49 N          -0.3667  -13.9029  -46.1254 N.am      5 UNK        -0.5000 
     50 C           0.2934  -14.8863  -45.5007 C.2       4 UNK         0.5000 
     51 O          -0.2202  -15.6060  -44.6452 O.2       4 UNK        -0.5000 
     52 CA          1.7808  -15.0935  -45.8534 C.3       4 UNK         0.1400 
     53 CB          2.3857  -14.0052  -46.7669 C.3       4 UNK        -0.1800 
     54 N           2.5909  -15.2628  -44.6442 N.am      4 UNK        -0.5000 
     55 C           2.6912  -14.4137  -43.6087 C.2       3 UNK         0.5000 
     56 O           2.1783  -13.2945  -43.5845 O.2       3 UNK        -0.5000 
     57 CA          3.4795  -14.9128  -42.3819 C.3       3 UNK         0.1400 
     58 CB          2.5091  -15.4314  -41.3093 C.3       3 UNK        -0.1800 
     59 N           4.4121  -15.9869  -42.7343 N.am      3 UNK        -0.5000 
     60 C           5.6743  -15.7887  -43.1368 C.2       2 UNK         0.5000 
     61 O           6.2374  -14.6934  -43.1320 O.2       2 UNK        -0.5000 
     62 CA          6.4059  -17.0265  -43.6890 C.3       2 UNK         0.1400 
     63 CB          6.6643  -18.0667  -42.5865 C.3       2 UNK        -0.1800 
     64 N           5.6673  -17.6521  -44.7905 N.am      2 UNK        -0.5000 
     65 C           5.4365  -17.0768  -45.9820 C.2       1 UNK         0.5000 
     66 O           5.8391  -15.9498  -46.2717 O.2       1 UNK        -0.5000 
     67 C          -0.8641  -21.4582  -47.3735 C.2       11 UNK         0.5000 
     68 O          -0.2755  -21.9081  -48.3559 O.2       11 UNK        -0.5000 
     69 N          -1.5619  -22.2077  -46.5063 N.am      12 UNK        -0.5000 
     70 CA         -1.8036  -23.6478  -46.6264 C.3       12 UNK         0.1400 
     71 CB         -2.7040  -24.1032  -45.4684 C.3       12 UNK        -0.1800 
     72 C          -0.5191  -24.4959  -46.6762 C.2       12 UNK         0.5000 
     73 O          -0.4833  -25.5010  -47.3868 O.2       12 UNK        -0.5000 
     74 N           0.5174  -24.0630  -45.9446 N.am      13 UNK        -0.5000 
     75 CA          1.8528  -24.6597  -45.9548 C.3       13 UNK         0.1400 
     76 CB          2.6869  -24.0489  -44.8182 C.3       13 UNK        -0.1800 
     77 C           2.5897  -24.5072  -47.3001 C.2       13 UNK         0.5000 
     78 O           3.4424  -25.3409  -47.6086 O.2       13 UNK        -0.5000 
     79 N           2.2638  -23.4594  -48.0696 N.am      14 UNK        -0.5000 
     80 CA          2.8353  -23.2101  -49.3893 C.3       14 UNK         0.1400 
     81 CB          2.8960  -21.7009  -49.6551 C.3       14 UNK        -0.1800 
     82 C           2.0413  -23.9298  -50.4891 C.2       14 UNK         0.5000 
     83 O           2.6475  -24.6280  -51.3035 O.2       14 UNK        -0.5000 
     84 N           0.7123  -23.7586  -50.5017 N.am      15 UNK        -0.5000 
     85 CA         -0.1750  -24.3359  -51.5094 C.3       15 UNK         0.1400 
     86 CB         -0.0662  -23.5424  -52.8269 C.3       15 UNK        -0.1800 
     87 C          -1.6288  -24.3511  -51.0198 C.2       15 UNK         0.5000 
     88 O          -2.0294  -23.5022  -50.2207 O.2       15 UNK        -0.5000 
     89 N          -2.4066  -25.2998  -51.5536 N.am      16 UNK        -0.5000 
     90 CA         -3.8549  -25.3848  -51.3757 C.3       16 UNK         0.1400 
     91 CB         -4.3044  -26.8111  -51.7371 C.3       16 UNK        -0.1800 
     92 C          -4.5981  -24.3441  -52.2391 C.2       16 UNK         0.5000 
     93 O          -4.0088  -23.7522  -53.1473 O.2       16 UNK        -0.5000 
     94 N          -5.8960  -24.1708  -51.9489 N.am      17 UNK        -0.5000 
     95 CA         -6.8513  -23.3089  -52.6592 C.3       17 UNK         0.1400 
     96 CB         -7.0566  -23.7913  -54.1111 C.3       17 UNK        -0.1800 
     97 C          -6.5143  -21.8055  -52.5761 C.2       17 UNK         0.5000 
     98 O          -6.8608  -21.0448  -53.4801 O.2       17 UNK        -0.5000 
     99 N          -5.8694  -21.3876  -51.4774 N.am      18 UNK        -0.5000 
    100 CA        -5.4413  -20.0108  -51.2057 C.3       18 UNK         0.1400 
    101 CB        -4.7327  -19.9755  -49.8452 C.3       18 UNK        -0.1800 
    102 C         -6.5839  -18.9762  -51.2463 C.2       18 UNK         0.5000 
    103 O         -6.3799  -17.8601  -51.7239 O.2       18 UNK        -0.5000 
    104 N         -7.7770  -19.3892  -50.7961 N.am      19 UNK        -0.5000 
    105 CA        -9.0138  -18.6042  -50.8363 C.3       19 UNK         0.1400 
    106 CB       -10.0584  -19.2856  -49.9386 C.3       19 UNK        -0.1800 
    107 C         -9.5778  -18.4018  -52.2592 C.2       19 UNK         0.5000 
    108 O        -10.3778  -17.4885  -52.4637 O.2       19 UNK        -0.5000 
    109 N         -9.1476  -19.2373  -53.2133 N.am      20 UNK        -0.5000 
    110 CA        -9.5014  -19.1833  -54.6306 C.3       20 UNK         0.1400 
    111 CB       -10.0291  -20.5634  -55.0621 C.3       20 UNK        -0.1800 
    112 C         -8.2848  -18.7291  -55.4616 C.2       20 UNK         0.5000 
    113 O         -8.0474  -19.2534  -56.5518 O.2       20 UNK        -0.5000 
    114 N         -7.5177  -17.7736  -54.9132 N.am      21 UNK        -0.5000 
    115 CA        -6.3332  -17.1346  -55.4998 C.3       21 UNK         0.1400 
    116 CB        -6.7395  -16.2435  -56.6924 C.3       21 UNK        -0.1800 
    117 C         -5.2027  -18.1271  -55.8483 C.2       21 UNK         0.5000 
    118 O         -4.5037  -17.9407  -56.8462 O.2       21 UNK        -0.5000 
    119 N         -5.0551  -19.1648  -55.0145 N.am      22 UNK        -0.5000 
    120 CA        -4.0924  -20.2724  -55.1522 C.3       22 UNK         0.1400 
    121 C         -4.4601  -21.2937  -56.2731 C.2       22 UNK         0.5000 
    122 N         -5.6646  -21.2667  -56.8343 N.am      22 UNK        -0.7600 
    123 O         -3.6470  -22.1400  -56.6350 O.2       22 UNK        -0.5000 
    124 C124       -2.6031  -19.8189  -55.2267 C.3       23 UNK        -0.0398 
    125 S125       -2.1268  -18.5994  -53.9496 S.3       23 UNK        -0.2404 
    126 C126       -1.3210  -19.6620  -52.7148 C.3       23 UNK        -0.0205 
    127 H127        4.2672  -21.8237  -46.4206 H         1 UNK         0.0600 
    128 H128        5.8890  -21.9805  -45.7391 H         1 UNK         0.0600 
    129 H129        5.6227  -22.2397  -47.4675 H         1 UNK         0.0600 
    130 H130        3.6502  -19.7099  -46.5276 H         1 UNK         0.3000 
    131 H131        3.5652  -17.5706  -46.7584 H         1 UNK         0.0600 
    132 H132        5.6833  -16.7880  -48.6053 H         1 UNK         0.0800 
    133 H133        5.1852  -18.3706  -49.0665 H         1 UNK         0.0800 
    134 H134        3.1391  -18.8000  -50.5772 H         1 UNK         0.0800 
    135 H135        2.6015  -19.0087  -48.9211 H         1 UNK         0.0800 
    136 H136        1.2695  -19.4564  -51.8781 H         1 UNK         0.1150 
    137 H137       -2.6908  -18.1404  -50.9260 H         1 UNK         0.1150 
    138 H138        0.6097  -16.9281  -48.4789 H         1 UNK         0.1150 
    139 H139       -1.8506  -15.6824  -48.6076 H         1 UNK         0.0800 
    140 H140       -3.1226  -16.8088  -49.0154 H         1 UNK         0.0800 
    141 H141       -2.4700  -19.4202  -48.2729 H         1 UNK         0.0800 
    142 H142       -2.8856  -19.6472  -46.6059 H         1 UNK         0.0800 
    143 H143       -0.0363  -19.5379  -47.7450 H         1 UNK         0.0600 
    144 H144       -0.8717  -19.5355  -44.9728 H         1 UNK         0.3000 
    145 H145        2.1461  -20.7632  -43.6642 H         1 UNK         0.0600 
    146 H146        2.2390  -18.6202  -42.4002 H         1 UNK         0.0600 
    147 H147        1.2677  -17.8291  -43.6436 H         1 UNK         0.0600 
    148 H148        2.8751  -18.4317  -44.0293 H         1 UNK         0.0600 
    149 H149       -0.2784  -19.5042  -42.6352 H         1 UNK         0.3000 
    150 H150       -2.0883  -22.5804  -42.3338 H         1 UNK         0.0600 
    151 H151       -0.5534  -22.6395  -40.3593 H         1 UNK         0.0600 
    152 H152       -2.1225  -21.9773  -39.9295 H         1 UNK         0.0600 
    153 H153       -0.7407  -20.9024  -40.1482 H         1 UNK         0.0600 
    154 H154       -2.6445  -19.9419  -41.4084 H         1 UNK         0.3000 
    155 H155       -3.6983  -18.4587  -44.3913 H         1 UNK         0.0600 
    156 H156       -5.7151  -19.8987  -44.0317 H         1 UNK         0.0600 
    157 H157       -5.9681  -18.2704  -43.4265 H         1 UNK         0.0600 
    158 H158       -5.6349  -19.5887  -42.3012 H         1 UNK         0.0600 
    159 H159       -4.2345  -17.5382  -41.8331 H         1 UNK         0.3000 
    160 H160       -3.0510  -16.1433  -40.7099 H         1 UNK         0.0600 
    161 H161       -0.0760  -16.8867  -40.5603 H         1 UNK         0.0600 
    162 H162       -1.3678  -17.6266  -39.6260 H         1 UNK         0.0600 
    163 H163       -0.9550  -15.9392  -39.3628 H         1 UNK         0.0600 
    164 H164       -1.1894  -15.1735  -42.7423 H         1 UNK         0.3000 
    165 H165       -2.3243  -11.8770  -42.1753 H         1 UNK         0.0600 
    166 H166        0.0552  -11.0993  -42.1806 H         1 UNK         0.0600 
    167 H167       -0.4511  -11.6471  -40.5897 H         1 UNK         0.0600 
    168 H168        0.5697  -12.6758  -41.5815 H         1 UNK         0.0600 
    169 H169       -0.3051  -12.9697  -43.9243 H         1 UNK         0.3000 
    170 H170       -2.3515  -14.4903  -46.2249 H         1 UNK         0.0600 
    171 H171       -1.6151  -11.5647  -46.7594 H         1 UNK         0.0600 
    172 H172       -1.9629  -12.7895  -47.9818 H         1 UNK         0.0600 
    173 H173       -3.2310  -12.2477  -46.8962 H         1 UNK         0.0600 
    174 H174        0.1395  -13.3319  -46.7862 H         1 UNK         0.3000 
    175 H175        1.8237  -16.0397  -46.3932 H         1 UNK         0.0600 
    176 H176        2.3316  -13.0132  -46.3167 H         1 UNK         0.0600 
    177 H177        3.4354  -14.2155  -46.9744 H         1 UNK         0.0600 
    178 H178        1.8759  -13.9680  -47.7305 H         1 UNK         0.0600 
    179 H179        3.0386  -16.1577  -44.5416 H         1 UNK         0.3000 
    180 H180        4.0276  -14.0648  -41.9654 H         1 UNK         0.0600 
    181 H181        3.0445  -15.7896  -40.4299 H         1 UNK         0.0600 
    182 H182        1.8951  -16.2488  -41.6868 H         1 UNK         0.0600 
    183 H183        1.8323  -14.6435  -40.9778 H         1 UNK         0.0600 
    184 H184        4.0508  -16.9280  -42.7170 H         1 UNK         0.3000 
    185 H185        7.3730  -16.6970  -44.0752 H         1 UNK         0.0600 
    186 H186        7.2719  -18.8910  -42.9606 H         1 UNK         0.0600 
    187 H187        7.2041  -17.6215  -41.7495 H         1 UNK         0.0600 
    188 H188        5.7377  -18.4871  -42.1939 H         1 UNK         0.0600 
    189 H189        5.3351  -18.5935  -44.6422 H         1 UNK         0.3000 
    190 H190       -2.0059  -21.7486  -45.7137 H         1 UNK         0.3000 
    191 H191       -2.3420  -23.8116  -47.5614 H         1 UNK         0.0600 
    192 H192       -3.6531  -23.5667  -45.4719 H         1 UNK         0.0600 
    193 H193       -2.2282  -23.9344  -44.5017 H         1 UNK         0.0600 
    194 H194       -2.9309  -25.1674  -45.5434 H         1 UNK         0.0600 
    195 H195        0.3776  -23.2774  -45.3187 H         1 UNK         0.3000 
    196 H196        1.7453  -25.7290  -45.7615 H         1 UNK         0.0600 
    197 H197        2.2556  -24.2836  -43.8450 H         1 UNK         0.0600 
    198 H198        2.7473  -22.9636  -44.9039 H         1 UNK         0.0600 
    199 H199        3.7060  -24.4380  -44.8222 H         1 UNK         0.0600 
    200 H200        1.5077  -22.8485  -47.7835 H         1 UNK         0.3000 
    201 H201        3.8615  -23.5834  -49.4161 H         1 UNK         0.0600 
    202 H202        3.4986  -21.1975  -48.9009 H         1 UNK         0.0600 
    203 H203        1.9047  -21.2480  -49.6523 H         1 UNK         0.0600 
    204 H204        3.3480  -21.4935  -50.6259 H         1 UNK         0.0600 
    205 H205        0.2581  -23.1851  -49.7928 H         1 UNK         0.3000 
    206 H206        0.1271  -25.3709  -51.6876 H         1 UNK         0.0600 
    207 H207       -0.3056  -22.4906  -52.6719 H         1 UNK         0.0600 
    208 H208        0.9365  -23.5991  -53.2508 H         1 UNK         0.0600 
    209 H209       -0.7559  -23.9280  -53.5795 H         1 UNK         0.0600 
    210 H210       -2.0094  -25.9256  -52.2400 H         1 UNK         0.3000 
    211 H211       -4.0929  -25.1965  -50.3261 H         1 UNK         0.0600 
    212 H212       -4.1062  -27.0421  -52.7851 H         1 UNK         0.0600 
    213 H213       -5.3738  -26.9449  -51.5693 H         1 UNK         0.0600 
    214 H214       -3.7892  -27.5534  -51.1268 H         1 UNK         0.0600 
    215 H215       -6.2869  -24.7036  -51.1837 H         1 UNK         0.3000 
    216 H216       -7.8046  -23.4257  -52.1421 H         1 UNK         0.0600 
    217 H217       -7.8843  -23.2650  -54.5866 H         1 UNK         0.0600 
    218 H218       -7.2899  -24.8554  -54.1450 H         1 UNK         0.0600 
    219 H219       -6.1715  -23.6213  -54.7250 H         1 UNK         0.0600 
    220 H220       -5.6178  -22.0800  -50.7873 H         1 UNK         0.3000 
    221 H221       -4.7191  -19.7292  -51.9748 H         1 UNK         0.0600 
    222 H222       -5.3724  -20.3526  -49.0463 H         1 UNK         0.0600 
    223 H223       -3.8253  -20.5805  -49.8636 H         1 UNK         0.0600 
    224 H224       -4.4476  -18.9577  -49.5778 H         1 UNK         0.0600 
    225 H225       -7.8496  -20.3265  -50.4283 H         1 UNK         0.3000 
    226 H226       -8.8021  -17.6147  -50.4255 H         1 UNK         0.0600 
    227 H227       -9.7025  -19.3692  -48.9115 H         1 UNK         0.0600 
    228 H228      -10.9863  -18.7124  -49.9131 H         1 UNK         0.0600 
    229 H229      -10.3015  -20.2879  -50.2938 H         1 UNK         0.0600 
    230 H230       -8.4332  -19.9194  -52.9820 H         1 UNK         0.3000 
    231 H231      -10.2932  -18.4516  -54.8019 H         1 UNK         0.0600 
    232 H232      -10.3647  -20.5493  -56.0998 H         1 UNK         0.0600 
    233 H233      -10.8787  -20.8689  -54.4512 H         1 UNK         0.0600 
    234 H234       -9.2600  -21.3309  -54.9748 H         1 UNK         0.0600 
    235 H235       -7.7674  -17.4515  -53.9881 H         1 UNK         0.3000 
    236 H236       -5.9274  -16.4822  -54.7252 H         1 UNK         0.0600 
    237 H237       -7.1072  -16.8348  -57.5316 H         1 UNK         0.0600 
    238 H238       -7.5217  -15.5388  -56.4099 H         1 UNK         0.0600 
    239 H239       -5.8923  -15.6576  -57.0511 H         1 UNK         0.0600 
    240 H240       -5.7343  -19.2810  -54.2742 H         1 UNK         0.3000 
    241 H241       -4.1893  -20.8447  -54.2298 H         1 UNK         0.0600 
    242 H242       -5.8891  -21.9352  -57.5531 H         1 UNK         0.3800 
    243 H243       -6.3523  -20.5747  -56.5622 H         1 UNK         0.3800 
    244 H244       -2.3918  -19.3767  -56.2012 H         1 UNK         0.0800 
    245 H245       -1.9431  -20.6846  -55.1502 H         1 UNK         0.0800 
    246 H246       -0.5207  -20.2184  -53.2039 H         1 UNK         0.0800 
    247 H247       -2.0354  -20.3972  -52.3402 H         1 UNK         0.0800 
@<TRIPOS>BOND
     1    1    2 1    
     2    1  127 1    
     3    1  128 1    
     4    1  129 1    
     5    2    3 2    
     6    2    4 am   BACKBONE|DICT|INTERRES
     7    4    5 1    
     8    4  130 1    
     9    5    6 1    
    10    5   65 1    
    11    5  131 1    
    12    6    7 1    
    13    6  132 1    
    14    6  133 1    
    15    7    8 1    
    16    8    9 1    
    17    8  134 1    
    18    8  135 1    
    19    9   10 ar   
    20    9   14 ar   
    21   10   11 ar   
    22   10  136 1    
    23   11   12 ar   
    24   11  126 1    
    25   12   13 ar   
    26   12  137 1    
    27   13   14 ar   
    28   13   15 1    
    29   14  138 1    
    30   15   16 1    
    31   15  139 1    
    32   15  140 1    
    33   16   17 1    
    34   17   18 1    
    35   17  141 1    
    36   17  142 1    
    37   18   19 1    
    38   18   67 1    
    39   18  143 1    
    40   19   20 am   BACKBONE|DICT|INTERRES
    41   19  144 1    
    42   20   21 2    
    43   20   22 1    
    44   22   23 1    
    45   22   24 1    
    46   22  145 1    
    47   23  146 1    
    48   23  147 1    
    49   23  148 1    
    50   24   25 am   BACKBONE|DICT|INTERRES
    51   24  149 1    
    52   25   26 2    
    53   25   27 1    
    54   27   28 1    
    55   27   29 1    
    56   27  150 1    
    57   28  151 1    
    58   28  152 1    
    59   28  153 1    
    60   29   30 am   BACKBONE|DICT|INTERRES
    61   29  154 1    
    62   30   31 2    
    63   30   32 1    
    64   32   33 1    
    65   32   34 1    
    66   32  155 1    
    67   33  156 1    
    68   33  157 1    
    69   33  158 1    
    70   34   35 am   BACKBONE|DICT|INTERRES
    71   34  159 1    
    72   35   36 2    
    73   35   37 1    
    74   37   38 1    
    75   37   39 1    
    76   37  160 1    
    77   38  161 1    
    78   38  162 1    
    79   38  163 1    
    80   39   40 am   BACKBONE|DICT|INTERRES
    81   39  164 1    
    82   40   41 2    
    83   40   42 1    
    84   42   43 1    
    85   42   44 1    
    86   42  165 1    
    87   43  166 1    
    88   43  167 1    
    89   43  168 1    
    90   44   45 am   BACKBONE|DICT|INTERRES
    91   44  169 1    
    92   45   46 2    
    93   45   47 1    
    94   47   48 1    
    95   47   49 1    
    96   47  170 1    
    97   48  171 1    
    98   48  172 1    
    99   48  173 1    
   100   49   50 am   BACKBONE|DICT|INTERRES
   101   49  174 1    
   102   50   51 2    
   103   50   52 1    
   104   52   53 1    
   105   52   54 1    
   106   52  175 1    
   107   53  176 1    
   108   53  177 1    
   109   53  178 1    
   110   54   55 am   BACKBONE|DICT|INTERRES
   111   54  179 1    
   112   55   56 2    
   113   55   57 1    
   114   57   58 1    
   115   57   59 1    
   116   57  180 1    
   117   58  181 1    
   118   58  182 1    
   119   58  183 1    
   120   59   60 am   BACKBONE|DICT|INTERRES
   121   59  184 1    
   122   60   61 2    
   123   60   62 1    
   124   62   63 1    
   125   62   64 1    
   126   62  185 1    
   127   63  186 1    
   128   63  187 1    
   129   63  188 1    
   130   64   65 am   BACKBONE|DICT|INTERRES
   131   64  189 1    
   132   65   66 2    
   133   67   68 2    
   134   67   69 am   BACKBONE|DICT|INTERRES
   135   69   70 1    
   136   69  190 1    
   137   70   71 1    
   138   70   72 1    
   139   70  191 1    
   140   71  192 1    
   141   71  193 1    
   142   71  194 1    
   143   72   73 2    
   144   72   74 am   BACKBONE|DICT|INTERRES
   145   74   75 1    
   146   74  195 1    
   147   75   76 1    
   148   75   77 1    
   149   75  196 1    
   150   76  197 1    
   151   76  198 1    
   152   76  199 1    
   153   77   78 2    
   154   77   79 am   BACKBONE|DICT|INTERRES
   155   79   80 1    
   156   79  200 1    
   157   80   81 1    
   158   80   82 1    
   159   80  201 1    
   160   81  202 1    
   161   81  203 1    
   162   81  204 1    
   163   82   83 2    
   164   82   84 am   BACKBONE|DICT|INTERRES
   165   84   85 1    
   166   84  205 1    
   167   85   86 1    
   168   85   87 1    
   169   85  206 1    
   170   86  207 1    
   171   86  208 1    
   172   86  209 1    
   173   87   88 2    
   174   87   89 am   BACKBONE|DICT|INTERRES
   175   89   90 1    
   176   89  210 1    
   177   90   91 1    
   178   90   92 1    
   179   90  211 1    
   180   91  212 1    
   181   91  213 1    
   182   91  214 1    
   183   92   93 2    
   184   92   94 am   BACKBONE|DICT|INTERRES
   185   94   95 1    
   186   94  215 1    
   187   95   96 1    
   188   95   97 1    
   189   95  216 1    
   190   96  217 1    
   191   96  218 1    
   192   96  219 1    
   193   97   98 2    
   194   97   99 am   BACKBONE|DICT|INTERRES
   195   99  100 1    
   196   99  220 1    
   197  100  101 1    
   198  100  102 1    
   199  100  221 1    
   200  101  222 1    
   201  101  223 1    
   202  101  224 1    
   203  102  103 2    
   204  102  104 am   BACKBONE|DICT|INTERRES
   205  104  105 1    
   206  104  225 1    
   207  105  106 1    
   208  105  107 1    
   209  105  226 1    
   210  106  227 1    
   211  106  228 1    
   212  106  229 1    
   213  107  108 2    
   214  107  109 am   BACKBONE|DICT|INTERRES
   215  109  110 1    
   216  109  230 1    
   217  110  111 1    
   218  110  112 1    
   219  110  231 1    
   220  111  232 1    
   221  111  233 1    
   222  111  234 1    
   223  112  113 2    
   224  112  114 am   BACKBONE|DICT|INTERRES
   225  114  115 1    
   226  114  235 1    
   227  115  116 1    
   228  115  117 1    
   229  115  236 1    
   230  116  237 1    
   231  116  238 1    
   232  116  239 1    
   233  117  118 2    
   234  117  119 am   BACKBONE|DICT|INTERRES
   235  119  120 1    
   236  119  240 1    
   237  120  121 1    
   238  120  124 1    
   239  120  241 1    
   240  121  122 am   BACKBONE|DICT|INTERRES
   241  121  123 2    
   242  122  242 1    
   243  122  243 1    
   244  124  125 1    
   245  124  244 1    
   246  124  245 1    
   247  125  126 1    
   248  126  246 1    
   249  126  247 1    
@<TRIPOS>SUBSTRUCTURE
     1 UNK         1 GROUP             0       ****    0 ROOT    
