@<TRIPOS>MOLECULE
3R540
247   249    1
SMALL
USER_CHARGES


@<TRIPOS>ATOM
      1 CA         -1.3636  -12.0673  -46.1685 C.3       0 UNK        -0.1800 
      2 C          -0.0747  -11.9633  -46.9715 C.2       0 UNK         0.5000 
      3 O           1.0036  -12.1145  -46.4030 O.2       0 UNK        -0.5000 
      4 N          -0.1928  -11.7190  -48.2849 N.am      1 UNK        -0.5000 
      5 CA          0.8889  -11.5749  -49.2719 C.3       1 UNK         0.1400 
      6 C6          1.4185  -12.9418  -49.8150 C.3       23 UNK        -0.0398 
      7 S7          2.5637  -13.8822  -48.7396 S.3       23 UNK        -0.2404 
      8 C8          1.4506  -15.0782  -47.9463 C.3       23 UNK        -0.0205 
      9 C9          1.2950  -16.3457  -48.7668 C.ar      23 UNK        -0.0193 
     10 C10         0.1246  -16.5831  -49.4961 C.ar      23 UNK        -0.1150 
     11 C11        -0.0399  -17.7843  -50.1925 C.ar      23 UNK        -0.0193 
     12 C12         0.9887  -18.7273  -50.1895 C.ar      23 UNK        -0.1150 
     13 C13         2.1477  -18.5144  -49.4391 C.ar      23 UNK        -0.0193 
     14 C14         2.3004  -17.3166  -48.7372 C.ar      23 UNK        -0.1150 
     15 C15         3.1995  -19.6094  -49.3390 C.3       23 UNK        -0.0205 
     16 S16         2.9299  -20.6719  -47.8791 S.3       23 UNK        -0.2404 
     17 C17         1.2109  -21.2184  -48.1550 C.3       23 UNK        -0.0398 
     18 CA          0.7940  -22.4296  -47.2961 C.3       11 UNK         0.1400 
     19 N           0.7313  -22.1263  -45.8649 N.am      11 UNK        -0.5000 
     20 C           0.5349  -23.0421  -44.9059 C.2       10 UNK         0.5000 
     21 O           0.4403  -24.2515  -45.1230 O.2       10 UNK        -0.5000 
     22 CA          0.3629  -22.5153  -43.4694 C.3       10 UNK         0.1400 
     23 CB          1.7182  -22.1467  -42.8475 C.3       10 UNK        -0.1800 
     24 N          -0.5455  -21.3695  -43.3977 N.am      10 UNK        -0.5000 
     25 C          -1.8493  -21.4212  -43.7079 C.2       9 UNK         0.5000 
     26 O          -2.4308  -22.4517  -44.0481 O.2       9 UNK        -0.5000 
     27 CA         -2.6308  -20.0954  -43.6688 C.3       9 UNK         0.1400 
     28 CB         -3.0338  -19.7427  -42.2294 C.3       9 UNK        -0.1800 
     29 N          -1.8961  -18.9778  -44.2616 N.am      9 UNK        -0.5000 
     30 C          -1.4944  -18.9206  -45.5396 C.2       8 UNK         0.5000 
     31 O          -1.7193  -19.8019  -46.3648 O.2       8 UNK        -0.5000 
     32 CA         -0.6440  -17.7057  -45.9485 C.3       8 UNK         0.1400 
     33 CB         -1.5254  -16.4599  -46.1316 C.3       8 UNK        -0.1800 
     34 N           0.4264  -17.4270  -44.9892 N.am      8 UNK        -0.5000 
     35 C           1.3907  -18.2991  -44.6565 C.2       7 UNK         0.5000 
     36 O           1.5036  -19.4210  -45.1463 O.2       7 UNK        -0.5000 
     37 CA          2.3463  -17.8740  -43.5315 C.3       7 UNK         0.1400 
     38 CB          3.4468  -16.9412  -44.0611 C.3       7 UNK        -0.1800 
     39 N           1.6199  -17.2319  -42.4362 N.am      7 UNK        -0.5000 
     40 C           0.7942  -17.8819  -41.6020 C.2       6 UNK         0.5000 
     41 O           0.6102  -19.0992  -41.6324 O.2       6 UNK        -0.5000 
     42 CA          0.0107  -17.0204  -40.5935 C.3       6 UNK         0.1400 
     43 CB          0.8633  -16.7328  -39.3488 C.3       6 UNK        -0.1800 
     44 N          -0.4453  -15.7549  -41.1713 N.am      6 UNK        -0.5000 
     45 C          -1.3535  -15.6539  -42.1525 C.2       5 UNK         0.5000 
     46 O          -1.9531  -16.6179  -42.6248 O.2       5 UNK        -0.5000 
     47 CA         -1.5997  -14.2500  -42.7392 C.3       5 UNK         0.1400 
     48 CB         -2.7744  -13.5647  -42.0269 C.3       5 UNK        -0.1800 
     49 N          -0.4241  -13.3757  -42.6856 N.am      5 UNK        -0.5000 
     50 C           0.7381  -13.6207  -43.3043 C.2       4 UNK         0.5000 
     51 O           0.9474  -14.6225  -43.9957 O.2       4 UNK        -0.5000 
     52 CA          1.8645  -12.6109  -43.0487 C.3       4 UNK         0.1400 
     53 CB          2.4489  -12.7909  -41.6353 C.3       4 UNK        -0.1800 
     54 N           2.9124  -12.8098  -44.0401 N.am      4 UNK        -0.5000 
     55 C           3.7910  -11.8876  -44.4460 C.2       3 UNK         0.5000 
     56 O           3.8450  -10.7481  -43.9793 O.2       3 UNK        -0.5000 
     57 CA          4.7881  -12.3004  -45.5456 C.3       3 UNK         0.1400 
     58 CB          4.8927  -13.8255  -45.7545 C.3       3 UNK        -0.1800 
     59 N           4.4166  -11.6745  -46.8115 N.am      3 UNK        -0.5000 
     60 C           4.8877  -10.5071  -47.2729 C.2       2 UNK         0.5000 
     61 O           5.7146   -9.8202  -46.6712 O.2       2 UNK        -0.5000 
     62 CA          4.3849  -10.0309  -48.6539 C.3       2 UNK         0.1400 
     63 CB          5.5083  -10.1337  -49.6984 C.3       2 UNK        -0.1800 
     64 N           3.2380  -10.8048  -49.1318 N.am      2 UNK        -0.5000 
     65 C           1.9590  -10.5328  -48.8468 C.2       1 UNK         0.5000 
     66 O           1.6021   -9.4953  -48.2821 O.2       1 UNK        -0.5000 
     67 C          -0.5385  -23.0039  -47.8140 C.2       11 UNK         0.5000 
     68 O          -0.5152  -24.0163  -48.5100 O.2       11 UNK        -0.5000 
     69 N          -1.6700  -22.3817  -47.4510 N.am      12 UNK        -0.5000 
     70 CA         -3.0155  -22.8215  -47.8242 C.3       12 UNK         0.1400 
     71 CB         -4.0612  -21.8084  -47.3369 C.3       12 UNK        -0.1800 
     72 C          -3.3505  -24.2284  -47.3054 C.2       12 UNK         0.5000 
     73 O          -3.9258  -25.0186  -48.0520 O.2       12 UNK        -0.5000 
     74 N          -2.9529  -24.5327  -46.0623 N.am      13 UNK        -0.5000 
     75 CA         -3.0908  -25.8561  -45.4548 C.3       13 UNK         0.1400 
     76 CB         -2.7077  -25.7860  -43.9689 C.3       13 UNK        -0.1800 
     77 C          -2.2663  -26.9321  -46.1854 C.2       13 UNK         0.5000 
     78 O          -2.7799  -28.0242  -46.4300 O.2       13 UNK        -0.5000 
     79 N          -1.0205  -26.5961  -46.5489 N.am      14 UNK        -0.5000 
     80 CA         -0.1165  -27.4662  -47.3034 C.3       14 UNK         0.1400 
     81 CB          1.3040  -26.8822  -47.2605 C.3       14 UNK        -0.1800 
     82 C          -0.5732  -27.6897  -48.7585 C.2       14 UNK         0.5000 
     83 O          -0.4989  -28.8138  -49.2556 O.2       14 UNK        -0.5000 
     84 N          -1.0458  -26.6188  -49.4086 N.am      15 UNK        -0.5000 
     85 CA         -1.5132  -26.6072  -50.7959 C.3       15 UNK         0.1400 
     86 CB         -1.4457  -25.1636  -51.3212 C.3       15 UNK        -0.1800 
     87 C          -2.9349  -27.1724  -50.9822 C.2       15 UNK         0.5000 
     88 O          -3.3505  -27.3631  -52.1248 O.2       15 UNK        -0.5000 
     89 N          -3.6620  -27.3956  -49.8775 N.am      16 UNK        -0.5000 
     90 CA         -5.0679  -27.8103  -49.8069 C.3       16 UNK         0.1400 
     91 CB         -5.2590  -29.2325  -50.3745 C.3       16 UNK        -0.1800 
     92 C          -6.0153  -26.7641  -50.4344 C.2       16 UNK         0.5000 
     93 O          -6.9208  -27.1128  -51.1941 O.2       16 UNK        -0.5000 
     94 N          -5.7664  -25.4915  -50.0934 N.am      17 UNK        -0.5000 
     95 CA         -6.4901  -24.2839  -50.5040 C.3       17 UNK         0.1400 
     96 CB         -7.9140  -24.2761  -49.9110 C.3       17 UNK        -0.1800 
     97 C          -6.4684  -24.0172  -52.0255 C.2       17 UNK         0.5000 
     98 O          -7.4150  -23.4366  -52.5617 O.2       17 UNK        -0.5000 
     99 N          -5.3878  -24.4372  -52.6960 N.am      18 UNK        -0.5000 
    100 CA        -5.1248  -24.1501  -54.1057 C.3       18 UNK         0.1400 
    101 CB        -4.1366  -25.1937  -54.6491 C.3       18 UNK        -0.1800 
    102 C         -4.5770  -22.7224  -54.3049 C.2       18 UNK         0.5000 
    103 O         -4.0629  -22.1224  -53.3575 O.2       18 UNK        -0.5000 
    104 N         -4.6711  -22.2430  -55.5549 N.am      19 UNK        -0.5000 
    105 CA        -4.3171  -20.9107  -56.0666 C.3       19 UNK         0.1400 
    106 CB        -2.8690  -20.5170  -55.7112 C.3       19 UNK        -0.1800 
    107 C         -5.3127  -19.8202  -55.6298 C.2       19 UNK         0.5000 
    108 O         -5.9001  -19.9005  -54.5514 O.2       19 UNK        -0.5000 
    109 N         -5.4758  -18.7889  -56.4683 N.am      20 UNK        -0.5000 
    110 CA        -6.4381  -17.6962  -56.2697 C.3       20 UNK         0.1400 
    111 CB        -6.4265  -16.7896  -57.5102 C.3       20 UNK        -0.1800 
    112 C         -6.2079  -16.8619  -54.9920 C.2       20 UNK         0.5000 
    113 O         -7.1592  -16.2861  -54.4626 O.2       20 UNK        -0.5000 
    114 N         -4.9560  -16.8198  -54.5202 N.am      21 UNK        -0.5000 
    115 CA        -4.5437  -16.1088  -53.3122 C.3       21 UNK         0.1400 
    116 CB        -3.0666  -15.7108  -53.4682 C.3       21 UNK        -0.1800 
    117 C         -4.7467  -16.9167  -52.0137 C.2       21 UNK         0.5000 
    118 O         -4.6890  -16.3160  -50.9400 O.2       21 UNK        -0.5000 
    119 N         -4.9423  -18.2396  -52.1132 N.am      22 UNK        -0.5000 
    120 CA        -4.9585  -19.1659  -50.9655 C.3       22 UNK         0.1400 
    121 C         -6.1417  -20.1752  -50.9569 C.2       22 UNK         0.5000 
    122 N         -6.8771  -20.3774  -52.0393 N.am      22 UNK        -0.7600 
    123 O         -6.4156  -20.7802  -49.9247 O.2       22 UNK        -0.5000 
    124 C124       -3.5902  -19.8885  -50.8152 C.3       23 UNK        -0.0398 
    125 S125       -2.4415  -18.9936  -49.7181 S.3       23 UNK        -0.2404 
    126 C126       -1.3528  -18.1147  -50.8809 C.3       23 UNK        -0.0205 
    127 H127       -2.2343  -11.7773  -46.7569 H         1 UNK         0.0600 
    128 H128       -1.5064  -13.0926  -45.8293 H         1 UNK         0.0600 
    129 H129       -1.3142  -11.4215  -45.2918 H         1 UNK         0.0600 
    130 H130       -1.1201  -11.5783  -48.6595 H         1 UNK         0.3000 
    131 H131        0.3970  -11.0992  -50.1216 H         1 UNK         0.0600 
    132 H132        0.5742  -13.5818  -50.0739 H         1 UNK         0.0800 
    133 H133        1.9350  -12.7746  -50.7613 H         1 UNK         0.0800 
    134 H134        1.8416  -15.3305  -46.9595 H         1 UNK         0.0800 
    135 H135        0.4808  -14.6149  -47.7760 H         1 UNK         0.0800 
    136 H136       -0.6750  -15.8559  -49.4865 H         1 UNK         0.1150 
    137 H137        0.8556  -19.6592  -50.7203 H         1 UNK         0.1150 
    138 H138        3.1890  -17.1509  -48.1443 H         1 UNK         0.1150 
    139 H139        3.1948  -20.2241  -50.2404 H         1 UNK         0.0800 
    140 H140        4.1936  -19.1644  -49.2772 H         1 UNK         0.0800 
    141 H141        1.1146  -21.4644  -49.2140 H         1 UNK         0.0800 
    142 H142        0.5412  -20.3773  -47.9648 H         1 UNK         0.0800 
    143 H143        1.5485  -23.2082  -47.4285 H         1 UNK         0.0600 
    144 H144        0.8432  -21.1492  -45.6036 H         1 UNK         0.3000 
    145 H145       -0.0723  -23.3201  -42.8733 H         1 UNK         0.0600 
    146 H146        1.6038  -21.8400  -41.8077 H         1 UNK         0.0600 
    147 H147        2.3985  -22.9990  -42.8632 H         1 UNK         0.0600 
    148 H148        2.2023  -21.3309  -43.3843 H         1 UNK         0.0600 
    149 H149       -0.1448  -20.4858  -43.1051 H         1 UNK         0.3000 
    150 H150       -3.5438  -20.2334  -44.2513 H         1 UNK         0.0600 
    151 H151       -3.5932  -20.5579  -41.7688 H         1 UNK         0.0600 
    152 H152       -3.6692  -18.8573  -42.2043 H         1 UNK         0.0600 
    153 H153       -2.1626  -19.5461  -41.6039 H         1 UNK         0.0600 
    154 H154       -1.7106  -18.1838  -43.6543 H         1 UNK         0.3000 
    155 H155       -0.1701  -17.9383  -46.9036 H         1 UNK         0.0600 
    156 H156       -0.9282  -15.5613  -46.2725 H         1 UNK         0.0600 
    157 H157       -2.1749  -16.2904  -45.2735 H         1 UNK         0.0600 
    158 H158       -2.1664  -16.5710  -47.0070 H         1 UNK         0.0600 
    159 H159        0.4281  -16.5133  -44.5486 H         1 UNK         0.3000 
    160 H160        2.8276  -18.7730  -43.1402 H         1 UNK         0.0600 
    161 H161        3.0358  -16.0425  -44.5183 H         1 UNK         0.0600 
    162 H162        4.0450  -17.4445  -44.8217 H         1 UNK         0.0600 
    163 H163        4.1242  -16.6343  -43.2642 H         1 UNK         0.0600 
    164 H164        1.6622  -16.2242  -42.3951 H         1 UNK         0.3000 
    165 H165       -0.8687  -17.5886  -40.2826 H         1 UNK         0.0600 
    166 H166        1.7471  -16.1415  -39.5917 H         1 UNK         0.0600 
    167 H167        0.2915  -16.1892  -38.5964 H         1 UNK         0.0600 
    168 H168        1.2051  -17.6606  -38.8879 H         1 UNK         0.0600 
    169 H169       -0.0074  -14.9117  -40.8321 H         1 UNK         0.3000 
    170 H170       -1.8684  -14.3795  -43.7887 H         1 UNK         0.0600 
    171 H171       -3.6719  -14.1834  -42.0707 H         1 UNK         0.0600 
    172 H172       -2.5548  -13.3785  -40.9749 H         1 UNK         0.0600 
    173 H173       -3.0167  -12.6104  -42.4948 H         1 UNK         0.0600 
    174 H174       -0.5144  -12.5390  -42.1274 H         1 UNK         0.3000 
    175 H175        1.4502  -11.6063  -43.1571 H         1 UNK         0.0600 
    176 H176        3.2420  -12.0689  -41.4404 H         1 UNK         0.0600 
    177 H177        1.6872  -12.6440  -40.8689 H         1 UNK         0.0600 
    178 H178        2.8669  -13.7892  -41.4985 H         1 UNK         0.0600 
    179 H179        2.8537  -13.6954  -44.5252 H         1 UNK         0.3000 
    180 H180        5.7727  -11.9473  -45.2324 H         1 UNK         0.0600 
    181 H181        3.9567  -14.2599  -46.1044 H         1 UNK         0.0600 
    182 H182        5.1710  -14.3309  -44.8288 H         1 UNK         0.0600 
    183 H183        5.6589  -14.0642  -46.4922 H         1 UNK         0.0600 
    184 H184        3.6872  -12.1388  -47.3356 H         1 UNK         0.3000 
    185 H185        4.1064   -8.9793  -48.5584 H         1 UNK         0.0600 
    186 H186        5.1801   -9.7600  -50.6684 H         1 UNK         0.0600 
    187 H187        6.3755   -9.5427  -49.4009 H         1 UNK         0.0600 
    188 H188        5.8425  -11.1637  -49.8302 H         1 UNK         0.0600 
    189 H189        3.4526  -11.6813  -49.5871 H         1 UNK         0.3000 
    190 H190       -1.6131  -21.5163  -46.9154 H         1 UNK         0.3000 
    191 H191       -3.0582  -22.8538  -48.9146 H         1 UNK         0.0600 
    192 H192       -3.8860  -20.8212  -47.7630 H         1 UNK         0.0600 
    193 H193       -5.0667  -22.1121  -47.6315 H         1 UNK         0.0600 
    194 H194       -4.0505  -21.7096  -46.2514 H         1 UNK         0.0600 
    195 H195       -2.5312  -23.8077  -45.4889 H         1 UNK         0.3000 
    196 H196       -4.1422  -26.1436  -45.5197 H         1 UNK         0.0600 
    197 H197       -2.8099  -26.7614  -43.4918 H         1 UNK         0.0600 
    198 H198       -3.3515  -25.0910  -43.4296 H         1 UNK         0.0600 
    199 H199       -1.6766  -25.4587  -43.8326 H         1 UNK         0.0600 
    200 H200       -0.6651  -25.6820  -46.2903 H         1 UNK         0.3000 
    201 H201       -0.0954  -28.4398  -46.8093 H         1 UNK         0.0600 
    202 H202        1.6604  -26.7894  -46.2344 H         1 UNK         0.0600 
    203 H203        1.3485  -25.8937  -47.7185 H         1 UNK         0.0600 
    204 H204        2.0069  -27.5238  -47.7934 H         1 UNK         0.0600 
    205 H205       -1.0073  -25.7131  -48.9437 H         1 UNK         0.3000 
    206 H206       -0.8366  -27.2197  -51.3953 H         1 UNK         0.0600 
    207 H207       -0.4422  -24.7514  -51.2148 H         1 UNK         0.0600 
    208 H208       -1.6989  -25.1171  -52.3795 H         1 UNK         0.0600 
    209 H209       -2.1354  -24.5086  -50.7869 H         1 UNK         0.0600 
    210 H210       -3.2370  -27.1545  -48.9919 H         1 UNK         0.3000 
    211 H211       -5.3175  -27.8465  -48.7454 H         1 UNK         0.0600 
    212 H212       -5.0856  -29.2699  -51.4502 H         1 UNK         0.0600 
    213 H213       -6.2741  -29.5888  -50.1962 H         1 UNK         0.0600 
    214 H214       -4.5789  -29.9399  -49.8999 H         1 UNK         0.0600 
    215 H215       -5.0095  -25.3336  -49.4284 H         1 UNK         0.3000 
    216 H216       -5.9468  -23.4529  -50.0528 H         1 UNK         0.0600 
    217 H217       -7.8930  -24.4434  -48.8342 H         1 UNK         0.0600 
    218 H218       -8.5434  -25.0450  -50.3598 H         1 UNK         0.0600 
    219 H219       -8.4006  -23.3142  -50.0774 H         1 UNK         0.0600 
    220 H220       -4.6559  -24.9092  -52.1867 H         1 UNK         0.3000 
    221 H221       -6.0606  -24.2417  -54.6613 H         1 UNK         0.0600 
    222 H222       -3.1654  -25.1220  -54.1610 H         1 UNK         0.0600 
    223 H223       -4.5114  -26.2068  -54.5010 H         1 UNK         0.0600 
    224 H224       -3.9738  -25.0628  -55.7194 H         1 UNK         0.0600 
    225 H225       -5.1169  -22.8384  -56.2386 H         1 UNK         0.3000 
    226 H226       -4.3807  -20.9924  -57.1528 H         1 UNK         0.0600 
    227 H227       -2.1679  -21.3091  -55.9739 H         1 UNK         0.0600 
    228 H228       -2.5655  -19.6221  -56.2555 H         1 UNK         0.0600 
    229 H229       -2.7502  -20.3010  -54.6490 H         1 UNK         0.0600 
    230 H230       -4.9513  -18.7704  -57.3313 H         1 UNK         0.3000 
    231 H231       -7.4306  -18.1439  -56.1854 H         1 UNK         0.0600 
    232 H232       -7.1507  -15.9799  -57.4103 H         1 UNK         0.0600 
    233 H233       -6.6881  -17.3470  -58.4098 H         1 UNK         0.0600 
    234 H234       -5.4470  -16.3362  -57.6674 H         1 UNK         0.0600 
    235 H235       -4.2382  -17.3195  -55.0237 H         1 UNK         0.3000 
    236 H236       -5.1300  -15.1920  -53.2194 H         1 UNK         0.0600 
    237 H237       -2.9221  -15.0675  -54.3364 H         1 UNK         0.0600 
    238 H238       -2.7134  -15.1588  -52.5961 H         1 UNK         0.0600 
    239 H239       -2.4244  -16.5843  -53.5879 H         1 UNK         0.0600 
    240 H240       -5.0463  -18.6614  -53.0273 H         1 UNK         0.3000 
    241 H241       -5.1358  -18.5892  -50.0557 H         1 UNK         0.0600 
    242 H242       -6.5866  -20.0260  -52.9499 H         1 UNK         0.3800 
    243 H243       -7.6106  -21.0675  -52.0005 H         1 UNK         0.3800 
    244 H244       -3.1296  -20.0651  -51.7882 H         1 UNK         0.0800 
    245 H245       -3.7077  -20.8802  -50.3751 H         1 UNK         0.0800 
    246 H246       -1.1674  -18.7257  -51.7654 H         1 UNK         0.0800 
    247 H247       -1.8436  -17.2031  -51.2204 H         1 UNK         0.0800 
@<TRIPOS>BOND
     1    1    2 1    
     2    1  127 1    
     3    1  128 1    
     4    1  129 1    
     5    2    3 2    
     6    2    4 am   BACKBONE|DICT|INTERRES
     7    4    5 1    
     8    4  130 1    
     9    5    6 1    
    10    5   65 1    
    11    5  131 1    
    12    6    7 1    
    13    6  132 1    
    14    6  133 1    
    15    7    8 1    
    16    8    9 1    
    17    8  134 1    
    18    8  135 1    
    19    9   10 ar   
    20    9   14 ar   
    21   10   11 ar   
    22   10  136 1    
    23   11   12 ar   
    24   11  126 1    
    25   12   13 ar   
    26   12  137 1    
    27   13   14 ar   
    28   13   15 1    
    29   14  138 1    
    30   15   16 1    
    31   15  139 1    
    32   15  140 1    
    33   16   17 1    
    34   17   18 1    
    35   17  141 1    
    36   17  142 1    
    37   18   19 1    
    38   18   67 1    
    39   18  143 1    
    40   19   20 am   BACKBONE|DICT|INTERRES
    41   19  144 1    
    42   20   21 2    
    43   20   22 1    
    44   22   23 1    
    45   22   24 1    
    46   22  145 1    
    47   23  146 1    
    48   23  147 1    
    49   23  148 1    
    50   24   25 am   BACKBONE|DICT|INTERRES
    51   24  149 1    
    52   25   26 2    
    53   25   27 1    
    54   27   28 1    
    55   27   29 1    
    56   27  150 1    
    57   28  151 1    
    58   28  152 1    
    59   28  153 1    
    60   29   30 am   BACKBONE|DICT|INTERRES
    61   29  154 1    
    62   30   31 2    
    63   30   32 1    
    64   32   33 1    
    65   32   34 1    
    66   32  155 1    
    67   33  156 1    
    68   33  157 1    
    69   33  158 1    
    70   34   35 am   BACKBONE|DICT|INTERRES
    71   34  159 1    
    72   35   36 2    
    73   35   37 1    
    74   37   38 1    
    75   37   39 1    
    76   37  160 1    
    77   38  161 1    
    78   38  162 1    
    79   38  163 1    
    80   39   40 am   BACKBONE|DICT|INTERRES
    81   39  164 1    
    82   40   41 2    
    83   40   42 1    
    84   42   43 1    
    85   42   44 1    
    86   42  165 1    
    87   43  166 1    
    88   43  167 1    
    89   43  168 1    
    90   44   45 am   BACKBONE|DICT|INTERRES
    91   44  169 1    
    92   45   46 2    
    93   45   47 1    
    94   47   48 1    
    95   47   49 1    
    96   47  170 1    
    97   48  171 1    
    98   48  172 1    
    99   48  173 1    
   100   49   50 am   BACKBONE|DICT|INTERRES
   101   49  174 1    
   102   50   51 2    
   103   50   52 1    
   104   52   53 1    
   105   52   54 1    
   106   52  175 1    
   107   53  176 1    
   108   53  177 1    
   109   53  178 1    
   110   54   55 am   BACKBONE|DICT|INTERRES
   111   54  179 1    
   112   55   56 2    
   113   55   57 1    
   114   57   58 1    
   115   57   59 1    
   116   57  180 1    
   117   58  181 1    
   118   58  182 1    
   119   58  183 1    
   120   59   60 am   BACKBONE|DICT|INTERRES
   121   59  184 1    
   122   60   61 2    
   123   60   62 1    
   124   62   63 1    
   125   62   64 1    
   126   62  185 1    
   127   63  186 1    
   128   63  187 1    
   129   63  188 1    
   130   64   65 am   BACKBONE|DICT|INTERRES
   131   64  189 1    
   132   65   66 2    
   133   67   68 2    
   134   67   69 am   BACKBONE|DICT|INTERRES
   135   69   70 1    
   136   69  190 1    
   137   70   71 1    
   138   70   72 1    
   139   70  191 1    
   140   71  192 1    
   141   71  193 1    
   142   71  194 1    
   143   72   73 2    
   144   72   74 am   BACKBONE|DICT|INTERRES
   145   74   75 1    
   146   74  195 1    
   147   75   76 1    
   148   75   77 1    
   149   75  196 1    
   150   76  197 1    
   151   76  198 1    
   152   76  199 1    
   153   77   78 2    
   154   77   79 am   BACKBONE|DICT|INTERRES
   155   79   80 1    
   156   79  200 1    
   157   80   81 1    
   158   80   82 1    
   159   80  201 1    
   160   81  202 1    
   161   81  203 1    
   162   81  204 1    
   163   82   83 2    
   164   82   84 am   BACKBONE|DICT|INTERRES
   165   84   85 1    
   166   84  205 1    
   167   85   86 1    
   168   85   87 1    
   169   85  206 1    
   170   86  207 1    
   171   86  208 1    
   172   86  209 1    
   173   87   88 2    
   174   87   89 am   BACKBONE|DICT|INTERRES
   175   89   90 1    
   176   89  210 1    
   177   90   91 1    
   178   90   92 1    
   179   90  211 1    
   180   91  212 1    
   181   91  213 1    
   182   91  214 1    
   183   92   93 2    
   184   92   94 am   BACKBONE|DICT|INTERRES
   185   94   95 1    
   186   94  215 1    
   187   95   96 1    
   188   95   97 1    
   189   95  216 1    
   190   96  217 1    
   191   96  218 1    
   192   96  219 1    
   193   97   98 2    
   194   97   99 am   BACKBONE|DICT|INTERRES
   195   99  100 1    
   196   99  220 1    
   197  100  101 1    
   198  100  102 1    
   199  100  221 1    
   200  101  222 1    
   201  101  223 1    
   202  101  224 1    
   203  102  103 2    
   204  102  104 am   BACKBONE|DICT|INTERRES
   205  104  105 1    
   206  104  225 1    
   207  105  106 1    
   208  105  107 1    
   209  105  226 1    
   210  106  227 1    
   211  106  228 1    
   212  106  229 1    
   213  107  108 2    
   214  107  109 am   BACKBONE|DICT|INTERRES
   215  109  110 1    
   216  109  230 1    
   217  110  111 1    
   218  110  112 1    
   219  110  231 1    
   220  111  232 1    
   221  111  233 1    
   222  111  234 1    
   223  112  113 2    
   224  112  114 am   BACKBONE|DICT|INTERRES
   225  114  115 1    
   226  114  235 1    
   227  115  116 1    
   228  115  117 1    
   229  115  236 1    
   230  116  237 1    
   231  116  238 1    
   232  116  239 1    
   233  117  118 2    
   234  117  119 am   BACKBONE|DICT|INTERRES
   235  119  120 1    
   236  119  240 1    
   237  120  121 1    
   238  120  124 1    
   239  120  241 1    
   240  121  122 am   BACKBONE|DICT|INTERRES
   241  121  123 2    
   242  122  242 1    
   243  122  243 1    
   244  124  125 1    
   245  124  244 1    
   246  124  245 1    
   247  125  126 1    
   248  126  246 1    
   249  126  247 1    
@<TRIPOS>SUBSTRUCTURE
     1 UNK         1 GROUP             0       ****    0 ROOT    
