@<TRIPOS>MOLECULE
3R540
247   249    1
SMALL
USER_CHARGES


@<TRIPOS>ATOM
      1 CA          2.3063  -11.9467  -47.6359 C.3       0 UNK        -0.1800 
      2 C           1.2155  -12.8399  -48.2094 C.2       0 UNK         0.5000 
      3 O           0.4590  -12.4016  -49.0754 O.2       0 UNK        -0.5000 
      4 N           1.1390  -14.0901  -47.7307 N.am      1 UNK        -0.5000 
      5 CA          0.1638  -15.1135  -48.1393 C.3       1 UNK         0.1400 
      6 C6          0.3261  -15.5352  -49.6296 C.3       23 UNK        -0.0398 
      7 S7          0.2210  -17.3432  -49.8520 S.3       23 UNK        -0.2404 
      8 C8          1.9103  -17.7268  -50.4165 C.3       23 UNK        -0.0205 
      9 C9          2.1870  -19.2242  -50.4879 C.ar      23 UNK        -0.0193 
     10 C10         1.5940  -20.0015  -51.4874 C.ar      23 UNK        -0.1150 
     11 C11         1.8945  -21.3656  -51.6118 C.ar      23 UNK        -0.0193 
     12 C12         2.8068  -21.9380  -50.7216 C.ar      23 UNK        -0.1150 
     13 C13         3.4043  -21.1787  -49.7135 C.ar      23 UNK        -0.0193 
     14 C14         3.0836  -19.8224  -49.5961 C.ar      23 UNK        -0.1150 
     15 C15         4.4348  -21.8176  -48.7899 C.3       23 UNK        -0.0205 
     16 S16         3.7453  -23.1686  -47.7781 S.3       23 UNK        -0.2404 
     17 C17         2.6475  -22.2361  -46.6635 C.3       23 UNK        -0.0398 
     18 CA          1.2911  -22.9237  -46.3826 C.3       11 UNK         0.1400 
     19 N           0.5771  -22.2455  -45.2982 N.am      11 UNK        -0.5000 
     20 C          -0.5348  -22.6959  -44.7025 C.2       10 UNK         0.5000 
     21 O          -1.0496  -23.7840  -44.9533 O.2       10 UNK        -0.5000 
     22 CA         -1.2128  -21.7531  -43.6908 C.3       10 UNK         0.1400 
     23 CB         -0.5782  -21.8992  -42.3002 C.3       10 UNK        -0.1800 
     24 N          -1.1676  -20.3509  -44.1087 N.am      10 UNK        -0.5000 
     25 C          -1.7679  -19.8607  -45.2032 C.2       9 UNK         0.5000 
     26 O          -2.4866  -20.5318  -45.9416 O.2       9 UNK        -0.5000 
     27 CA         -1.4632  -18.3945  -45.5667 C.3       9 UNK         0.1400 
     28 CB         -2.3312  -17.4312  -44.7467 C.3       9 UNK        -0.1800 
     29 N          -0.0465  -18.0643  -45.3903 N.am      9 UNK        -0.5000 
     30 C           0.9393  -18.6261  -46.1054 C.2       8 UNK         0.5000 
     31 O           0.7425  -19.4192  -47.0237 O.2       8 UNK        -0.5000 
     32 CA          2.3825  -18.3024  -45.6842 C.3       8 UNK         0.1400 
     33 CB          2.8876  -17.0141  -46.3482 C.3       8 UNK        -0.1800 
     34 N           2.5054  -18.1915  -44.2317 N.am      8 UNK        -0.5000 
     35 C           2.5161  -19.2424  -43.3997 C.2       7 UNK         0.5000 
     36 O           2.4637  -20.4105  -43.7835 O.2       7 UNK        -0.5000 
     37 CA          2.5501  -18.9410  -41.8880 C.3       7 UNK         0.1400 
     38 CB          3.9973  -18.7625  -41.4064 C.3       7 UNK        -0.1800 
     39 N           1.7686  -17.7584  -41.5207 N.am      7 UNK        -0.5000 
     40 C           0.4404  -17.6554  -41.6642 C.2       6 UNK         0.5000 
     41 O          -0.2702  -18.5767  -42.0627 O.2       6 UNK        -0.5000 
     42 CA         -0.2049  -16.2892  -41.3624 C.3       6 UNK         0.1400 
     43 CB         -0.7460  -16.2552  -39.9261 C.3       6 UNK        -0.1800 
     44 N           0.6540  -15.1206  -41.5784 N.am      6 UNK        -0.5000 
     45 C           1.2968  -14.8149  -42.7144 C.2       5 UNK         0.5000 
     46 O           1.3723  -15.5687  -43.6870 O.2       5 UNK        -0.5000 
     47 CA          1.8786  -13.3964  -42.7822 C.3       5 UNK         0.1400 
     48 CB          2.6348  -13.1182  -44.0936 C.3       5 UNK        -0.1800 
     49 N           0.7634  -12.4644  -42.6599 N.am      5 UNK        -0.5000 
     50 C           0.7620  -11.3175  -41.9710 C.2       4 UNK         0.5000 
     51 O           1.7424  -10.8919  -41.3590 O.2       4 UNK        -0.5000 
     52 CA         -0.5472  -10.4964  -41.9609 C.3       4 UNK         0.1400 
     53 CB         -0.4243   -9.2881  -42.9025 C.3       4 UNK        -0.1800 
     54 N          -1.7347  -11.2654  -42.3432 N.am      4 UNK        -0.5000 
     55 C          -2.3072  -12.2246  -41.6025 C.2       3 UNK         0.5000 
     56 O          -1.9369  -12.5177  -40.4653 O.2       3 UNK        -0.5000 
     57 CA         -3.4668  -13.0153  -42.2501 C.3       3 UNK         0.1400 
     58 CB         -4.8196  -12.4602  -41.7792 C.3       3 UNK        -0.1800 
     59 N          -3.4568  -13.0619  -43.7210 N.am      3 UNK        -0.5000 
     60 C          -2.4448  -13.5181  -44.4707 C.2       2 UNK         0.5000 
     61 O          -1.3681  -13.8793  -43.9947 O.2       2 UNK        -0.5000 
     62 CA         -2.6454  -13.5614  -45.9939 C.3       2 UNK         0.1400 
     63 CB         -2.9640  -12.1700  -46.5712 C.3       2 UNK        -0.1800 
     64 N          -1.4120  -14.0604  -46.5920 N.am      2 UNK        -0.5000 
     65 C          -1.2858  -14.7368  -47.7378 C.2       1 UNK         0.5000 
     66 O          -2.2424  -15.0461  -48.4483 O.2       1 UNK        -0.5000 
     67 C           0.4071  -23.0656  -47.6433 C.2       11 UNK         0.5000 
     68 O           0.2976  -24.1664  -48.1848 O.2       11 UNK        -0.5000 
     69 N          -0.2681  -21.9792  -48.0458 N.am      12 UNK        -0.5000 
     70 CA         -1.2378  -21.9846  -49.1425 C.3       12 UNK         0.1400 
     71 CB         -1.6405  -20.5498  -49.4946 C.3       12 UNK        -0.1800 
     72 C          -2.4819  -22.8416  -48.8467 C.2       12 UNK         0.5000 
     73 O          -2.9883  -23.5017  -49.7538 O.2       12 UNK        -0.5000 
     74 N          -2.9546  -22.8438  -47.5931 N.am      13 UNK        -0.5000 
     75 CA         -4.0483  -23.6995  -47.1281 C.3       13 UNK         0.1400 
     76 CB         -4.4973  -23.2690  -45.7250 C.3       13 UNK        -0.1800 
     77 C          -3.6813  -25.1937  -47.1653 C.2       13 UNK         0.5000 
     78 O          -4.4862  -25.9980  -47.6340 O.2       13 UNK        -0.5000 
     79 N          -2.4578  -25.5343  -46.7359 N.am      14 UNK        -0.5000 
     80 CA         -1.8889  -26.8833  -46.8156 C.3       14 UNK         0.1400 
     81 CB         -0.5627  -26.9289  -46.0419 C.3       14 UNK        -0.1800 
     82 C          -1.6953  -27.3694  -48.2659 C.2       14 UNK         0.5000 
     83 O          -1.8828  -28.5549  -48.5404 O.2       14 UNK        -0.5000 
     84 N          -1.3738  -26.4379  -49.1740 N.am      15 UNK        -0.5000 
     85 CA         -1.2976  -26.6553  -50.6207 C.3       15 UNK         0.1400 
     86 CB         -0.4540  -25.5306  -51.2439 C.3       15 UNK        -0.1800 
     87 C          -2.6785  -26.7437  -51.3101 C.2       15 UNK         0.5000 
     88 O          -2.7270  -27.0235  -52.5083 O.2       15 UNK        -0.5000 
     89 N          -3.7642  -26.4908  -50.5611 N.am      16 UNK        -0.5000 
     90 CA         -5.1700  -26.4521  -50.9842 C.3       16 UNK         0.1400 
     91 CB         -5.6298  -27.8191  -51.5328 C.3       16 UNK        -0.1800 
     92 C          -5.5051  -25.2796  -51.9319 C.2       16 UNK         0.5000 
     93 O          -6.5271  -25.3190  -52.6190 O.2       16 UNK        -0.5000 
     94 N          -4.6564  -24.2456  -51.9339 N.am      17 UNK        -0.5000 
     95 CA         -4.8407  -23.0018  -52.6769 C.3       17 UNK         0.1400 
     96 CB         -3.4602  -22.4590  -53.0605 C.3       17 UNK        -0.1800 
     97 C          -5.6099  -21.9579  -51.8510 C.2       17 UNK         0.5000 
     98 O          -6.3527  -21.1632  -52.4262 O.2       17 UNK        -0.5000 
     99 N          -5.4197  -21.9916  -50.5232 N.am      18 UNK        -0.5000 
    100 CA        -6.0331  -21.1402  -49.5016 C.3       18 UNK         0.1400 
    101 CB        -7.5407  -21.4439  -49.3700 C.3       18 UNK        -0.1800 
    102 C         -5.7231  -19.6452  -49.7077 C.2       18 UNK         0.5000 
    103 O         -4.6927  -19.1720  -49.2297 O.2       18 UNK        -0.5000 
    104 N         -6.6051  -18.9270  -50.4131 N.am      19 UNK        -0.5000 
    105 CA        -6.5520  -17.4846  -50.6616 C.3       19 UNK         0.1400 
    106 CB        -7.9732  -16.9991  -51.0011 C.3       19 UNK        -0.1800 
    107 C         -5.5124  -17.0812  -51.7325 C.2       19 UNK         0.5000 
    108 O         -5.8462  -16.3609  -52.6750 O.2       19 UNK        -0.5000 
    109 N         -4.2682  -17.5494  -51.5600 N.am      20 UNK        -0.5000 
    110 CA        -3.0707  -17.2309  -52.3477 C.3       20 UNK         0.1400 
    111 CB        -2.6671  -15.7589  -52.1295 C.3       20 UNK        -0.1800 
    112 C         -3.1767  -17.5904  -53.8464 C.2       20 UNK         0.5000 
    113 O         -2.5423  -16.9422  -54.6814 O.2       20 UNK        -0.5000 
    114 N         -3.9511  -18.6367  -54.1708 N.am      21 UNK        -0.5000 
    115 CA        -4.2021  -19.1036  -55.5412 C.3       21 UNK         0.1400 
    116 CB        -5.4291  -20.0304  -55.5434 C.3       21 UNK        -0.1800 
    117 C         -2.9879  -19.7710  -56.2290 C.2       21 UNK         0.5000 
    118 O         -3.0884  -20.1426  -57.3990 O.2       21 UNK        -0.5000 
    119 N         -1.8676  -19.9027  -55.5067 N.am      22 UNK        -0.5000 
    120 CA        -0.5675  -20.3911  -55.9961 C.3       22 UNK         0.1400 
    121 C          0.0875  -19.5017  -57.0950 C.2       22 UNK         0.5000 
    122 N         -0.2763  -18.2304  -57.2232 N.am      22 UNK        -0.7600 
    123 O          0.9411  -19.9744  -57.8403 O.2       22 UNK        -0.5000 
    124 C124        0.4388  -20.5980  -54.8332 C.3       23 UNK        -0.0398 
    125 S125       -0.2204  -21.6516  -53.4958 S.3       23 UNK        -0.2404 
    126 C126        1.2986  -22.2647  -52.6963 C.3       23 UNK        -0.0205 
    127 H127        2.8009  -11.3950  -48.4354 H         1 UNK         0.0600 
    128 H128        3.0656  -12.5241  -47.1083 H         1 UNK         0.0600 
    129 H129        1.8748  -11.2274  -46.9398 H         1 UNK         0.0600 
    130 H130        1.7979  -14.3788  -47.0224 H         1 UNK         0.3000 
    131 H131        0.4024  -15.9754  -47.5168 H         1 UNK         0.0600 
    132 H132       -0.4031  -15.0441  -50.2746 H         1 UNK         0.0800 
    133 H133        1.2934  -15.2062  -50.0111 H         1 UNK         0.0800 
    134 H134        2.0611  -17.2895  -51.4044 H         1 UNK         0.0800 
    135 H135        2.6309  -17.2426  -49.7572 H         1 UNK         0.0800 
    136 H136        0.9024  -19.5242  -52.1633 H         1 UNK         0.1150 
    137 H137        3.0605  -22.9849  -50.8146 H         1 UNK         0.1150 
    138 H138        3.5520  -19.2251  -48.8270 H         1 UNK         0.1150 
    139 H139        5.2477  -22.2170  -49.3977 H         1 UNK         0.0800 
    140 H140        4.8848  -21.0723  -48.1321 H         1 UNK         0.0800 
    141 H141        2.4888  -21.2377  -47.0649 H         1 UNK         0.0800 
    142 H142        3.1911  -22.0992  -45.7281 H         1 UNK         0.0800 
    143 H143        1.5043  -23.9346  -46.0282 H         1 UNK         0.0600 
    144 H144        0.9623  -21.3613  -44.9898 H         1 UNK         0.3000 
    145 H145       -2.2622  -22.0432  -43.6151 H         1 UNK         0.0600 
    146 H146       -1.0990  -21.2873  -41.5635 H         1 UNK         0.0600 
    147 H147       -0.6249  -22.9332  -41.9565 H         1 UNK         0.0600 
    148 H148        0.4700  -21.6001  -42.3014 H         1 UNK         0.0600 
    149 H149       -0.6548  -19.7137  -43.5045 H         1 UNK         0.3000 
    150 H150       -1.7080  -18.2542  -46.6223 H         1 UNK         0.0600 
    151 H151       -3.3901  -17.5962  -44.9490 H         1 UNK         0.0600 
    152 H152       -2.1087  -16.3965  -44.9983 H         1 UNK         0.0600 
    153 H153       -2.1799  -17.5572  -43.6753 H         1 UNK         0.0600 
    154 H154        0.1961  -17.4246  -44.6453 H         1 UNK         0.3000 
    155 H155        3.0201  -19.1200  -46.0261 H         1 UNK         0.0600 
    156 H156        2.3299  -16.1408  -46.0149 H         1 UNK         0.0600 
    157 H157        3.9398  -16.8430  -46.1211 H         1 UNK         0.0600 
    158 H158        2.7942  -17.0719  -47.4320 H         1 UNK         0.0600 
    159 H159        2.4512  -17.2549  -43.8457 H         1 UNK         0.3000 
    160 H160        2.1216  -19.8014  -41.3699 H         1 UNK         0.0600 
    161 H161        4.4730  -17.8977  -41.8708 H         1 UNK         0.0600 
    162 H162        4.6000  -19.6388  -41.6491 H         1 UNK         0.0600 
    163 H163        4.0398  -18.6297  -40.3252 H         1 UNK         0.0600 
    164 H164        2.2799  -16.9516  -41.1950 H         1 UNK         0.3000 
    165 H165       -1.0519  -16.1809  -42.0423 H         1 UNK         0.0600 
    166 H166       -1.3145  -15.3434  -39.7403 H         1 UNK         0.0600 
    167 H167       -1.4150  -17.0965  -39.7391 H         1 UNK         0.0600 
    168 H168        0.0594  -16.3056  -39.1924 H         1 UNK         0.0600 
    169 H169        0.6304  -14.4199  -40.8516 H         1 UNK         0.3000 
    170 H170        2.5689  -13.2844  -41.9437 H         1 UNK         0.0600 
    171 H171        1.9749  -13.2118  -44.9556 H         1 UNK         0.0600 
    172 H172        3.0546  -12.1123  -44.1012 H         1 UNK         0.0600 
    173 H173        3.4597  -13.8188  -44.2282 H         1 UNK         0.0600 
    174 H174       -0.0995  -12.7827  -43.0949 H         1 UNK         0.3000 
    175 H175       -0.6926  -10.1257  -40.9441 H         1 UNK         0.0600 
    176 H176       -1.3119   -8.6571  -42.8535 H         1 UNK         0.0600 
    177 H177       -0.2884   -9.5988  -43.9393 H         1 UNK         0.0600 
    178 H178        0.4298   -8.6657  -42.6319 H         1 UNK         0.0600 
    179 H179       -2.1073  -11.0924  -43.2649 H         1 UNK         0.3000 
    180 H180       -3.3809  -14.0449  -41.8963 H         1 UNK         0.0600 
    181 H181       -4.9827  -11.4432  -42.1379 H         1 UNK         0.0600 
    182 H182       -4.8764  -12.4374  -40.6900 H         1 UNK         0.0600 
    183 H183       -5.6453  -13.0785  -42.1319 H         1 UNK         0.0600 
    184 H184       -4.3075  -12.7683  -44.1790 H         1 UNK         0.3000 
    185 H185       -3.4643  -14.2513  -46.2074 H         1 UNK         0.0600 
    186 H186       -3.9038  -11.7799  -46.1799 H         1 UNK         0.0600 
    187 H187       -2.1806  -11.4489  -46.3343 H         1 UNK         0.0600 
    188 H188       -3.0611  -12.2083  -47.6565 H         1 UNK         0.0600 
    189 H189       -0.5948  -13.9189  -46.0122 H         1 UNK         0.3000 
    190 H190       -0.0977  -21.0894  -47.5849 H         1 UNK         0.3000 
    191 H191       -0.7456  -22.4128  -50.0180 H         1 UNK         0.0600 
    192 H192       -0.7760  -19.9899  -49.8427 H         1 UNK         0.0600 
    193 H193       -2.3815  -20.5310  -50.2946 H         1 UNK         0.0600 
    194 H194       -2.0614  -20.0226  -48.6380 H         1 UNK         0.0600 
    195 H195       -2.5507  -22.2015  -46.9171 H         1 UNK         0.3000 
    196 H196       -4.8934  -23.5588  -47.8041 H         1 UNK         0.0600 
    197 H197       -5.3564  -23.8544  -45.3955 H         1 UNK         0.0600 
    198 H198       -4.7927  -22.2198  -45.7098 H         1 UNK         0.0600 
    199 H199       -3.7074  -23.4060  -44.9877 H         1 UNK         0.0600 
    200 H200       -1.8719  -24.8196  -46.3109 H         1 UNK         0.3000 
    201 H201       -2.5880  -27.5672  -46.3300 H         1 UNK         0.0600 
    202 H202       -0.7076  -26.6575  -44.9961 H         1 UNK         0.0600 
    203 H203        0.1747  -26.2462  -46.4644 H         1 UNK         0.0600 
    204 H204       -0.1326  -27.9309  -46.0619 H         1 UNK         0.0600 
    205 H205       -1.1593  -25.5021  -48.8462 H         1 UNK         0.3000 
    206 H206       -0.7844  -27.6022  -50.7996 H         1 UNK         0.0600 
    207 H207        0.5270  -25.4629  -50.7731 H         1 UNK         0.0600 
    208 H208       -0.2917  -25.7052  -52.3081 H         1 UNK         0.0600 
    209 H209       -0.9404  -24.5606  -51.1452 H         1 UNK         0.0600 
    210 H210       -3.6147  -26.2643  -49.5854 H         1 UNK         0.3000 
    211 H211       -5.7429  -26.2626  -50.0758 H         1 UNK         0.0600 
    212 H212       -5.1734  -28.0458  -52.4964 H         1 UNK         0.0600 
    213 H213       -6.7110  -27.8398  -51.6734 H         1 UNK         0.0600 
    214 H214       -5.3788  -28.6250  -50.8431 H         1 UNK         0.0600 
    215 H215       -3.8693  -24.2708  -51.2924 H         1 UNK         0.3000 
    216 H216       -5.4032  -23.1940  -53.5929 H         1 UNK         0.0600 
    217 H217       -3.5320  -21.5033  -53.5764 H         1 UNK         0.0600 
    218 H218       -2.9397  -23.1492  -53.7247 H         1 UNK         0.0600 
    219 H219       -2.8326  -22.3039  -52.1828 H         1 UNK         0.0600 
    220 H220       -4.7307  -22.6524  -50.1815 H         1 UNK         0.3000 
    221 H221       -5.5665  -21.4104  -48.5537 H         1 UNK         0.0600 
    222 H222       -8.0824  -21.2852  -50.3026 H         1 UNK         0.0600 
    223 H223       -7.7015  -22.4796  -49.0704 H         1 UNK         0.0600 
    224 H224       -8.0018  -20.8133  -48.6087 H         1 UNK         0.0600 
    225 H225       -7.3675  -19.4248  -50.8508 H         1 UNK         0.3000 
    226 H226       -6.2507  -16.9911  -49.7352 H         1 UNK         0.0600 
    227 H227       -8.6749  -17.2439  -50.2035 H         1 UNK         0.0600 
    228 H228       -7.9989  -15.9163  -51.1302 H         1 UNK         0.0600 
    229 H229       -8.3419  -17.4504  -51.9231 H         1 UNK         0.0600 
    230 H230       -4.1191  -18.1379  -50.7442 H         1 UNK         0.3000 
    231 H231       -2.2716  -17.8538  -51.9429 H         1 UNK         0.0600 
    232 H232       -3.3705  -15.0725  -52.6020 H         1 UNK         0.0600 
    233 H233       -1.6794  -15.5565  -52.5453 H         1 UNK         0.0600 
    234 H234       -2.6282  -15.5167  -51.0685 H         1 UNK         0.0600 
    235 H235       -4.4547  -19.1076  -53.4330 H         1 UNK         0.3000 
    236 H236       -4.4539  -18.2275  -56.1423 H         1 UNK         0.0600 
    237 H237       -6.2879  -19.5523  -55.0717 H         1 UNK         0.0600 
    238 H238       -5.7224  -20.2860  -56.5623 H         1 UNK         0.0600 
    239 H239       -5.2370  -20.9651  -55.0194 H         1 UNK         0.0600 
    240 H240       -1.8831  -19.5847  -54.5505 H         1 UNK         0.3000 
    241 H241       -0.7503  -21.3641  -56.4556 H         1 UNK         0.0600 
    242 H242       -0.9687  -17.8294  -56.6076 H         1 UNK         0.3800 
    243 H243        0.1497  -17.6609  -57.9374 H         1 UNK         0.3800 
    244 H244        1.3556  -21.0525  -55.2126 H         1 UNK         0.0800 
    245 H245        0.7282  -19.6355  -54.4099 H         1 UNK         0.0800 
    246 H246        1.0547  -23.2285  -52.2483 H         1 UNK         0.0800 
    247 H247        2.0586  -22.4670  -53.4516 H         1 UNK         0.0800 
@<TRIPOS>BOND
     1    1    2 1    
     2    1  127 1    
     3    1  128 1    
     4    1  129 1    
     5    2    3 2    
     6    2    4 am   BACKBONE|DICT|INTERRES
     7    4    5 1    
     8    4  130 1    
     9    5    6 1    
    10    5   65 1    
    11    5  131 1    
    12    6    7 1    
    13    6  132 1    
    14    6  133 1    
    15    7    8 1    
    16    8    9 1    
    17    8  134 1    
    18    8  135 1    
    19    9   10 ar   
    20    9   14 ar   
    21   10   11 ar   
    22   10  136 1    
    23   11   12 ar   
    24   11  126 1    
    25   12   13 ar   
    26   12  137 1    
    27   13   14 ar   
    28   13   15 1    
    29   14  138 1    
    30   15   16 1    
    31   15  139 1    
    32   15  140 1    
    33   16   17 1    
    34   17   18 1    
    35   17  141 1    
    36   17  142 1    
    37   18   19 1    
    38   18   67 1    
    39   18  143 1    
    40   19   20 am   BACKBONE|DICT|INTERRES
    41   19  144 1    
    42   20   21 2    
    43   20   22 1    
    44   22   23 1    
    45   22   24 1    
    46   22  145 1    
    47   23  146 1    
    48   23  147 1    
    49   23  148 1    
    50   24   25 am   BACKBONE|DICT|INTERRES
    51   24  149 1    
    52   25   26 2    
    53   25   27 1    
    54   27   28 1    
    55   27   29 1    
    56   27  150 1    
    57   28  151 1    
    58   28  152 1    
    59   28  153 1    
    60   29   30 am   BACKBONE|DICT|INTERRES
    61   29  154 1    
    62   30   31 2    
    63   30   32 1    
    64   32   33 1    
    65   32   34 1    
    66   32  155 1    
    67   33  156 1    
    68   33  157 1    
    69   33  158 1    
    70   34   35 am   BACKBONE|DICT|INTERRES
    71   34  159 1    
    72   35   36 2    
    73   35   37 1    
    74   37   38 1    
    75   37   39 1    
    76   37  160 1    
    77   38  161 1    
    78   38  162 1    
    79   38  163 1    
    80   39   40 am   BACKBONE|DICT|INTERRES
    81   39  164 1    
    82   40   41 2    
    83   40   42 1    
    84   42   43 1    
    85   42   44 1    
    86   42  165 1    
    87   43  166 1    
    88   43  167 1    
    89   43  168 1    
    90   44   45 am   BACKBONE|DICT|INTERRES
    91   44  169 1    
    92   45   46 2    
    93   45   47 1    
    94   47   48 1    
    95   47   49 1    
    96   47  170 1    
    97   48  171 1    
    98   48  172 1    
    99   48  173 1    
   100   49   50 am   BACKBONE|DICT|INTERRES
   101   49  174 1    
   102   50   51 2    
   103   50   52 1    
   104   52   53 1    
   105   52   54 1    
   106   52  175 1    
   107   53  176 1    
   108   53  177 1    
   109   53  178 1    
   110   54   55 am   BACKBONE|DICT|INTERRES
   111   54  179 1    
   112   55   56 2    
   113   55   57 1    
   114   57   58 1    
   115   57   59 1    
   116   57  180 1    
   117   58  181 1    
   118   58  182 1    
   119   58  183 1    
   120   59   60 am   BACKBONE|DICT|INTERRES
   121   59  184 1    
   122   60   61 2    
   123   60   62 1    
   124   62   63 1    
   125   62   64 1    
   126   62  185 1    
   127   63  186 1    
   128   63  187 1    
   129   63  188 1    
   130   64   65 am   BACKBONE|DICT|INTERRES
   131   64  189 1    
   132   65   66 2    
   133   67   68 2    
   134   67   69 am   BACKBONE|DICT|INTERRES
   135   69   70 1    
   136   69  190 1    
   137   70   71 1    
   138   70   72 1    
   139   70  191 1    
   140   71  192 1    
   141   71  193 1    
   142   71  194 1    
   143   72   73 2    
   144   72   74 am   BACKBONE|DICT|INTERRES
   145   74   75 1    
   146   74  195 1    
   147   75   76 1    
   148   75   77 1    
   149   75  196 1    
   150   76  197 1    
   151   76  198 1    
   152   76  199 1    
   153   77   78 2    
   154   77   79 am   BACKBONE|DICT|INTERRES
   155   79   80 1    
   156   79  200 1    
   157   80   81 1    
   158   80   82 1    
   159   80  201 1    
   160   81  202 1    
   161   81  203 1    
   162   81  204 1    
   163   82   83 2    
   164   82   84 am   BACKBONE|DICT|INTERRES
   165   84   85 1    
   166   84  205 1    
   167   85   86 1    
   168   85   87 1    
   169   85  206 1    
   170   86  207 1    
   171   86  208 1    
   172   86  209 1    
   173   87   88 2    
   174   87   89 am   BACKBONE|DICT|INTERRES
   175   89   90 1    
   176   89  210 1    
   177   90   91 1    
   178   90   92 1    
   179   90  211 1    
   180   91  212 1    
   181   91  213 1    
   182   91  214 1    
   183   92   93 2    
   184   92   94 am   BACKBONE|DICT|INTERRES
   185   94   95 1    
   186   94  215 1    
   187   95   96 1    
   188   95   97 1    
   189   95  216 1    
   190   96  217 1    
   191   96  218 1    
   192   96  219 1    
   193   97   98 2    
   194   97   99 am   BACKBONE|DICT|INTERRES
   195   99  100 1    
   196   99  220 1    
   197  100  101 1    
   198  100  102 1    
   199  100  221 1    
   200  101  222 1    
   201  101  223 1    
   202  101  224 1    
   203  102  103 2    
   204  102  104 am   BACKBONE|DICT|INTERRES
   205  104  105 1    
   206  104  225 1    
   207  105  106 1    
   208  105  107 1    
   209  105  226 1    
   210  106  227 1    
   211  106  228 1    
   212  106  229 1    
   213  107  108 2    
   214  107  109 am   BACKBONE|DICT|INTERRES
   215  109  110 1    
   216  109  230 1    
   217  110  111 1    
   218  110  112 1    
   219  110  231 1    
   220  111  232 1    
   221  111  233 1    
   222  111  234 1    
   223  112  113 2    
   224  112  114 am   BACKBONE|DICT|INTERRES
   225  114  115 1    
   226  114  235 1    
   227  115  116 1    
   228  115  117 1    
   229  115  236 1    
   230  116  237 1    
   231  116  238 1    
   232  116  239 1    
   233  117  118 2    
   234  117  119 am   BACKBONE|DICT|INTERRES
   235  119  120 1    
   236  119  240 1    
   237  120  121 1    
   238  120  124 1    
   239  120  241 1    
   240  121  122 am   BACKBONE|DICT|INTERRES
   241  121  123 2    
   242  122  242 1    
   243  122  243 1    
   244  124  125 1    
   245  124  244 1    
   246  124  245 1    
   247  125  126 1    
   248  126  246 1    
   249  126  247 1    
@<TRIPOS>SUBSTRUCTURE
     1 UNK         1 GROUP             0       ****    0 ROOT    
