@<TRIPOS>MOLECULE
3R540
247   249    1
SMALL
USER_CHARGES


@<TRIPOS>ATOM
      1 CA          6.4990   -9.2686  -50.3497 C.3       0 UNK        -0.1800 
      2 C           6.6367  -10.6510  -49.7274 C.2       0 UNK         0.5000 
      3 O           7.6399  -11.3259  -49.9579 O.2       0 UNK        -0.5000 
      4 N           5.6289  -11.0689  -48.9504 N.am      1 UNK        -0.5000 
      5 CA          5.5680  -12.3437  -48.2254 C.3       1 UNK         0.1400 
      6 C6          4.1864  -12.5733  -47.5608 C.3       23 UNK        -0.0398 
      7 S7          2.9508  -13.1778  -48.7587 S.3       23 UNK        -0.2404 
      8 C8          2.5891  -14.8043  -48.0289 C.3       23 UNK        -0.0205 
      9 C9          1.8179  -15.7255  -48.9607 C.ar      23 UNK        -0.0193 
     10 C10         0.5316  -15.3892  -49.3906 C.ar      23 UNK        -0.1150 
     11 C11        -0.2086  -16.2765  -50.1780 C.ar      23 UNK        -0.0193 
     12 C12         0.3537  -17.5012  -50.5497 C.ar      23 UNK        -0.1150 
     13 C13         1.6426  -17.8447  -50.1333 C.ar      23 UNK        -0.0193 
     14 C14         2.3698  -16.9517  -49.3423 C.ar      23 UNK        -0.1150 
     15 C15         2.2527  -19.1817  -50.5250 C.3       23 UNK        -0.0205 
     16 S16         2.1630  -20.3903  -49.1661 S.3       23 UNK        -0.2404 
     17 C17         0.3928  -20.8202  -49.1984 C.3       23 UNK        -0.0398 
     18 CA          0.0795  -22.0578  -48.3249 C.3       11 UNK         0.1400 
     19 N           0.1533  -21.7664  -46.8894 N.am      11 UNK        -0.5000 
     20 C           0.0496  -22.6793  -45.9128 C.2       10 UNK         0.5000 
     21 O          -0.0624  -23.8886  -46.1152 O.2       10 UNK        -0.5000 
     22 CA          0.0079  -22.1510  -44.4666 C.3       10 UNK         0.1400 
     23 CB          1.4134  -21.7902  -43.9625 C.3       10 UNK        -0.1800 
     24 N          -0.8880  -21.0024  -44.3198 N.am      10 UNK        -0.5000 
     25 C          -2.2180  -21.0608  -44.4831 C.2       9 UNK         0.5000 
     26 O          -2.8309  -22.0985  -44.7281 O.2       9 UNK        -0.5000 
     27 CA         -2.9930  -19.7339  -44.4050 C.3       9 UNK         0.1400 
     28 CB         -3.3093  -19.3712  -42.9469 C.3       9 UNK        -0.1800 
     29 N          -2.2790  -18.6296  -45.0426 N.am      9 UNK        -0.5000 
     30 C          -1.9840  -18.5719  -46.3494 C.2       8 UNK         0.5000 
     31 O          -2.3352  -19.4183  -47.1699 O.2       8 UNK        -0.5000 
     32 CA         -1.0990  -17.3993  -46.8020 C.3       8 UNK         0.1400 
     33 CB         -1.9385  -16.1234  -46.9610 C.3       8 UNK        -0.1800 
     34 N           0.0153  -17.1604  -45.8811 N.am      8 UNK        -0.5000 
     35 C           0.9992  -18.0434  -45.6510 C.2       7 UNK         0.5000 
     36 O           1.0820  -19.1292  -46.2204 O.2       7 UNK        -0.5000 
     37 CA          2.0295  -17.6920  -44.5633 C.3       7 UNK         0.1400 
     38 CB          3.2978  -17.0774  -45.1692 C.3       7 UNK        -0.1800 
     39 N           1.4797  -16.7996  -43.5422 N.am      7 UNK        -0.5000 
     40 C           0.6207  -17.2075  -42.5976 C.2       6 UNK         0.5000 
     41 O           0.2357  -18.3726  -42.4849 O.2       6 UNK        -0.5000 
     42 CA          0.0669  -16.1264  -41.6537 C.3       6 UNK         0.1400 
     43 CB          1.1705  -15.5615  -40.7453 C.3       6 UNK        -0.1800 
     44 N          -0.5809  -15.0284  -42.3713 N.am      6 UNK        -0.5000 
     45 C          -1.6671  -15.1342  -43.1471 C.2       5 UNK         0.5000 
     46 O          -2.2407  -16.1992  -43.3715 O.2       5 UNK        -0.5000 
     47 CA         -2.1799  -13.8478  -43.8262 C.3       5 UNK         0.1400 
     48 CB         -2.9702  -12.9618  -42.8437 C.3       5 UNK        -0.1800 
     49 N          -1.1243  -13.1051  -44.5298 N.am      5 UNK        -0.5000 
     50 C          -0.0935  -12.4325  -44.0021 C.2       4 UNK         0.5000 
     51 O           0.0592  -12.2394  -42.7929 O.2       4 UNK        -0.5000 
     52 CA          0.9645  -11.9259  -45.0008 C.3       4 UNK         0.1400 
     53 CB          0.6265  -10.5082  -45.4834 C.3       4 UNK        -0.1800 
     54 N           2.3090  -11.9230  -44.4251 N.am      4 UNK        -0.5000 
     55 C           2.9514  -12.9871  -43.9286 C.2       3 UNK         0.5000 
     56 O           2.4973  -14.1328  -43.9707 O.2       3 UNK        -0.5000 
     57 CA          4.3397  -12.7171  -43.3071 C.3       3 UNK         0.1400 
     58 CB          4.9721  -13.9902  -42.7159 C.3       3 UNK        -0.1800 
     59 N           5.2792  -12.1343  -44.2696 N.am      3 UNK        -0.5000 
     60 C           5.2699  -10.8752  -44.7326 C.2       2 UNK         0.5000 
     61 O           4.4609  -10.0245  -44.3613 O.2       2 UNK        -0.5000 
     62 CA          6.3065  -10.5074  -45.8148 C.3       2 UNK         0.1400 
     63 CB          7.3032   -9.4723  -45.2712 C.3       2 UNK        -0.1800 
     64 N           7.0631  -11.6710  -46.2915 N.am      2 UNK        -0.5000 
     65 C           6.7497  -12.5668  -47.2436 C.2       1 UNK         0.5000 
     66 O           7.4236  -13.5872  -47.3737 O.2       1 UNK        -0.5000 
     67 C          -1.2781  -22.6758  -48.7130 C.2       11 UNK         0.5000 
     68 O          -1.2971  -23.6952  -49.4039 O.2       11 UNK        -0.5000 
     69 N          -2.3800  -22.0878  -48.2247 N.am      12 UNK        -0.5000 
     70 CA         -3.7372  -22.5950  -48.4200 C.3       12 UNK         0.1400 
     71 CB         -4.7576  -21.6068  -47.8380 C.3       12 UNK        -0.1800 
     72 C          -3.9344  -23.9967  -47.8189 C.2       12 UNK         0.5000 
     73 O          -4.4881  -24.8628  -48.4924 O.2       12 UNK        -0.5000 
     74 N          -3.4476  -24.2128  -46.5881 N.am      13 UNK        -0.5000 
     75 CA         -3.4872  -25.5013  -45.8939 C.3       13 UNK         0.1400 
     76 CB         -2.9998  -25.3328  -44.4473 C.3       13 UNK        -0.1800 
     77 C          -2.6851  -26.5981  -46.6161 C.2       13 UNK         0.5000 
     78 O          -3.1816  -27.7168  -46.7505 O.2       13 UNK        -0.5000 
     79 N          -1.4890  -26.2522  -47.1143 N.am      14 UNK        -0.5000 
     80 CA         -0.6357  -27.1338  -47.9174 C.3       14 UNK         0.1400 
     81 CB          0.7229  -26.4562  -48.1511 C.3       14 UNK        -0.1800 
     82 C          -1.2797  -27.5430  -49.2575 C.2       14 UNK         0.5000 
     83 O          -1.0851  -28.6720  -49.7084 O.2       14 UNK        -0.5000 
     84 N          -2.0667  -26.6326  -49.8431 N.am      15 UNK        -0.5000 
     85 CA         -2.8655  -26.8451  -51.0501 C.3       15 UNK         0.1400 
     86 CB         -2.9781  -25.5041  -51.7890 C.3       15 UNK        -0.1800 
     87 C          -4.2627  -27.4398  -50.7638 C.2       15 UNK         0.5000 
     88 O          -5.0719  -27.5329  -51.6878 O.2       15 UNK        -0.5000 
     89 N          -4.5447  -27.8059  -49.5025 N.am      16 UNK        -0.5000 
     90 CA         -5.7990  -28.3820  -48.9982 C.3       16 UNK         0.1400 
     91 CB         -5.9863  -29.8135  -49.5419 C.3       16 UNK        -0.1800 
     92 C          -7.0359  -27.4860  -49.2371 C.2       16 UNK         0.5000 
     93 O          -8.1404  -27.9959  -49.4322 O.2       16 UNK        -0.5000 
     94 N          -6.8144  -26.1635  -49.2394 N.am      17 UNK        -0.5000 
     95 CA         -7.7582  -25.0752  -49.5120 C.3       17 UNK         0.1400 
     96 CB         -8.8718  -25.0340  -48.4459 C.3       17 UNK        -0.1800 
     97 C          -8.3184  -25.0537  -50.9520 C.2       17 UNK         0.5000 
     98 O          -9.2527  -24.2969  -51.2212 O.2       17 UNK        -0.5000 
     99 N          -7.7430  -25.8531  -51.8620 N.am      18 UNK        -0.5000 
    100 CA        -8.1507  -25.9312  -53.2663 C.3       18 UNK         0.1400 
    101 CB        -7.7693  -27.3134  -53.8187 C.3       18 UNK        -0.1800 
    102 C         -7.5285  -24.8174  -54.1294 C.2       18 UNK         0.5000 
    103 O         -8.0365  -24.5412  -55.2171 O.2       18 UNK        -0.5000 
    104 N         -6.4436  -24.2068  -53.6416 N.am      19 UNK        -0.5000 
    105 CA        -5.6630  -23.1642  -54.2966 C.3       19 UNK         0.1400 
    106 CB        -4.8190  -23.7809  -55.4332 C.3       19 UNK        -0.1800 
    107 C         -4.7790  -22.4777  -53.2411 C.2       19 UNK         0.5000 
    108 O         -4.8834  -22.7949  -52.0540 O.2       19 UNK        -0.5000 
    109 N         -3.9165  -21.5596  -53.7009 N.am      20 UNK        -0.5000 
    110 CA        -2.8117  -20.9232  -52.9671 C.3       20 UNK         0.1400 
    111 CB        -1.7686  -21.9794  -52.5540 C.3       20 UNK        -0.1800 
    112 C         -3.2261  -20.0205  -51.7842 C.2       20 UNK         0.5000 
    113 O         -2.3728  -19.6461  -50.9806 O.2       20 UNK        -0.5000 
    114 N         -4.5115  -19.6531  -51.7176 N.am      21 UNK        -0.5000 
    115 CA        -5.0723  -18.7458  -50.7141 C.3       21 UNK         0.1400 
    116 CB        -6.5247  -19.1662  -50.4371 C.3       21 UNK        -0.1800 
    117 C         -5.0011  -17.2647  -51.1393 C.2       21 UNK         0.5000 
    118 O         -5.2974  -16.3936  -50.3216 O.2       21 UNK        -0.5000 
    119 N         -4.6170  -17.0057  -52.3985 N.am      22 UNK        -0.5000 
    120 CA        -4.5026  -15.6776  -53.0339 C.3       22 UNK         0.1400 
    121 C         -5.8650  -14.9551  -53.2798 C.2       22 UNK         0.5000 
    122 N         -7.0010  -15.6388  -53.2121 N.am      22 UNK        -0.7600 
    123 O         -5.8981  -13.7623  -53.5713 O.2       22 UNK        -0.5000 
    124 C124       -3.4562  -14.7481  -52.3527 C.3       23 UNK        -0.0398 
    125 S125       -1.7671  -15.4447  -52.3162 S.3       23 UNK        -0.2404 
    126 C126       -1.6367  -15.9395  -50.5720 C.3       23 UNK        -0.0205 
    127 H127        5.5611   -8.7882  -50.0695 H         1 UNK         0.0600 
    128 H128        7.3188   -8.6281  -50.0244 H         1 UNK         0.0600 
    129 H129        6.5320   -9.3412  -51.4367 H         1 UNK         0.0600 
    130 H130        4.8230  -10.4702  -48.8434 H         1 UNK         0.3000 
    131 H131        5.6915  -13.1181  -48.9862 H         1 UNK         0.0600 
    132 H132        4.2582  -13.2894  -46.7407 H         1 UNK         0.0800 
    133 H133        3.8041  -11.6536  -47.1178 H         1 UNK         0.0800 
    134 H134        3.5308  -15.2756  -47.7439 H         1 UNK         0.0800 
    135 H135        2.0149  -14.6632  -47.1122 H         1 UNK         0.0800 
    136 H136        0.0991  -14.4462  -49.0876 H         1 UNK         0.1150 
    137 H137       -0.2202  -18.1919  -51.1508 H         1 UNK         0.1150 
    138 H138        3.3590  -17.2278  -49.0051 H         1 UNK         0.1150 
    139 H139        1.7651  -19.5854  -51.4137 H         1 UNK         0.0800 
    140 H140        3.2995  -19.0342  -50.7944 H         1 UNK         0.0800 
    141 H141        0.1232  -21.0046  -50.2380 H         1 UNK         0.0800 
    142 H142       -0.1955  -19.9585  -48.8788 H         1 UNK         0.0800 
    143 H143        0.8341  -22.8189  -48.5352 H         1 UNK         0.0600 
    144 H144        0.3077  -20.7928  -46.6375 H         1 UNK         0.3000 
    145 H145       -0.3775  -22.9522  -43.8325 H         1 UNK         0.0600 
    146 H146        1.3835  -21.4211  -42.9371 H         1 UNK         0.0600 
    147 H147        2.0642  -22.6651  -43.9756 H         1 UNK         0.0600 
    148 H148        1.8850  -21.0268  -44.5801 H         1 UNK         0.0600 
    149 H149       -0.4631  -20.1081  -44.1154 H         1 UNK         0.3000 
    150 H150       -3.9384  -19.8696  -44.9340 H         1 UNK         0.0600 
    151 H151       -3.8520  -20.1776  -42.4521 H         1 UNK         0.0600 
    152 H152       -3.9311  -18.4775  -42.8901 H         1 UNK         0.0600 
    153 H153       -2.4019  -19.1830  -42.3722 H         1 UNK         0.0600 
    154 H154       -1.9976  -17.8648  -44.4369 H         1 UNK         0.3000 
    155 H155       -0.6739  -17.6593  -47.7725 H         1 UNK         0.0600 
    156 H156       -1.3209  -15.2613  -47.2089 H         1 UNK         0.0600 
    157 H157       -2.4934  -15.8922  -46.0541 H         1 UNK         0.0600 
    158 H158       -2.6715  -16.2447  -47.7592 H         1 UNK         0.0600 
    159 H159        0.0030  -16.3071  -45.3449 H         1 UNK         0.3000 
    160 H160        2.3205  -18.6278  -44.0817 H         1 UNK         0.0600 
    161 H161        3.1043  -16.0929  -45.5871 H         1 UNK         0.0600 
    162 H162        3.6975  -17.7045  -45.9674 H         1 UNK         0.0600 
    163 H163        4.0780  -16.9690  -44.4159 H         1 UNK         0.0600 
    164 H164        1.7618  -15.8223  -43.5872 H         1 UNK         0.3000 
    165 H165       -0.6860  -16.5980  -41.0188 H         1 UNK         0.0600 
    166 H166        1.9216  -15.0123  -41.3140 H         1 UNK         0.0600 
    167 H167        0.7558  -14.8824  -40.0002 H         1 UNK         0.0600 
    168 H168        1.6827  -16.3604  -40.2077 H         1 UNK         0.0600 
    169 H169       -0.1659  -14.1061  -42.2770 H         1 UNK         0.3000 
    170 H170       -2.8846  -14.1565  -44.5987 H         1 UNK         0.0600 
    171 H171       -3.8360  -13.4984  -42.4538 H         1 UNK         0.0600 
    172 H172       -2.3712  -12.6550  -41.9863 H         1 UNK         0.0600 
    173 H173       -3.3401  -12.0617  -43.3346 H         1 UNK         0.0600 
    174 H174       -1.1557  -13.1905  -45.5359 H         1 UNK         0.3000 
    175 H175        0.9797  -12.5949  -45.8637 H         1 UNK         0.0600 
    176 H176        1.3449  -10.1638  -46.2278 H         1 UNK         0.0600 
    177 H177       -0.3608  -10.4756  -45.9459 H         1 UNK         0.0600 
    178 H178        0.6279   -9.7934  -44.6594 H         1 UNK         0.0600 
    179 H179        2.7723  -11.0233  -44.3488 H         1 UNK         0.3000 
    180 H180        4.1935  -12.0074  -42.4903 H         1 UNK         0.0600 
    181 H181        5.1556  -14.7429  -43.4837 H         1 UNK         0.0600 
    182 H182        4.3214  -14.4392  -41.9646 H         1 UNK         0.0600 
    183 H183        5.9218  -13.7692  -42.2286 H         1 UNK         0.0600 
    184 H184        5.9811  -12.7622  -44.6328 H         1 UNK         0.3000 
    185 H185        5.7634  -10.0365  -46.6317 H         1 UNK         0.0600 
    186 H186        8.0114   -9.1664  -46.0416 H         1 UNK         0.0600 
    187 H187        6.7890   -8.5724  -44.9307 H         1 UNK         0.0600 
    188 H188        7.8728   -9.8638  -44.4275 H         1 UNK         0.0600 
    189 H189        7.8930  -11.8656  -45.7504 H         1 UNK         0.3000 
    190 H190       -2.2894  -21.2178  -47.7049 H         1 UNK         0.3000 
    191 H191       -3.9089  -22.6649  -49.4960 H         1 UNK         0.0600 
    192 H192       -4.6495  -20.6210  -48.2871 H         1 UNK         0.0600 
    193 H193       -5.7777  -21.9425  -48.0284 H         1 UNK         0.0600 
    194 H194       -4.6422  -21.4948  -46.7599 H         1 UNK         0.0600 
    195 H195       -3.0422  -23.4349  -46.0740 H         1 UNK         0.3000 
    196 H196       -4.5297  -25.8247  -45.8622 H         1 UNK         0.0600 
    197 H197       -3.0241  -26.2830  -43.9125 H         1 UNK         0.0600 
    198 H198       -3.6324  -24.6354  -43.8981 H         1 UNK         0.0600 
    199 H199       -1.9766  -24.9585  -44.4077 H         1 UNK         0.0600 
    200 H200       -1.1305  -25.3198  -46.9260 H         1 UNK         0.3000 
    201 H201       -0.4659  -28.0459  -47.3417 H         1 UNK         0.0600 
    202 H202        1.2204  -26.2353  -47.2066 H         1 UNK         0.0600 
    203 H203        0.6166  -25.5197  -48.6992 H         1 UNK         0.0600 
    204 H204        1.3880  -27.1009  -48.7268 H         1 UNK         0.0600 
    205 H205       -2.1347  -25.7130  -49.4206 H         1 UNK         0.3000 
    206 H206       -2.3488  -27.5481  -51.7061 H         1 UNK         0.0600 
    207 H207       -3.5623  -25.5949  -52.7053 H         1 UNK         0.0600 
    208 H208       -3.4574  -24.7538  -51.1607 H         1 UNK         0.0600 
    209 H209       -1.9948  -25.1249  -52.0673 H         1 UNK         0.0600 
    210 H210       -3.8336  -27.6529  -48.7976 H         1 UNK         0.3000 
    211 H211       -5.6852  -28.4525  -47.9158 H         1 UNK         0.0600 
    212 H212       -6.1660  -29.8169  -50.6175 H         1 UNK         0.0600 
    213 H213       -6.8351  -30.3063  -49.0666 H         1 UNK         0.0600 
    214 H214       -5.1066  -30.4268  -49.3467 H         1 UNK         0.0600 
    215 H215       -5.8631  -25.8473  -49.0496 H         1 UNK         0.3000 
    216 H216       -7.1780  -24.1567  -49.4115 H         1 UNK         0.0600 
    217 H217       -8.4532  -25.0276  -47.4395 H         1 UNK         0.0600 
    218 H218       -9.5424  -25.8898  -48.5262 H         1 UNK         0.0600 
    219 H219       -9.4794  -24.1341  -48.5477 H         1 UNK         0.0600 
    220 H220       -6.9685  -26.4443  -51.5817 H         1 UNK         0.3000 
    221 H221       -9.2365  -25.8326  -53.3287 H         1 UNK         0.0600 
    222 H222       -6.6884  -27.4562  -53.8358 H         1 UNK         0.0600 
    223 H223       -8.2042  -28.1131  -53.2187 H         1 UNK         0.0600 
    224 H224       -8.1313  -27.4383  -54.8399 H         1 UNK         0.0600 
    225 H225       -6.1209  -24.4377  -52.7101 H         1 UNK         0.3000 
    226 H226       -6.3430  -22.4146  -54.7057 H         1 UNK         0.0600 
    227 H227       -5.4441  -24.2940  -56.1639 H         1 UNK         0.0600 
    228 H228       -4.2615  -23.0196  -55.9791 H         1 UNK         0.0600 
    229 H229       -4.0989  -24.5038  -55.0477 H         1 UNK         0.0600 
    230 H230       -3.9437  -21.3458  -54.6882 H         1 UNK         0.3000 
    231 H231       -2.3291  -20.2583  -53.6848 H         1 UNK         0.0600 
    232 H232       -1.5222  -22.6421  -53.3835 H         1 UNK         0.0600 
    233 H233       -2.1289  -22.5938  -51.7294 H         1 UNK         0.0600 
    234 H234       -0.8402  -21.5074  -52.2359 H         1 UNK         0.0600 
    235 H235       -5.1502  -20.0293  -52.4024 H         1 UNK         0.3000 
    236 H236       -4.5071  -18.8367  -49.7845 H         1 UNK         0.0600 
    237 H237       -6.9695  -18.5482  -49.6561 H         1 UNK         0.0600 
    238 H238       -7.1487  -19.0727  -51.3266 H         1 UNK         0.0600 
    239 H239       -6.5765  -20.2015  -50.0990 H         1 UNK         0.0600 
    240 H240       -4.3931  -17.7908  -52.9909 H         1 UNK         0.3000 
    241 H241       -4.1307  -15.8799  -54.0388 H         1 UNK         0.0600 
    242 H242       -6.9979  -16.6205  -52.9886 H         1 UNK         0.3800 
    243 H243       -7.8746  -15.1660  -53.3840 H         1 UNK         0.3800 
    244 H244       -3.3826  -13.8050  -52.8964 H         1 UNK         0.0800 
    245 H245       -3.7770  -14.4784  -51.3461 H         1 UNK         0.0800 
    246 H246       -2.0199  -15.1393  -49.9374 H         1 UNK         0.0800 
    247 H247       -2.2689  -16.8088  -50.3909 H         1 UNK         0.0800 
@<TRIPOS>BOND
     1    1    2 1    
     2    1  127 1    
     3    1  128 1    
     4    1  129 1    
     5    2    3 2    
     6    2    4 am   BACKBONE|DICT|INTERRES
     7    4    5 1    
     8    4  130 1    
     9    5    6 1    
    10    5   65 1    
    11    5  131 1    
    12    6    7 1    
    13    6  132 1    
    14    6  133 1    
    15    7    8 1    
    16    8    9 1    
    17    8  134 1    
    18    8  135 1    
    19    9   10 ar   
    20    9   14 ar   
    21   10   11 ar   
    22   10  136 1    
    23   11   12 ar   
    24   11  126 1    
    25   12   13 ar   
    26   12  137 1    
    27   13   14 ar   
    28   13   15 1    
    29   14  138 1    
    30   15   16 1    
    31   15  139 1    
    32   15  140 1    
    33   16   17 1    
    34   17   18 1    
    35   17  141 1    
    36   17  142 1    
    37   18   19 1    
    38   18   67 1    
    39   18  143 1    
    40   19   20 am   BACKBONE|DICT|INTERRES
    41   19  144 1    
    42   20   21 2    
    43   20   22 1    
    44   22   23 1    
    45   22   24 1    
    46   22  145 1    
    47   23  146 1    
    48   23  147 1    
    49   23  148 1    
    50   24   25 am   BACKBONE|DICT|INTERRES
    51   24  149 1    
    52   25   26 2    
    53   25   27 1    
    54   27   28 1    
    55   27   29 1    
    56   27  150 1    
    57   28  151 1    
    58   28  152 1    
    59   28  153 1    
    60   29   30 am   BACKBONE|DICT|INTERRES
    61   29  154 1    
    62   30   31 2    
    63   30   32 1    
    64   32   33 1    
    65   32   34 1    
    66   32  155 1    
    67   33  156 1    
    68   33  157 1    
    69   33  158 1    
    70   34   35 am   BACKBONE|DICT|INTERRES
    71   34  159 1    
    72   35   36 2    
    73   35   37 1    
    74   37   38 1    
    75   37   39 1    
    76   37  160 1    
    77   38  161 1    
    78   38  162 1    
    79   38  163 1    
    80   39   40 am   BACKBONE|DICT|INTERRES
    81   39  164 1    
    82   40   41 2    
    83   40   42 1    
    84   42   43 1    
    85   42   44 1    
    86   42  165 1    
    87   43  166 1    
    88   43  167 1    
    89   43  168 1    
    90   44   45 am   BACKBONE|DICT|INTERRES
    91   44  169 1    
    92   45   46 2    
    93   45   47 1    
    94   47   48 1    
    95   47   49 1    
    96   47  170 1    
    97   48  171 1    
    98   48  172 1    
    99   48  173 1    
   100   49   50 am   BACKBONE|DICT|INTERRES
   101   49  174 1    
   102   50   51 2    
   103   50   52 1    
   104   52   53 1    
   105   52   54 1    
   106   52  175 1    
   107   53  176 1    
   108   53  177 1    
   109   53  178 1    
   110   54   55 am   BACKBONE|DICT|INTERRES
   111   54  179 1    
   112   55   56 2    
   113   55   57 1    
   114   57   58 1    
   115   57   59 1    
   116   57  180 1    
   117   58  181 1    
   118   58  182 1    
   119   58  183 1    
   120   59   60 am   BACKBONE|DICT|INTERRES
   121   59  184 1    
   122   60   61 2    
   123   60   62 1    
   124   62   63 1    
   125   62   64 1    
   126   62  185 1    
   127   63  186 1    
   128   63  187 1    
   129   63  188 1    
   130   64   65 am   BACKBONE|DICT|INTERRES
   131   64  189 1    
   132   65   66 2    
   133   67   68 2    
   134   67   69 am   BACKBONE|DICT|INTERRES
   135   69   70 1    
   136   69  190 1    
   137   70   71 1    
   138   70   72 1    
   139   70  191 1    
   140   71  192 1    
   141   71  193 1    
   142   71  194 1    
   143   72   73 2    
   144   72   74 am   BACKBONE|DICT|INTERRES
   145   74   75 1    
   146   74  195 1    
   147   75   76 1    
   148   75   77 1    
   149   75  196 1    
   150   76  197 1    
   151   76  198 1    
   152   76  199 1    
   153   77   78 2    
   154   77   79 am   BACKBONE|DICT|INTERRES
   155   79   80 1    
   156   79  200 1    
   157   80   81 1    
   158   80   82 1    
   159   80  201 1    
   160   81  202 1    
   161   81  203 1    
   162   81  204 1    
   163   82   83 2    
   164   82   84 am   BACKBONE|DICT|INTERRES
   165   84   85 1    
   166   84  205 1    
   167   85   86 1    
   168   85   87 1    
   169   85  206 1    
   170   86  207 1    
   171   86  208 1    
   172   86  209 1    
   173   87   88 2    
   174   87   89 am   BACKBONE|DICT|INTERRES
   175   89   90 1    
   176   89  210 1    
   177   90   91 1    
   178   90   92 1    
   179   90  211 1    
   180   91  212 1    
   181   91  213 1    
   182   91  214 1    
   183   92   93 2    
   184   92   94 am   BACKBONE|DICT|INTERRES
   185   94   95 1    
   186   94  215 1    
   187   95   96 1    
   188   95   97 1    
   189   95  216 1    
   190   96  217 1    
   191   96  218 1    
   192   96  219 1    
   193   97   98 2    
   194   97   99 am   BACKBONE|DICT|INTERRES
   195   99  100 1    
   196   99  220 1    
   197  100  101 1    
   198  100  102 1    
   199  100  221 1    
   200  101  222 1    
   201  101  223 1    
   202  101  224 1    
   203  102  103 2    
   204  102  104 am   BACKBONE|DICT|INTERRES
   205  104  105 1    
   206  104  225 1    
   207  105  106 1    
   208  105  107 1    
   209  105  226 1    
   210  106  227 1    
   211  106  228 1    
   212  106  229 1    
   213  107  108 2    
   214  107  109 am   BACKBONE|DICT|INTERRES
   215  109  110 1    
   216  109  230 1    
   217  110  111 1    
   218  110  112 1    
   219  110  231 1    
   220  111  232 1    
   221  111  233 1    
   222  111  234 1    
   223  112  113 2    
   224  112  114 am   BACKBONE|DICT|INTERRES
   225  114  115 1    
   226  114  235 1    
   227  115  116 1    
   228  115  117 1    
   229  115  236 1    
   230  116  237 1    
   231  116  238 1    
   232  116  239 1    
   233  117  118 2    
   234  117  119 am   BACKBONE|DICT|INTERRES
   235  119  120 1    
   236  119  240 1    
   237  120  121 1    
   238  120  124 1    
   239  120  241 1    
   240  121  122 am   BACKBONE|DICT|INTERRES
   241  121  123 2    
   242  122  242 1    
   243  122  243 1    
   244  124  125 1    
   245  124  244 1    
   246  124  245 1    
   247  125  126 1    
   248  126  246 1    
   249  126  247 1    
@<TRIPOS>SUBSTRUCTURE
     1 UNK         1 GROUP             0       ****    0 ROOT    
