@<TRIPOS>MOLECULE
3R540
247   249    1
SMALL
USER_CHARGES


@<TRIPOS>ATOM
      1 CA         -1.6242  -22.3719  -43.4111 C.3       0 UNK        -0.1800 
      2 C          -2.3553  -21.1955  -44.0362 C.2       0 UNK         0.5000 
      3 O          -3.5770  -21.1003  -43.9206 O.2       0 UNK        -0.5000 
      4 N          -1.6148  -20.2896  -44.6841 N.am      1 UNK        -0.5000 
      5 CA         -2.1542  -19.1529  -45.4378 C.3       1 UNK         0.1400 
      6 C6         -1.4755  -19.0171  -46.8215 C.3       23 UNK        -0.0398 
      7 S7         -1.7555  -20.5002  -47.8381 S.3       23 UNK        -0.2404 
      8 C8         -1.3618  -19.8944  -49.5069 C.3       23 UNK        -0.0205 
      9 C9         -0.2670  -20.7267  -50.1522 C.ar      23 UNK        -0.0193 
     10 C10        -0.4785  -21.3386  -51.3883 C.ar      23 UNK        -0.1150 
     11 C11         0.5195  -22.1251  -51.9738 C.ar      23 UNK        -0.0193 
     12 C12         1.7160  -22.3341  -51.2793 C.ar      23 UNK        -0.1150 
     13 C13         1.9385  -21.7446  -50.0305 C.ar      23 UNK        -0.0193 
     14 C14         0.9547  -20.9032  -49.5003 C.ar      23 UNK        -0.1150 
     15 C15         3.2367  -22.0632  -49.2822 C.3       23 UNK        -0.0205 
     16 S16         3.2254  -21.7423  -47.4780 S.3       23 UNK        -0.2404 
     17 C17         1.7540  -22.6708  -46.9152 C.3       23 UNK        -0.0398 
     18 CA          2.0386  -23.6649  -45.7617 C.3       11 UNK         0.1400 
     19 N           2.6107  -22.9893  -44.5910 N.am      11 UNK        -0.5000 
     20 C           3.3152  -23.5724  -43.6103 C.2       10 UNK         0.5000 
     21 O           3.5684  -24.7780  -43.5871 O.2       10 UNK        -0.5000 
     22 CA          3.8192  -22.6795  -42.4590 C.3       10 UNK         0.1400 
     23 CB          5.3268  -22.4218  -42.6069 C.3       10 UNK        -0.1800 
     24 N           3.1332  -21.3904  -42.3683 N.am      10 UNK        -0.5000 
     25 C           1.8714  -21.2009  -41.9560 C.2       9 UNK         0.5000 
     26 O           1.1426  -22.1072  -41.5560 O.2       9 UNK        -0.5000 
     27 CA          1.3325  -19.7547  -42.0068 C.3       9 UNK         0.1400 
     28 CB          1.3178  -19.1431  -40.5980 C.3       9 UNK        -0.1800 
     29 N           2.1217  -18.8866  -42.8850 N.am      9 UNK        -0.5000 
     30 C           2.1364  -18.9561  -44.2220 C.2       8 UNK         0.5000 
     31 O           1.4015  -19.7003  -44.8770 O.2       8 UNK        -0.5000 
     32 CA          3.2394  -18.1292  -44.9055 C.3       8 UNK         0.1400 
     33 CB          4.5382  -18.9470  -44.9908 C.3       8 UNK        -0.1800 
     34 N           2.8762  -17.6794  -46.2470 N.am      8 UNK        -0.5000 
     35 C           2.1118  -16.6091  -46.4880 C.2       7 UNK         0.5000 
     36 O           1.5546  -15.9609  -45.5985 O.2       7 UNK        -0.5000 
     37 CA          1.9789  -16.1843  -47.9627 C.3       7 UNK         0.1400 
     38 CB          0.8855  -16.9915  -48.6728 C.3       7 UNK        -0.1800 
     39 N           1.6268  -14.7712  -48.0344 N.am      7 UNK        -0.5000 
     40 C           2.4747  -13.7609  -48.2660 C.2       6 UNK         0.5000 
     41 O           3.6490  -13.9139  -48.6049 O.2       6 UNK        -0.5000 
     42 CA          1.9234  -12.3324  -48.0578 C.3       6 UNK         0.1400 
     43 CB          1.3443  -11.7807  -49.3694 C.3       6 UNK        -0.1800 
     44 N           0.8897  -12.2824  -47.0216 N.am      6 UNK        -0.5000 
     45 C           1.1102  -12.5245  -45.7231 C.2       5 UNK         0.5000 
     46 O           2.2400  -12.5576  -45.2320 O.2       5 UNK        -0.5000 
     47 CA         -0.1095  -12.7956  -44.8118 C.3       5 UNK         0.1400 
     48 CB         -0.2046  -11.7311  -43.7060 C.3       5 UNK        -0.1800 
     49 N          -1.4323  -12.9160  -45.4427 N.am      5 UNK        -0.5000 
     50 C          -1.8112  -13.7398  -46.4306 C.2       4 UNK         0.5000 
     51 O          -1.0365  -14.3932  -47.1279 O.2       4 UNK        -0.5000 
     52 CA         -3.3279  -13.8779  -46.6242 C.3       4 UNK         0.1400 
     53 CB         -3.6962  -14.7155  -47.8619 C.3       4 UNK        -0.1800 
     54 N          -3.8527  -14.5300  -45.4290 N.am      4 UNK        -0.5000 
     55 C          -4.7218  -13.9977  -44.5613 C.2       3 UNK         0.5000 
     56 O          -5.2610  -12.9029  -44.7259 O.2       3 UNK        -0.5000 
     57 CA         -5.0372  -14.8038  -43.2826 C.3       3 UNK         0.1400 
     58 CB         -6.4392  -15.4279  -43.3595 C.3       3 UNK        -0.1800 
     59 N          -4.0591  -15.8558  -42.9901 N.am      3 UNK        -0.5000 
     60 C          -2.8283  -15.6351  -42.5062 C.2       2 UNK         0.5000 
     61 O          -2.3977  -14.5170  -42.2229 O.2       2 UNK        -0.5000 
     62 CA         -1.9180  -16.8669  -42.3156 C.3       2 UNK         0.1400 
     63 CB         -2.0997  -17.4349  -40.8996 C.3       2 UNK        -0.1800 
     64 N          -2.1110  -17.9540  -43.2835 N.am      2 UNK        -0.5000 
     65 C          -2.0763  -17.8477  -44.6204 C.2       1 UNK         0.5000 
     66 O          -2.0093  -16.7709  -45.2074 O.2       1 UNK        -0.5000 
     67 C           0.7683  -24.4628  -45.3795 C.2       11 UNK         0.5000 
     68 O          -0.3049  -24.2137  -45.9263 O.2       11 UNK        -0.5000 
     69 N           0.9008  -25.4015  -44.4332 N.am      12 UNK        -0.5000 
     70 CA         -0.1875  -26.1735  -43.8217 C.3       12 UNK         0.1400 
     71 CB          0.3937  -27.0187  -42.6782 C.3       12 UNK        -0.1800 
     72 C          -0.9896  -27.0600  -44.7972 C.2       12 UNK         0.5000 
     73 O          -2.1257  -27.4226  -44.4902 O.2       12 UNK        -0.5000 
     74 N          -0.3936  -27.3890  -45.9505 N.am      13 UNK        -0.5000 
     75 CA         -1.0363  -28.1119  -47.0487 C.3       13 UNK         0.1400 
     76 CB          0.0588  -28.7118  -47.9450 C.3       13 UNK        -0.1800 
     77 C          -1.9944  -27.2348  -47.8838 C.2       13 UNK         0.5000 
     78 O          -2.7986  -27.7839  -48.6386 O.2       13 UNK        -0.5000 
     79 N          -1.8867  -25.9065  -47.7566 N.am      14 UNK        -0.5000 
     80 CA         -2.6975  -24.9137  -48.4553 C.3       14 UNK         0.1400 
     81 CB         -1.7458  -23.9290  -49.1591 C.3       14 UNK        -0.1800 
     82 C          -3.6341  -24.1900  -47.4686 C.2       14 UNK         0.5000 
     83 O          -3.6326  -24.4778  -46.2689 O.2       14 UNK        -0.5000 
     84 N          -4.4329  -23.2648  -48.0052 N.am      15 UNK        -0.5000 
     85 CA         -5.3070  -22.3570  -47.2726 C.3       15 UNK         0.1400 
     86 CB         -6.7432  -22.9039  -47.2845 C.3       15 UNK        -0.1800 
     87 C          -5.2313  -20.9901  -47.9629 C.2       15 UNK         0.5000 
     88 O          -4.9012  -20.9301  -49.1500 O.2       15 UNK        -0.5000 
     89 N          -5.5416  -19.9198  -47.2195 N.am      16 UNK        -0.5000 
     90 CA         -5.3451  -18.5166  -47.6098 C.3       16 UNK         0.1400 
     91 CB         -5.8350  -17.6130  -46.4701 C.3       16 UNK        -0.1800 
     92 C          -5.9741  -18.0926  -48.9519 C.2       16 UNK         0.5000 
     93 O          -5.4429  -17.1980  -49.6078 O.2       16 UNK        -0.5000 
     94 N          -7.0541  -18.7679  -49.3659 N.am      17 UNK        -0.5000 
     95 CA         -7.6990  -18.5917  -50.6691 C.3       17 UNK         0.1400 
     96 CB         -8.9949  -19.4161  -50.6974 C.3       17 UNK        -0.1800 
     97 C          -6.7989  -18.9636  -51.8677 C.2       17 UNK         0.5000 
     98 O          -6.9850  -18.4122  -52.9531 O.2       17 UNK        -0.5000 
     99 N          -5.8338  -19.8713  -51.6579 N.am      18 UNK        -0.5000 
    100 CA        -4.8809  -20.3155  -52.6752 C.3       18 UNK         0.1400 
    101 CB        -4.3152  -21.6892  -52.2815 C.3       18 UNK        -0.1800 
    102 C         -3.7374  -19.3137  -52.9143 C.2       18 UNK         0.5000 
    103 O         -3.0601  -19.4240  -53.9354 O.2       18 UNK        -0.5000 
    104 N         -3.5361  -18.3468  -52.0041 N.am      19 UNK        -0.5000 
    105 CA        -2.4623  -17.3481  -52.0772 C.3       19 UNK         0.1400 
    106 CB        -2.4888  -16.4692  -50.8175 C.3       19 UNK        -0.1800 
    107 C         -2.5342  -16.4701  -53.3410 C.2       19 UNK         0.5000 
    108 O         -1.4956  -16.1103  -53.8949 O.2       19 UNK        -0.5000 
    109 N         -3.7611  -16.1879  -53.8003 N.am      20 UNK        -0.5000 
    110 CA        -4.0455  -15.4494  -55.0305 C.3       20 UNK         0.1400 
    111 CB        -5.5385  -15.0879  -55.0552 C.3       20 UNK        -0.1800 
    112 C         -3.6544  -16.2127  -56.3124 C.2       20 UNK         0.5000 
    113 O         -3.3891  -15.5741  -57.3316 O.2       20 UNK        -0.5000 
    114 N         -3.6276  -17.5507  -56.2454 N.am      21 UNK        -0.5000 
    115 CA        -3.2176  -18.4243  -57.3422 C.3       21 UNK         0.1400 
    116 CB        -4.0274  -19.7304  -57.2872 C.3       21 UNK        -0.1800 
    117 C         -1.7088  -18.7112  -57.2836 C.2       21 UNK         0.5000 
    118 O         -1.0356  -18.6257  -58.3118 O.2       21 UNK        -0.5000 
    119 N         -1.2094  -19.0511  -56.0888 N.am      22 UNK        -0.5000 
    120 CA         0.1975  -19.4058  -55.8457 C.3       22 UNK         0.1400 
    121 C          1.1757  -18.1973  -55.8620 C.2       22 UNK         0.5000 
    122 N          0.7435  -16.9822  -55.5479 N.am      22 UNK        -0.7600 
    123 O          2.3513  -18.3657  -56.1744 O.2       22 UNK        -0.5000 
    124 C124        0.3691  -20.2224  -54.5419 C.3       23 UNK        -0.0398 
    125 S125       -0.6057  -21.7677  -54.5406 S.3       23 UNK        -0.2404 
    126 C126        0.3168  -22.7853  -53.3364 C.3       23 UNK        -0.0205 
    127 H127       -1.7149  -22.3442  -42.3255 H         1 UNK         0.0600 
    128 H128       -0.5653  -22.3668  -43.6680 H         1 UNK         0.0600 
    129 H129       -2.0535  -23.3071  -43.7708 H         1 UNK         0.0600 
    130 H130       -0.6066  -20.3900  -44.7362 H         1 UNK         0.3000 
    131 H131       -3.2173  -19.3116  -45.6222 H         1 UNK         0.0600 
    132 H132       -1.8725  -18.1564  -47.3618 H         1 UNK         0.0800 
    133 H133       -0.4019  -18.8572  -46.7139 H         1 UNK         0.0800 
    134 H134       -2.2762  -19.9285  -50.0990 H         1 UNK         0.0800 
    135 H135       -1.0429  -18.8548  -49.4819 H         1 UNK         0.0800 
    136 H136       -1.4193  -21.1976  -51.8991 H         1 UNK         0.1150 
    137 H137        2.4770  -22.9710  -51.7082 H         1 UNK         0.1150 
    138 H138        1.1056  -20.4197  -48.5472 H         1 UNK         0.1150 
    139 H139        3.4900  -23.1137  -49.4330 H         1 UNK         0.0800 
    140 H140        4.0445  -21.4835  -49.7301 H         1 UNK         0.0800 
    141 H141        1.3323  -23.2089  -47.7656 H         1 UNK         0.0800 
    142 H142        0.9973  -21.9439  -46.6128 H         1 UNK         0.0800 
    143 H143        2.7680  -24.3902  -46.1282 H         1 UNK         0.0600 
    144 H144        2.4368  -21.9959  -44.5335 H         1 UNK         0.3000 
    145 H145        3.6524  -23.2228  -41.5266 H         1 UNK         0.0600 
    146 H146        5.7142  -21.8466  -41.7658 H         1 UNK         0.0600 
    147 H147        5.8828  -23.3598  -42.6397 H         1 UNK         0.0600 
    148 H148        5.5536  -21.8743  -43.5228 H         1 UNK         0.0600 
    149 H149        3.6630  -20.5822  -42.6551 H         1 UNK         0.3000 
    150 H150        0.3076  -19.7901  -42.3811 H         1 UNK         0.0600 
    151 H151        2.3140  -19.1317  -40.1537 H         1 UNK         0.0600 
    152 H152        0.6686  -19.7130  -39.9319 H         1 UNK         0.0600 
    153 H153        0.9497  -18.1173  -40.6140 H         1 UNK         0.0600 
    154 H154        2.7541  -18.2482  -42.4232 H         1 UNK         0.3000 
    155 H155        3.4404  -17.2478  -44.2920 H         1 UNK         0.0600 
    156 H156        4.4017  -19.8670  -45.5585 H         1 UNK         0.0600 
    157 H157        4.8954  -19.2248  -43.9988 H         1 UNK         0.0600 
    158 H158        5.3341  -18.3750  -45.4681 H         1 UNK         0.0600 
    159 H159        3.2594  -18.2066  -47.0177 H         1 UNK         0.3000 
    160 H160        2.9307  -16.3650  -48.4664 H         1 UNK         0.0600 
    161 H161       -0.0934  -16.8109  -48.2284 H         1 UNK         0.0600 
    162 H162        1.0915  -18.0595  -48.6145 H         1 UNK         0.0600 
    163 H163        0.8244  -16.7286  -49.7290 H         1 UNK         0.0600 
    164 H164        0.6921  -14.5525  -47.6922 H         1 UNK         0.3000 
    165 H165        2.7530  -11.6925  -47.7500 H         1 UNK         0.0600 
    166 H166        2.0965  -11.7840  -50.1593 H         1 UNK         0.0600 
    167 H167        0.4993  -12.3763  -49.7177 H         1 UNK         0.0600 
    168 H168        1.0043  -10.7520  -49.2490 H         1 UNK         0.0600 
    169 H169       -0.0680  -12.3109  -47.3398 H         1 UNK         0.3000 
    170 H170        0.0861  -13.7573  -44.3330 H         1 UNK         0.0600 
    171 H171        0.7362  -11.6385  -43.1617 H         1 UNK         0.0600 
    172 H172       -0.4452  -10.7496  -44.1160 H         1 UNK         0.0600 
    173 H173       -0.9716  -11.9891  -42.9751 H         1 UNK         0.0600 
    174 H174       -2.1716  -12.4309  -44.9555 H         1 UNK         0.3000 
    175 H175       -3.7418  -12.8755  -46.7497 H         1 UNK         0.0600 
    176 H176       -4.7757  -14.7526  -48.0056 H         1 UNK         0.0600 
    177 H177       -3.2658  -14.2842  -48.7662 H         1 UNK         0.0600 
    178 H178       -3.3328  -15.7408  -47.7798 H         1 UNK         0.0600 
    179 H179       -3.3796  -15.3957  -45.1833 H         1 UNK         0.3000 
    180 H180       -5.0343  -14.0960  -42.4509 H         1 UNK         0.0600 
    181 H181       -6.5151  -16.1580  -44.1638 H         1 UNK         0.0600 
    182 H182       -7.1974  -14.6645  -43.5388 H         1 UNK         0.0600 
    183 H183       -6.6995  -15.9281  -42.4265 H         1 UNK         0.0600 
    184 H184       -4.3341  -16.8058  -43.1901 H         1 UNK         0.3000 
    185 H185       -0.8854  -16.5278  -42.4213 H         1 UNK         0.0600 
    186 H186       -1.8645  -16.6839  -40.1442 H         1 UNK         0.0600 
    187 H187       -3.1259  -17.7625  -40.7283 H         1 UNK         0.0600 
    188 H188       -1.4475  -18.2890  -40.7230 H         1 UNK         0.0600 
    189 H189       -2.2119  -18.8814  -42.8981 H         1 UNK         0.3000 
    190 H190        1.8245  -25.5182  -44.0268 H         1 UNK         0.3000 
    191 H191       -0.8908  -25.4586  -43.3909 H         1 UNK         0.0600 
    192 H192        0.8759  -26.3902  -41.9291 H         1 UNK         0.0600 
    193 H193       -0.3888  -27.5845  -42.1708 H         1 UNK         0.0600 
    194 H194        1.1324  -27.7332  -43.0436 H         1 UNK         0.0600 
    195 H195        0.5452  -27.0565  -46.1124 H         1 UNK         0.3000 
    196 H196       -1.6228  -28.9332  -46.6314 H         1 UNK         0.0600 
    197 H197       -0.3764  -29.2925  -48.7593 H         1 UNK         0.0600 
    198 H198        0.7075  -29.3823  -47.3810 H         1 UNK         0.0600 
    199 H199        0.6823  -27.9363  -48.3918 H         1 UNK         0.0600 
    200 H200       -1.2738  -25.5233  -47.0431 H         1 UNK         0.3000 
    201 H201       -3.3228  -25.3901  -49.2127 H         1 UNK         0.0600 
    202 H202       -2.2926  -23.1843  -49.7379 H         1 UNK         0.0600 
    203 H203       -1.1228  -23.3927  -48.4431 H         1 UNK         0.0600 
    204 H204       -1.0818  -24.4465  -49.8516 H         1 UNK         0.0600 
    205 H205       -4.3293  -23.0203  -48.9818 H         1 UNK         0.3000 
    206 H206       -4.9581  -22.2446  -46.2436 H         1 UNK         0.0600 
    207 H207       -6.7936  -23.8834  -46.8087 H         1 UNK         0.0600 
    208 H208       -7.4195  -22.2434  -46.7407 H         1 UNK         0.0600 
    209 H209       -7.1264  -23.0055  -48.3008 H         1 UNK         0.0600 
    210 H210       -5.8363  -20.0731  -46.2658 H         1 UNK         0.3000 
    211 H211       -4.2704  -18.3656  -47.7201 H         1 UNK         0.0600 
    212 H212       -6.8923  -17.7751  -46.2575 H         1 UNK         0.0600 
    213 H213       -5.7110  -16.5590  -46.7186 H         1 UNK         0.0600 
    214 H214       -5.2746  -17.7956  -45.5536 H         1 UNK         0.0600 
    215 H215       -7.4149  -19.5011  -48.7739 H         1 UNK         0.3000 
    216 H216       -7.9611  -17.5367  -50.7725 H         1 UNK         0.0600 
    217 H217       -9.5184  -19.2890  -51.6460 H         1 UNK         0.0600 
    218 H218       -9.6781  -19.1055  -49.9068 H         1 UNK         0.0600 
    219 H219       -8.7961  -20.4813  -50.5720 H         1 UNK         0.0600 
    220 H220       -5.6993  -20.2527  -50.7243 H         1 UNK         0.3000 
    221 H221       -5.4121  -20.4327  -53.6222 H         1 UNK         0.0600 
    222 H222       -3.7296  -21.6385  -51.3640 H         1 UNK         0.0600 
    223 H223       -5.1124  -22.4171  -52.1310 H         1 UNK         0.0600 
    224 H224       -3.6611  -22.0796  -53.0625 H         1 UNK         0.0600 
    225 H225       -4.1635  -18.2832  -51.2128 H         1 UNK         0.3000 
    226 H226       -1.5135  -17.8884  -52.1001 H         1 UNK         0.0600 
    227 H227       -1.6243  -15.8049  -50.7859 H         1 UNK         0.0600 
    228 H228       -3.3822  -15.8446  -50.7863 H         1 UNK         0.0600 
    229 H229       -2.4740  -17.0658  -49.9064 H         1 UNK         0.0600 
    230 H230       -4.5566  -16.5412  -53.2879 H         1 UNK         0.3000 
    231 H231       -3.4682  -14.5226  -55.0107 H         1 UNK         0.0600 
    232 H232       -6.1677  -15.9792  -55.0469 H         1 UNK         0.0600 
    233 H233       -5.7885  -14.5169  -55.9505 H         1 UNK         0.0600 
    234 H234       -5.8110  -14.4766  -54.1947 H         1 UNK         0.0600 
    235 H235       -3.7938  -17.9986  -55.3535 H         1 UNK         0.3000 
    236 H236       -3.4331  -17.9421  -58.2981 H         1 UNK         0.0600 
    237 H237       -3.7571  -20.3894  -58.1132 H         1 UNK         0.0600 
    238 H238       -3.8552  -20.2803  -56.3615 H         1 UNK         0.0600 
    239 H239       -5.0966  -19.5334  -57.3648 H         1 UNK         0.0600 
    240 H240       -1.8394  -19.1451  -55.2958 H         1 UNK         0.3000 
    241 H241        0.5100  -20.0535  -56.6674 H         1 UNK         0.0600 
    242 H242       -0.1973  -16.8242  -55.2022 H         1 UNK         0.3800 
    243 H243        1.3914  -16.2115  -55.5721 H         1 UNK         0.3800 
    244 H244        0.0705  -19.6237  -53.6797 H         1 UNK         0.0800 
    245 H245        1.4192  -20.4800  -54.3913 H         1 UNK         0.0800 
    246 H246       -0.2188  -23.7239  -53.1900 H         1 UNK         0.0800 
    247 H247        1.2805  -23.0441  -53.7778 H         1 UNK         0.0800 
@<TRIPOS>BOND
     1    1    2 1    
     2    1  127 1    
     3    1  128 1    
     4    1  129 1    
     5    2    3 2    
     6    2    4 am   BACKBONE|DICT|INTERRES
     7    4    5 1    
     8    4  130 1    
     9    5    6 1    
    10    5   65 1    
    11    5  131 1    
    12    6    7 1    
    13    6  132 1    
    14    6  133 1    
    15    7    8 1    
    16    8    9 1    
    17    8  134 1    
    18    8  135 1    
    19    9   10 ar   
    20    9   14 ar   
    21   10   11 ar   
    22   10  136 1    
    23   11   12 ar   
    24   11  126 1    
    25   12   13 ar   
    26   12  137 1    
    27   13   14 ar   
    28   13   15 1    
    29   14  138 1    
    30   15   16 1    
    31   15  139 1    
    32   15  140 1    
    33   16   17 1    
    34   17   18 1    
    35   17  141 1    
    36   17  142 1    
    37   18   19 1    
    38   18   67 1    
    39   18  143 1    
    40   19   20 am   BACKBONE|DICT|INTERRES
    41   19  144 1    
    42   20   21 2    
    43   20   22 1    
    44   22   23 1    
    45   22   24 1    
    46   22  145 1    
    47   23  146 1    
    48   23  147 1    
    49   23  148 1    
    50   24   25 am   BACKBONE|DICT|INTERRES
    51   24  149 1    
    52   25   26 2    
    53   25   27 1    
    54   27   28 1    
    55   27   29 1    
    56   27  150 1    
    57   28  151 1    
    58   28  152 1    
    59   28  153 1    
    60   29   30 am   BACKBONE|DICT|INTERRES
    61   29  154 1    
    62   30   31 2    
    63   30   32 1    
    64   32   33 1    
    65   32   34 1    
    66   32  155 1    
    67   33  156 1    
    68   33  157 1    
    69   33  158 1    
    70   34   35 am   BACKBONE|DICT|INTERRES
    71   34  159 1    
    72   35   36 2    
    73   35   37 1    
    74   37   38 1    
    75   37   39 1    
    76   37  160 1    
    77   38  161 1    
    78   38  162 1    
    79   38  163 1    
    80   39   40 am   BACKBONE|DICT|INTERRES
    81   39  164 1    
    82   40   41 2    
    83   40   42 1    
    84   42   43 1    
    85   42   44 1    
    86   42  165 1    
    87   43  166 1    
    88   43  167 1    
    89   43  168 1    
    90   44   45 am   BACKBONE|DICT|INTERRES
    91   44  169 1    
    92   45   46 2    
    93   45   47 1    
    94   47   48 1    
    95   47   49 1    
    96   47  170 1    
    97   48  171 1    
    98   48  172 1    
    99   48  173 1    
   100   49   50 am   BACKBONE|DICT|INTERRES
   101   49  174 1    
   102   50   51 2    
   103   50   52 1    
   104   52   53 1    
   105   52   54 1    
   106   52  175 1    
   107   53  176 1    
   108   53  177 1    
   109   53  178 1    
   110   54   55 am   BACKBONE|DICT|INTERRES
   111   54  179 1    
   112   55   56 2    
   113   55   57 1    
   114   57   58 1    
   115   57   59 1    
   116   57  180 1    
   117   58  181 1    
   118   58  182 1    
   119   58  183 1    
   120   59   60 am   BACKBONE|DICT|INTERRES
   121   59  184 1    
   122   60   61 2    
   123   60   62 1    
   124   62   63 1    
   125   62   64 1    
   126   62  185 1    
   127   63  186 1    
   128   63  187 1    
   129   63  188 1    
   130   64   65 am   BACKBONE|DICT|INTERRES
   131   64  189 1    
   132   65   66 2    
   133   67   68 2    
   134   67   69 am   BACKBONE|DICT|INTERRES
   135   69   70 1    
   136   69  190 1    
   137   70   71 1    
   138   70   72 1    
   139   70  191 1    
   140   71  192 1    
   141   71  193 1    
   142   71  194 1    
   143   72   73 2    
   144   72   74 am   BACKBONE|DICT|INTERRES
   145   74   75 1    
   146   74  195 1    
   147   75   76 1    
   148   75   77 1    
   149   75  196 1    
   150   76  197 1    
   151   76  198 1    
   152   76  199 1    
   153   77   78 2    
   154   77   79 am   BACKBONE|DICT|INTERRES
   155   79   80 1    
   156   79  200 1    
   157   80   81 1    
   158   80   82 1    
   159   80  201 1    
   160   81  202 1    
   161   81  203 1    
   162   81  204 1    
   163   82   83 2    
   164   82   84 am   BACKBONE|DICT|INTERRES
   165   84   85 1    
   166   84  205 1    
   167   85   86 1    
   168   85   87 1    
   169   85  206 1    
   170   86  207 1    
   171   86  208 1    
   172   86  209 1    
   173   87   88 2    
   174   87   89 am   BACKBONE|DICT|INTERRES
   175   89   90 1    
   176   89  210 1    
   177   90   91 1    
   178   90   92 1    
   179   90  211 1    
   180   91  212 1    
   181   91  213 1    
   182   91  214 1    
   183   92   93 2    
   184   92   94 am   BACKBONE|DICT|INTERRES
   185   94   95 1    
   186   94  215 1    
   187   95   96 1    
   188   95   97 1    
   189   95  216 1    
   190   96  217 1    
   191   96  218 1    
   192   96  219 1    
   193   97   98 2    
   194   97   99 am   BACKBONE|DICT|INTERRES
   195   99  100 1    
   196   99  220 1    
   197  100  101 1    
   198  100  102 1    
   199  100  221 1    
   200  101  222 1    
   201  101  223 1    
   202  101  224 1    
   203  102  103 2    
   204  102  104 am   BACKBONE|DICT|INTERRES
   205  104  105 1    
   206  104  225 1    
   207  105  106 1    
   208  105  107 1    
   209  105  226 1    
   210  106  227 1    
   211  106  228 1    
   212  106  229 1    
   213  107  108 2    
   214  107  109 am   BACKBONE|DICT|INTERRES
   215  109  110 1    
   216  109  230 1    
   217  110  111 1    
   218  110  112 1    
   219  110  231 1    
   220  111  232 1    
   221  111  233 1    
   222  111  234 1    
   223  112  113 2    
   224  112  114 am   BACKBONE|DICT|INTERRES
   225  114  115 1    
   226  114  235 1    
   227  115  116 1    
   228  115  117 1    
   229  115  236 1    
   230  116  237 1    
   231  116  238 1    
   232  116  239 1    
   233  117  118 2    
   234  117  119 am   BACKBONE|DICT|INTERRES
   235  119  120 1    
   236  119  240 1    
   237  120  121 1    
   238  120  124 1    
   239  120  241 1    
   240  121  122 am   BACKBONE|DICT|INTERRES
   241  121  123 2    
   242  122  242 1    
   243  122  243 1    
   244  124  125 1    
   245  124  244 1    
   246  124  245 1    
   247  125  126 1    
   248  126  246 1    
   249  126  247 1    
@<TRIPOS>SUBSTRUCTURE
     1 UNK         1 GROUP             0       ****    0 ROOT    
