@<TRIPOS>MOLECULE
3R540
247   249    1
SMALL
USER_CHARGES


@<TRIPOS>ATOM
      1 CA         -3.4562  -15.5771  -41.8224 C.3       0 UNK        -0.1800 
      2 C          -3.0634  -14.7508  -43.0392 C.2       0 UNK         0.5000 
      3 O          -3.8546  -13.9246  -43.4947 O.2       0 UNK        -0.5000 
      4 N          -1.8524  -14.9691  -43.5679 N.am      1 UNK        -0.5000 
      5 CA         -1.2740  -14.2017  -44.6774 C.3       1 UNK         0.1400 
      6 C6          0.0309  -14.8450  -45.2039 C.3       23 UNK        -0.0398 
      7 S7         -0.2830  -16.3520  -46.1825 S.3       23 UNK        -0.2404 
      8 C8          0.6129  -15.9452  -47.7143 C.3       23 UNK        -0.0205 
      9 C9          0.5247  -17.0590  -48.7474 C.ar      23 UNK        -0.0193 
     10 C10        -0.6467  -17.2343  -49.4878 C.ar      23 UNK        -0.1150 
     11 C11        -0.7389  -18.2270  -50.4681 C.ar      23 UNK        -0.0193 
     12 C12         0.3740  -19.0446  -50.7092 C.ar      23 UNK        -0.1150 
     13 C13         1.5548  -18.8792  -49.9807 C.ar      23 UNK        -0.0193 
     14 C14         1.6216  -17.8887  -48.9952 C.ar      23 UNK        -0.1150 
     15 C15         2.7668  -19.7566  -50.2744 C.3       23 UNK        -0.0205 
     16 S16         2.4703  -21.5273  -49.9492 S.3       23 UNK        -0.2404 
     17 C17         2.0863  -21.5048  -48.1653 C.3       23 UNK        -0.0398 
     18 CA          0.9991  -22.5130  -47.7215 C.3       11 UNK         0.1400 
     19 N           0.8270  -22.4802  -46.2680 N.am      11 UNK        -0.5000 
     20 C           0.1998  -23.4172  -45.5422 C.2       10 UNK         0.5000 
     21 O          -0.2520  -24.4561  -46.0209 O.2       10 UNK        -0.5000 
     22 CA         -0.0049  -23.1225  -44.0397 C.3       10 UNK         0.1400 
     23 CB          1.1904  -23.6338  -43.2229 C.3       10 UNK        -0.1800 
     24 N          -0.2029  -21.6993  -43.7579 N.am      10 UNK        -0.5000 
     25 C          -1.1953  -20.9555  -44.2669 C.2       9 UNK         0.5000 
     26 O          -2.1396  -21.4359  -44.8919 O.2       9 UNK        -0.5000 
     27 CA         -1.0956  -19.4229  -44.1232 C.3       9 UNK         0.1400 
     28 CB         -2.1158  -18.9145  -43.0971 C.3       9 UNK        -0.1800 
     29 N           0.2374  -18.9150  -43.7765 N.am      9 UNK        -0.5000 
     30 C           1.3631  -19.1121  -44.4844 C.2       8 UNK         0.5000 
     31 O           1.3900  -19.7491  -45.5356 O.2       8 UNK        -0.5000 
     32 CA          2.6911  -18.5688  -43.9157 C.3       8 UNK         0.1400 
     33 CB          3.2045  -17.3941  -44.7617 C.3       8 UNK        -0.1800 
     34 N           2.6130  -18.1641  -42.5105 N.am      8 UNK        -0.5000 
     35 C           2.3675  -18.9974  -41.4863 C.2       7 UNK         0.5000 
     36 O           2.2834  -20.2196  -41.6165 O.2       7 UNK        -0.5000 
     37 CA          2.1226  -18.3734  -40.0957 C.3       7 UNK         0.1400 
     38 CB          3.3531  -18.5716  -39.1975 C.3       7 UNK        -0.1800 
     39 N           1.7827  -16.9483  -40.1148 N.am      7 UNK        -0.5000 
     40 C           0.7450  -16.3795  -40.7468 C.2       6 UNK         0.5000 
     41 O          -0.0984  -17.0059  -41.3886 O.2       6 UNK        -0.5000 
     42 CA          0.6873  -14.8398  -40.7197 C.3       6 UNK         0.1400 
     43 CB         -0.2315  -14.3512  -39.5911 C.3       6 UNK        -0.1800 
     44 N           2.0033  -14.2015  -40.5921 N.am      6 UNK        -0.5000 
     45 C           2.9985  -14.3326  -41.4800 C.2       5 UNK         0.5000 
     46 O           2.9255  -15.0405  -42.4872 O.2       5 UNK        -0.5000 
     47 CA          4.3199  -13.6223  -41.1466 C.3       5 UNK         0.1400 
     48 CB          5.2732  -14.5889  -40.4261 C.3       5 UNK        -0.1800 
     49 N           4.9570  -13.1556  -42.3748 N.am      5 UNK        -0.5000 
     50 C           4.6495  -12.0103  -42.9941 C.2       4 UNK         0.5000 
     51 O           3.9157  -11.1500  -42.5008 O.2       4 UNK        -0.5000 
     52 CA          5.2778  -11.7637  -44.3858 C.3       4 UNK         0.1400 
     53 CB          5.8629  -13.0327  -45.0491 C.3       4 UNK        -0.1800 
     54 N           4.3448  -11.0892  -45.2965 N.am      4 UNK        -0.5000 
     55 C           3.1456  -11.5418  -45.6884 C.2       3 UNK         0.5000 
     56 O           2.6876  -12.6471  -45.3906 O.2       3 UNK        -0.5000 
     57 CA          2.3298  -10.6120  -46.6010 C.3       3 UNK         0.1400 
     58 CB          2.5064  -11.0134  -48.0738 C.3       3 UNK        -0.1800 
     59 N           0.9139  -10.6948  -46.2537 N.am      3 UNK        -0.5000 
     60 C           0.3266   -9.9970  -45.2728 C.2       2 UNK         0.5000 
     61 O           0.8876   -9.1077  -44.6315 O.2       2 UNK        -0.5000 
     62 CA         -1.1347  -10.3630  -44.9507 C.3       2 UNK         0.1400 
     63 CB         -2.1017   -9.5572  -45.8320 C.3       2 UNK        -0.1800 
     64 N          -1.3971  -11.7934  -45.1280 N.am      2 UNK        -0.5000 
     65 C          -1.0122  -12.7388  -44.2599 C.2       1 UNK         0.5000 
     66 O          -0.4565  -12.4980  -43.1862 O.2       1 UNK        -0.5000 
     67 C          -0.3525  -22.3032  -48.4400 C.2       11 UNK         0.5000 
     68 O          -0.6526  -23.0306  -49.3859 O.2       11 UNK        -0.5000 
     69 N          -1.1737  -21.3654  -47.9429 N.am      12 UNK        -0.5000 
     70 CA         -2.5288  -21.1171  -48.4416 C.3       12 UNK         0.1400 
     71 CB         -3.0919  -19.8336  -47.8132 C.3       12 UNK        -0.1800 
     72 C          -3.4704  -22.3111  -48.1941 C.2       12 UNK         0.5000 
     73 O          -4.2637  -22.6533  -49.0719 O.2       12 UNK        -0.5000 
     74 N          -3.3381  -22.9489  -47.0226 N.am      13 UNK        -0.5000 
     75 CA         -4.0414  -24.1770  -46.6538 C.3       13 UNK         0.1400 
     76 CB         -3.8057  -24.4845  -45.1681 C.3       13 UNK        -0.1800 
     77 C          -3.6391  -25.3721  -47.5375 C.2       13 UNK         0.5000 
     78 O          -4.5189  -26.0894  -48.0144 O.2       13 UNK        -0.5000 
     79 N          -2.3305  -25.5339  -47.7892 N.am      14 UNK        -0.5000 
     80 CA         -1.7707  -26.5365  -48.7038 C.3       14 UNK         0.1400 
     81 CB         -0.2389  -26.5392  -48.5950 C.3       14 UNK        -0.1800 
     82 C          -2.2131  -26.3338  -50.1669 C.2       14 UNK         0.5000 
     83 O          -2.3949  -27.3131  -50.8899 O.2       14 UNK        -0.5000 
     84 N          -2.4449  -25.0726  -50.5522 N.am      15 UNK        -0.5000 
     85 CA         -3.0469  -24.6486  -51.8168 C.3       15 UNK         0.1400 
     86 CB         -2.5971  -23.2078  -52.1135 C.3       15 UNK        -0.1800 
     87 C          -4.5880  -24.7861  -51.8477 C.2       15 UNK         0.5000 
     88 O          -5.2241  -24.1858  -52.7141 O.2       15 UNK        -0.5000 
     89 N          -5.1648  -25.5593  -50.9143 N.am      16 UNK        -0.5000 
     90 CA         -6.5846  -25.8961  -50.7739 C.3       16 UNK         0.1400 
     91 CB         -7.0655  -26.7510  -51.9647 C.3       16 UNK        -0.1800 
     92 C          -7.4622  -24.6581  -50.5109 C.2       16 UNK         0.5000 
     93 O          -8.4896  -24.4733  -51.1646 O.2       16 UNK        -0.5000 
     94 N          -7.0157  -23.8311  -49.5547 N.am      17 UNK        -0.5000 
     95 CA         -7.5766  -22.5300  -49.1759 C.3       17 UNK         0.1400 
     96 CB         -9.0145  -22.6641  -48.6309 C.3       17 UNK        -0.1800 
     97 C          -7.4368  -21.5053  -50.3191 C.2       17 UNK         0.5000 
     98 O          -8.3962  -20.8129  -50.6638 O.2       17 UNK        -0.5000 
     99 N          -6.2181  -21.4447  -50.8736 N.am      18 UNK        -0.5000 
    100 CA        -5.7659  -20.5637  -51.9513 C.3       18 UNK         0.1400 
    101 CB        -5.7206  -19.1012  -51.4629 C.3       18 UNK        -0.1800 
    102 C         -6.5539  -20.7349  -53.2664 C.2       18 UNK         0.5000 
    103 O         -6.9112  -19.7469  -53.9125 O.2       18 UNK        -0.5000 
    104 N         -6.7948  -21.9900  -53.6641 N.am      19 UNK        -0.5000 
    105 CA        -7.5018  -22.3665  -54.8884 C.3       19 UNK         0.1400 
    106 CB        -8.1248  -23.7592  -54.6923 C.3       19 UNK        -0.1800 
    107 C         -6.5643  -22.3037  -56.1114 C.2       19 UNK         0.5000 
    108 O         -6.2776  -23.3306  -56.7280 O.2       19 UNK        -0.5000 
    109 N         -6.0586  -21.0973  -56.4061 N.am      20 UNK        -0.5000 
    110 CA        -5.1502  -20.7051  -57.4976 C.3       20 UNK         0.1400 
    111 CB        -5.7788  -20.9976  -58.8733 C.3       20 UNK        -0.1800 
    112 C         -3.7169  -21.2760  -57.4143 C.2       20 UNK         0.5000 
    113 O         -2.7997  -20.6784  -57.9805 O.2       20 UNK        -0.5000 
    114 N         -3.5276  -22.3848  -56.6875 N.am      21 UNK        -0.5000 
    115 CA        -2.2635  -23.1015  -56.4899 C.3       21 UNK         0.1400 
    116 CB        -2.5575  -24.4252  -55.7659 C.3       21 UNK        -0.1800 
    117 C         -1.1540  -22.2965  -55.7771 C.2       21 UNK         0.5000 
    118 O          0.0044  -22.7141  -55.8108 O.2       21 UNK        -0.5000 
    119 N         -1.5082  -21.1485  -55.1846 N.am      22 UNK        -0.5000 
    120 CA        -0.5680  -20.1224  -54.7024 C.3       22 UNK         0.1400 
    121 C          0.2523  -19.4325  -55.8345 C.2       22 UNK         0.5000 
    122 N         -0.1801  -19.4698  -57.0911 N.am      22 UNK        -0.7600 
    123 O          1.3003  -18.8525  -55.5657 O.2       22 UNK        -0.5000 
    124 C124       -1.2794  -19.0407  -53.8500 C.3       23 UNK        -0.0398 
    125 S125       -2.1761  -19.7321  -52.4230 S.3       23 UNK        -0.2404 
    126 C126       -2.0622  -18.3622  -51.2231 C.3       23 UNK        -0.0205 
    127 H127       -3.8312  -14.9268  -41.0322 H         1 UNK         0.0600 
    128 H128       -2.6133  -16.1383  -41.4211 H         1 UNK         0.0600 
    129 H129       -4.2428  -16.2839  -42.0865 H         1 UNK         0.0600 
    130 H130       -1.2497  -15.6652  -43.1520 H         1 UNK         0.3000 
    131 H131       -2.0052  -14.1941  -45.4890 H         1 UNK         0.0600 
    132 H132        0.5763  -14.1411  -45.8341 H         1 UNK         0.0800 
    133 H133        0.7036  -15.0833  -44.3782 H         1 UNK         0.0800 
    134 H134        0.2044  -15.0273  -48.1399 H         1 UNK         0.0800 
    135 H135        1.6561  -15.7356  -47.4716 H         1 UNK         0.0800 
    136 H136       -1.4947  -16.5918  -49.2953 H         1 UNK         0.1150 
    137 H137        0.3393  -19.8204  -51.4592 H         1 UNK         0.1150 
    138 H138        2.5320  -17.7544  -48.4283 H         1 UNK         0.1150 
    139 H139        3.0433  -19.6343  -51.3225 H         1 UNK         0.0800 
    140 H140        3.6301  -19.4320  -49.6914 H         1 UNK         0.0800 
    141 H141        1.7884  -20.4983  -47.8796 H         1 UNK         0.0800 
    142 H142        3.0136  -21.7034  -47.6265 H         1 UNK         0.0800 
    143 H143        1.3525  -23.5120  -47.9856 H         1 UNK         0.0600 
    144 H144        1.1204  -21.6206  -45.8119 H         1 UNK         0.3000 
    145 H145       -0.8990  -23.6565  -43.7130 H         1 UNK         0.0600 
    146 H146        1.0237  -23.4998  -42.1539 H         1 UNK         0.0600 
    147 H147        1.3552  -24.6982  -43.3955 H         1 UNK         0.0600 
    148 H148        2.1107  -23.1104  -43.4861 H         1 UNK         0.0600 
    149 H149        0.5307  -21.2306  -43.2437 H         1 UNK         0.3000 
    150 H150       -1.3579  -19.0031  -45.0959 H         1 UNK         0.0600 
    151 H151       -3.1180  -19.2851  -43.3167 H         1 UNK         0.0600 
    152 H152       -2.1657  -17.8278  -43.1119 H         1 UNK         0.0600 
    153 H153       -1.8600  -19.2281  -42.0844 H         1 UNK         0.0600 
    154 H154        0.2940  -18.3662  -42.9259 H         1 UNK         0.3000 
    155 H155        3.4211  -19.3775  -43.9869 H         1 UNK         0.0600 
    156 H156        2.5216  -16.5462  -44.7289 H         1 UNK         0.0600 
    157 H157        4.1787  -17.0509  -44.4132 H         1 UNK         0.0600 
    158 H158        3.3149  -17.6826  -45.8079 H         1 UNK         0.0600 
    159 H159        2.6637  -17.1673  -42.3315 H         1 UNK         0.3000 
    160 H160        1.2798  -18.9050  -39.6496 H         1 UNK         0.0600 
    161 H161        4.2209  -18.0333  -39.5814 H         1 UNK         0.0600 
    162 H162        3.6241  -19.6262  -39.1304 H         1 UNK         0.0600 
    163 H163        3.1623  -18.2226  -38.1825 H         1 UNK         0.0600 
    164 H164        2.4215  -16.3356  -39.6306 H         1 UNK         0.3000 
    165 H165        0.2597  -14.5202  -41.6702 H         1 UNK         0.0600 
    166 H166       -0.3633  -13.2698  -39.6322 H         1 UNK         0.0600 
    167 H167       -1.2225  -14.7997  -39.6712 H         1 UNK         0.0600 
    168 H168        0.1664  -14.6064  -38.6082 H         1 UNK         0.0600 
    169 H169        2.1413  -13.6148  -39.7817 H         1 UNK         0.3000 
    170 H170        4.1202  -12.7735  -40.4889 H         1 UNK         0.0600 
    171 H171        5.4934  -15.4678  -41.0339 H         1 UNK         0.0600 
    172 H172        6.2187  -14.1029  -40.1850 H         1 UNK         0.0600 
    173 H173        4.8406  -14.9391  -39.4881 H         1 UNK         0.0600 
    174 H174        5.5215  -13.8317  -42.8677 H         1 UNK         0.3000 
    175 H175        6.1017  -11.0673  -44.2247 H         1 UNK         0.0600 
    176 H176        6.2492  -12.8100  -46.0438 H         1 UNK         0.0600 
    177 H177        5.1161  -13.8210  -45.1541 H         1 UNK         0.0600 
    178 H178        6.6946  -13.4359  -44.4705 H         1 UNK         0.0600 
    179 H179        4.6202  -10.1596  -45.5808 H         1 UNK         0.3000 
    180 H180        2.6766   -9.5837  -46.4768 H         1 UNK         0.0600 
    181 H181        2.1795  -12.0382  -48.2552 H         1 UNK         0.0600 
    182 H182        3.5530  -10.9452  -48.3733 H         1 UNK         0.0600 
    183 H183        1.9366  -10.3575  -48.7323 H         1 UNK         0.0600 
    184 H184        0.3903  -11.4352  -46.6943 H         1 UNK         0.3000 
    185 H185       -1.3248  -10.0966  -43.9086 H         1 UNK         0.0600 
    186 H186       -1.9432   -8.4854  -45.7048 H         1 UNK         0.0600 
    187 H187       -1.9701   -9.7848  -46.8905 H         1 UNK         0.0600 
    188 H188       -3.1394   -9.7643  -45.5697 H         1 UNK         0.0600 
    189 H189       -1.8772  -12.0625  -45.9748 H         1 UNK         0.3000 
    190 H190       -0.8716  -20.8242  -47.1469 H         1 UNK         0.3000 
    191 H191       -2.4608  -20.9625  -49.5199 H         1 UNK         0.0600 
    192 H192       -2.4224  -18.9881  -47.9693 H         1 UNK         0.0600 
    193 H193       -4.0530  -19.5756  -48.2591 H         1 UNK         0.0600 
    194 H194       -3.2501  -19.9382  -46.7403 H         1 UNK         0.0600 
    195 H195       -2.7191  -22.5479  -46.3232 H         1 UNK         0.3000 
    196 H196       -5.1098  -24.0019  -46.7958 H         1 UNK         0.0600 
    197 H197       -4.3732  -25.3626  -44.8577 H         1 UNK         0.0600 
    198 H198       -4.1212  -23.6525  -44.5382 H         1 UNK         0.0600 
    199 H199       -2.7552  -24.6829  -44.9579 H         1 UNK         0.0600 
    200 H200       -1.6614  -24.9353  -47.3145 H         1 UNK         0.3000 
    201 H201       -2.1349  -27.5149  -48.3840 H         1 UNK         0.0600 
    202 H202        0.0838  -26.7624  -47.5780 H         1 UNK         0.0600 
    203 H203        0.1867  -25.5766  -48.8781 H         1 UNK         0.0600 
    204 H204        0.1980  -27.2960  -49.2477 H         1 UNK         0.0600 
    205 H205       -2.1959  -24.3278  -49.9103 H         1 UNK         0.3000 
    206 H206       -2.6618  -25.2884  -52.6128 H         1 UNK         0.0600 
    207 H207       -1.5119  -23.1415  -52.1938 H         1 UNK         0.0600 
    208 H208       -3.0111  -22.8332  -53.0491 H         1 UNK         0.0600 
    209 H209       -2.9117  -22.5228  -51.3285 H         1 UNK         0.0600 
    210 H210       -4.5661  -25.9548  -50.2005 H         1 UNK         0.3000 
    211 H211       -6.6628  -26.5154  -49.8792 H         1 UNK         0.0600 
    212 H212       -7.0373  -26.1964  -52.9019 H         1 UNK         0.0600 
    213 H213       -8.0920  -27.0874  -51.8150 H         1 UNK         0.0600 
    214 H214       -6.4472  -27.6406  -52.0845 H         1 UNK         0.0600 
    215 H215       -6.1199  -24.0478  -49.1368 H         1 UNK         0.3000 
    216 H216       -6.9564  -22.1590  -48.3586 H         1 UNK         0.0600 
    217 H217       -9.3627  -21.7149  -48.2222 H         1 UNK         0.0600 
    218 H218       -9.0650  -23.4006  -47.8292 H         1 UNK         0.0600 
    219 H219       -9.7218  -22.9609  -49.4055 H         1 UNK         0.0600 
    220 H220       -5.5061  -22.0512  -50.4774 H         1 UNK         0.3000 
    221 H221       -4.7478  -20.8776  -52.1741 H         1 UNK         0.0600 
    222 H222       -6.7207  -18.6975  -51.3021 H         1 UNK         0.0600 
    223 H223       -5.1734  -19.0159  -50.5250 H         1 UNK         0.0600 
    224 H224       -5.2214  -18.4616  -52.1917 H         1 UNK         0.0600 
    225 H225       -6.3907  -22.7590  -53.1337 H         1 UNK         0.3000 
    226 H226       -8.3179  -21.6623  -55.0629 H         1 UNK         0.0600 
    227 H227       -8.8043  -23.7708  -53.8401 H         1 UNK         0.0600 
    228 H228       -8.6983  -24.0593  -55.5700 H         1 UNK         0.0600 
    229 H229       -7.3614  -24.5184  -54.5221 H         1 UNK         0.0600 
    230 H230       -6.3243  -20.3436  -55.7795 H         1 UNK         0.3000 
    231 H231       -5.0459  -19.6225  -57.4116 H         1 UNK         0.0600 
    232 H232       -5.8876  -22.0674  -59.0534 H         1 UNK         0.0600 
    233 H233       -5.1603  -20.5956  -59.6768 H         1 UNK         0.0600 
    234 H234       -6.7638  -20.5396  -58.9626 H         1 UNK         0.0600 
    235 H235       -4.3600  -22.8349  -56.3251 H         1 UNK         0.3000 
    236 H236       -1.8724  -23.3441  -57.4799 H         1 UNK         0.0600 
    237 H237       -3.1544  -25.0870  -56.3936 H         1 UNK         0.0600 
    238 H238       -1.6391  -24.9581  -55.5162 H         1 UNK         0.0600 
    239 H239       -3.1110  -24.2650  -54.8424 H         1 UNK         0.0600 
    240 H240       -2.4829  -20.8914  -55.1899 H         1 UNK         0.3000 
    241 H241        0.1565  -20.6269  -54.0601 H         1 UNK         0.0600 
    242 H242       -1.0507  -19.9310  -57.3353 H         1 UNK         0.3800 
    243 H243        0.3617  -19.0212  -57.8127 H         1 UNK         0.3800 
    244 H244       -0.5517  -18.3145  -53.4829 H         1 UNK         0.0800 
    245 H245       -1.9906  -18.4793  -54.4583 H         1 UNK         0.0800 
    246 H246       -2.2827  -17.4242  -51.7346 H         1 UNK         0.0800 
    247 H247       -2.8547  -18.5016  -50.4886 H         1 UNK         0.0800 
@<TRIPOS>BOND
     1    1    2 1    
     2    1  127 1    
     3    1  128 1    
     4    1  129 1    
     5    2    3 2    
     6    2    4 am   BACKBONE|DICT|INTERRES
     7    4    5 1    
     8    4  130 1    
     9    5    6 1    
    10    5   65 1    
    11    5  131 1    
    12    6    7 1    
    13    6  132 1    
    14    6  133 1    
    15    7    8 1    
    16    8    9 1    
    17    8  134 1    
    18    8  135 1    
    19    9   10 ar   
    20    9   14 ar   
    21   10   11 ar   
    22   10  136 1    
    23   11   12 ar   
    24   11  126 1    
    25   12   13 ar   
    26   12  137 1    
    27   13   14 ar   
    28   13   15 1    
    29   14  138 1    
    30   15   16 1    
    31   15  139 1    
    32   15  140 1    
    33   16   17 1    
    34   17   18 1    
    35   17  141 1    
    36   17  142 1    
    37   18   19 1    
    38   18   67 1    
    39   18  143 1    
    40   19   20 am   BACKBONE|DICT|INTERRES
    41   19  144 1    
    42   20   21 2    
    43   20   22 1    
    44   22   23 1    
    45   22   24 1    
    46   22  145 1    
    47   23  146 1    
    48   23  147 1    
    49   23  148 1    
    50   24   25 am   BACKBONE|DICT|INTERRES
    51   24  149 1    
    52   25   26 2    
    53   25   27 1    
    54   27   28 1    
    55   27   29 1    
    56   27  150 1    
    57   28  151 1    
    58   28  152 1    
    59   28  153 1    
    60   29   30 am   BACKBONE|DICT|INTERRES
    61   29  154 1    
    62   30   31 2    
    63   30   32 1    
    64   32   33 1    
    65   32   34 1    
    66   32  155 1    
    67   33  156 1    
    68   33  157 1    
    69   33  158 1    
    70   34   35 am   BACKBONE|DICT|INTERRES
    71   34  159 1    
    72   35   36 2    
    73   35   37 1    
    74   37   38 1    
    75   37   39 1    
    76   37  160 1    
    77   38  161 1    
    78   38  162 1    
    79   38  163 1    
    80   39   40 am   BACKBONE|DICT|INTERRES
    81   39  164 1    
    82   40   41 2    
    83   40   42 1    
    84   42   43 1    
    85   42   44 1    
    86   42  165 1    
    87   43  166 1    
    88   43  167 1    
    89   43  168 1    
    90   44   45 am   BACKBONE|DICT|INTERRES
    91   44  169 1    
    92   45   46 2    
    93   45   47 1    
    94   47   48 1    
    95   47   49 1    
    96   47  170 1    
    97   48  171 1    
    98   48  172 1    
    99   48  173 1    
   100   49   50 am   BACKBONE|DICT|INTERRES
   101   49  174 1    
   102   50   51 2    
   103   50   52 1    
   104   52   53 1    
   105   52   54 1    
   106   52  175 1    
   107   53  176 1    
   108   53  177 1    
   109   53  178 1    
   110   54   55 am   BACKBONE|DICT|INTERRES
   111   54  179 1    
   112   55   56 2    
   113   55   57 1    
   114   57   58 1    
   115   57   59 1    
   116   57  180 1    
   117   58  181 1    
   118   58  182 1    
   119   58  183 1    
   120   59   60 am   BACKBONE|DICT|INTERRES
   121   59  184 1    
   122   60   61 2    
   123   60   62 1    
   124   62   63 1    
   125   62   64 1    
   126   62  185 1    
   127   63  186 1    
   128   63  187 1    
   129   63  188 1    
   130   64   65 am   BACKBONE|DICT|INTERRES
   131   64  189 1    
   132   65   66 2    
   133   67   68 2    
   134   67   69 am   BACKBONE|DICT|INTERRES
   135   69   70 1    
   136   69  190 1    
   137   70   71 1    
   138   70   72 1    
   139   70  191 1    
   140   71  192 1    
   141   71  193 1    
   142   71  194 1    
   143   72   73 2    
   144   72   74 am   BACKBONE|DICT|INTERRES
   145   74   75 1    
   146   74  195 1    
   147   75   76 1    
   148   75   77 1    
   149   75  196 1    
   150   76  197 1    
   151   76  198 1    
   152   76  199 1    
   153   77   78 2    
   154   77   79 am   BACKBONE|DICT|INTERRES
   155   79   80 1    
   156   79  200 1    
   157   80   81 1    
   158   80   82 1    
   159   80  201 1    
   160   81  202 1    
   161   81  203 1    
   162   81  204 1    
   163   82   83 2    
   164   82   84 am   BACKBONE|DICT|INTERRES
   165   84   85 1    
   166   84  205 1    
   167   85   86 1    
   168   85   87 1    
   169   85  206 1    
   170   86  207 1    
   171   86  208 1    
   172   86  209 1    
   173   87   88 2    
   174   87   89 am   BACKBONE|DICT|INTERRES
   175   89   90 1    
   176   89  210 1    
   177   90   91 1    
   178   90   92 1    
   179   90  211 1    
   180   91  212 1    
   181   91  213 1    
   182   91  214 1    
   183   92   93 2    
   184   92   94 am   BACKBONE|DICT|INTERRES
   185   94   95 1    
   186   94  215 1    
   187   95   96 1    
   188   95   97 1    
   189   95  216 1    
   190   96  217 1    
   191   96  218 1    
   192   96  219 1    
   193   97   98 2    
   194   97   99 am   BACKBONE|DICT|INTERRES
   195   99  100 1    
   196   99  220 1    
   197  100  101 1    
   198  100  102 1    
   199  100  221 1    
   200  101  222 1    
   201  101  223 1    
   202  101  224 1    
   203  102  103 2    
   204  102  104 am   BACKBONE|DICT|INTERRES
   205  104  105 1    
   206  104  225 1    
   207  105  106 1    
   208  105  107 1    
   209  105  226 1    
   210  106  227 1    
   211  106  228 1    
   212  106  229 1    
   213  107  108 2    
   214  107  109 am   BACKBONE|DICT|INTERRES
   215  109  110 1    
   216  109  230 1    
   217  110  111 1    
   218  110  112 1    
   219  110  231 1    
   220  111  232 1    
   221  111  233 1    
   222  111  234 1    
   223  112  113 2    
   224  112  114 am   BACKBONE|DICT|INTERRES
   225  114  115 1    
   226  114  235 1    
   227  115  116 1    
   228  115  117 1    
   229  115  236 1    
   230  116  237 1    
   231  116  238 1    
   232  116  239 1    
   233  117  118 2    
   234  117  119 am   BACKBONE|DICT|INTERRES
   235  119  120 1    
   236  119  240 1    
   237  120  121 1    
   238  120  124 1    
   239  120  241 1    
   240  121  122 am   BACKBONE|DICT|INTERRES
   241  121  123 2    
   242  122  242 1    
   243  122  243 1    
   244  124  125 1    
   245  124  244 1    
   246  124  245 1    
   247  125  126 1    
   248  126  246 1    
   249  126  247 1    
@<TRIPOS>SUBSTRUCTURE
     1 UNK         1 GROUP             0       ****    0 ROOT    
