@<TRIPOS>MOLECULE
3R540
247   249    1
SMALL
USER_CHARGES


@<TRIPOS>ATOM
      1 CA          0.9288  -13.7115  -51.5075 C.3       0 UNK        -0.1800 
      2 C           0.7194  -13.8865  -50.0108 C.2       0 UNK         0.5000 
      3 O           1.6368  -14.3066  -49.3042 O.2       0 UNK        -0.5000 
      4 N          -0.4800  -13.5593  -49.5136 N.am      1 UNK        -0.5000 
      5 CA         -0.9000  -13.7151  -48.1154 C.3       1 UNK         0.1400 
      6 C6         -2.4321  -13.9359  -48.0162 C.3       23 UNK        -0.0398 
      7 S7         -2.9817  -14.7881  -46.4953 S.3       23 UNK        -0.2404 
      8 C8         -2.1532  -16.4112  -46.5623 C.3       23 UNK        -0.0205 
      9 C9         -2.5050  -17.2022  -47.8130 C.ar      23 UNK        -0.0193 
     10 C10        -1.6805  -17.1477  -48.9426 C.ar      23 UNK        -0.1150 
     11 C11        -2.0356  -17.8219  -50.1138 C.ar      23 UNK        -0.0193 
     12 C12        -3.2054  -18.5821  -50.1351 C.ar      23 UNK        -0.1150 
     13 C13        -4.0269  -18.6625  -49.0088 C.ar      23 UNK        -0.0193 
     14 C14        -3.6696  -17.9744  -47.8468 C.ar      23 UNK        -0.1150 
     15 C15        -5.3283  -19.4426  -49.0801 C.3       23 UNK        -0.0205 
     16 S16        -5.0482  -21.2145  -49.3707 S.3       23 UNK        -0.2404 
     17 C17        -4.6478  -21.8208  -47.7006 C.3       23 UNK        -0.0398 
     18 CA         -3.3306  -22.6347  -47.6923 C.3       11 UNK         0.1400 
     19 N          -2.1464  -21.7723  -47.6222 N.am      11 UNK        -0.5000 
     20 C          -0.8782  -22.1940  -47.7333 C.2       10 UNK         0.5000 
     21 O          -0.5650  -23.3692  -47.9194 O.2       10 UNK        -0.5000 
     22 CA          0.2247  -21.1381  -47.5447 C.3       10 UNK         0.1400 
     23 CB          0.5792  -20.4749  -48.8821 C.3       10 UNK        -0.1800 
     24 N          -0.1295  -20.1026  -46.5722 N.am      10 UNK        -0.5000 
     25 C          -0.3454  -20.3279  -45.2696 C.2       9 UNK         0.5000 
     26 O          -0.3242  -21.4463  -44.7519 O.2       9 UNK        -0.5000 
     27 CA         -0.6814  -19.0977  -44.4102 C.3       9 UNK         0.1400 
     28 CB         -2.1420  -19.1639  -43.9361 C.3       9 UNK        -0.1800 
     29 N           0.1942  -18.9525  -43.2493 N.am      9 UNK        -0.5000 
     30 C           1.5280  -18.8255  -43.2870 C.2       8 UNK         0.5000 
     31 O           2.1882  -18.8364  -44.3267 O.2       8 UNK        -0.5000 
     32 CA          2.2179  -18.6014  -41.9303 C.3       8 UNK         0.1400 
     33 CB          3.7326  -18.3560  -42.0573 C.3       8 UNK        -0.1800 
     34 N           1.6029  -17.4541  -41.2650 N.am      8 UNK        -0.5000 
     35 C           0.7631  -17.5239  -40.2235 C.2       7 UNK         0.5000 
     36 O           0.4381  -18.5801  -39.6803 O.2       7 UNK        -0.5000 
     37 CA          0.1626  -16.2009  -39.7106 C.3       7 UNK         0.1400 
     38 CB          0.9692  -15.6750  -38.5148 C.3       7 UNK        -0.1800 
     39 N           0.0836  -15.1706  -40.7499 N.am      7 UNK        -0.5000 
     40 C          -0.8131  -15.1878  -41.7482 C.2       6 UNK         0.5000 
     41 O          -1.6783  -16.0582  -41.8522 O.2       6 UNK        -0.5000 
     42 CA         -0.7253  -14.0932  -42.8320 C.3       6 UNK         0.1400 
     43 CB         -2.1061  -13.4983  -43.1773 C.3       6 UNK        -0.1800 
     44 N           0.2696  -13.0497  -42.5608 N.am      6 UNK        -0.5000 
     45 C           0.2103  -12.0359  -41.6844 C.2       5 UNK         0.5000 
     46 O          -0.7534  -11.8050  -40.9534 O.2       5 UNK        -0.5000 
     47 CA          1.4741  -11.1494  -41.6157 C.3       5 UNK         0.1400 
     48 CB          1.5060  -10.2222  -40.3824 C.3       5 UNK        -0.1800 
     49 N           2.7098  -11.9361  -41.7215 N.am      5 UNK        -0.5000 
     50 C           3.1222  -12.8972  -40.8795 C.2       4 UNK         0.5000 
     51 O           2.5308  -13.1892  -39.8410 O.2       4 UNK        -0.5000 
     52 CA          4.3693  -13.7000  -41.3113 C.3       4 UNK         0.1400 
     53 CB          4.5485  -15.0084  -40.5139 C.3       4 UNK        -0.1800 
     54 N           4.3936  -13.9688  -42.7543 N.am      4 UNK        -0.5000 
     55 C           3.4583  -14.6063  -43.4730 C.2       3 UNK         0.5000 
     56 O           2.4431  -15.1186  -42.9950 O.2       3 UNK        -0.5000 
     57 CA          3.6678  -14.6071  -44.9977 C.3       3 UNK         0.1400 
     58 CB          3.4259  -16.0030  -45.5916 C.3       3 UNK        -0.1800 
     59 N           2.7937  -13.6535  -45.6838 N.am      3 UNK        -0.5000 
     60 C           2.7035  -12.3311  -45.4666 C.2       2 UNK         0.5000 
     61 O           3.3374  -11.7367  -44.5938 O.2       2 UNK        -0.5000 
     62 CA          1.7498  -11.5292  -46.3743 C.3       2 UNK         0.1400 
     63 CB          2.5405  -10.5458  -47.2518 C.3       2 UNK        -0.1800 
     64 N           0.9718  -12.4102  -47.2458 N.am      2 UNK        -0.5000 
     65 C          -0.3515  -12.5936  -47.2015 C.2       1 UNK         0.5000 
     66 O          -1.1067  -11.9335  -46.4875 O.2       1 UNK        -0.5000 
     67 C          -3.3721  -23.7137  -46.5907 C.2       11 UNK         0.5000 
     68 O          -3.9474  -24.7748  -46.8343 O.2       11 UNK        -0.5000 
     69 N          -2.7582  -23.4565  -45.4263 N.am      12 UNK        -0.5000 
     70 CA         -2.6703  -24.4245  -44.3310 C.3       12 UNK         0.1400 
     71 CB         -2.2696  -23.7022  -43.0358 C.3       12 UNK        -0.1800 
     72 C          -1.6930  -25.5742  -44.6410 C.2       12 UNK         0.5000 
     73 O          -1.9332  -26.7043  -44.2158 O.2       12 UNK        -0.5000 
     74 N          -0.6228  -25.2704  -45.3876 N.am      13 UNK        -0.5000 
     75 CA          0.3773  -26.2396  -45.8316 C.3       13 UNK         0.1400 
     76 CB          1.7147  -25.5165  -46.0565 C.3       13 UNK        -0.1800 
     77 C          -0.0674  -26.9686  -47.1108 C.2       13 UNK         0.5000 
     78 O           0.1033  -28.1836  -47.2130 O.2       13 UNK        -0.5000 
     79 N          -0.6288  -26.2116  -48.0624 N.am      14 UNK        -0.5000 
     80 CA         -1.0320  -26.6890  -49.3859 C.3       14 UNK         0.1400 
     81 CB         -1.0542  -25.4881  -50.3417 C.3       14 UNK        -0.1800 
     82 C          -2.3941  -27.4077  -49.4112 C.2       14 UNK         0.5000 
     83 O          -2.7479  -27.9627  -50.4510 O.2       14 UNK        -0.5000 
     84 N          -3.1458  -27.3570  -48.3012 N.am      15 UNK        -0.5000 
     85 CA         -4.5117  -27.8681  -48.1352 C.3       15 UNK         0.1400 
     86 CB         -4.5523  -29.4063  -48.2526 C.3       15 UNK        -0.1800 
     87 C          -5.4965  -27.1522  -49.0826 C.2       15 UNK         0.5000 
     88 O          -6.1609  -27.7877  -49.9020 O.2       15 UNK        -0.5000 
     89 N          -5.5205  -25.8180  -48.9626 N.am      16 UNK        -0.5000 
     90 CA         -6.3319  -24.8373  -49.6970 C.3       16 UNK         0.1400 
     91 CB         -7.8383  -25.1360  -49.5616 C.3       16 UNK        -0.1800 
     92 C          -5.9275  -24.6059  -51.1690 C.2       16 UNK         0.5000 
     93 O          -6.4559  -23.6842  -51.7920 O.2       16 UNK        -0.5000 
     94 N          -4.9916  -25.4006  -51.7073 N.am      17 UNK        -0.5000 
     95 CA         -4.5582  -25.3335  -53.1070 C.3       17 UNK         0.1400 
     96 CB         -3.7656  -26.6021  -53.4527 C.3       17 UNK        -0.1800 
     97 C          -3.7417  -24.0732  -53.4556 C.2       17 UNK         0.5000 
     98 O          -3.6951  -23.6910  -54.6254 O.2       17 UNK        -0.5000 
     99 N          -3.1292  -23.4347  -52.4468 N.am      18 UNK        -0.5000 
    100 CA        -2.2961  -22.2376  -52.6003 C.3       18 UNK         0.1400 
    101 CB        -1.5966  -21.9153  -51.2755 C.3       18 UNK        -0.1800 
    102 C         -3.0565  -20.9996  -53.1074 C.2       18 UNK         0.5000 
    103 O         -2.4313  -20.1102  -53.6843 O.2       18 UNK        -0.5000 
    104 N         -4.3845  -20.9700  -52.9259 N.am      19 UNK        -0.5000 
    105 CA        -5.2712  -19.9204  -53.4325 C.3       19 UNK         0.1400 
    106 CB        -6.7012  -20.1925  -52.9434 C.3       19 UNK        -0.1800 
    107 C         -5.2413  -19.7989  -54.9687 C.2       19 UNK         0.5000 
    108 O         -5.3444  -18.6909  -55.4948 O.2       19 UNK        -0.5000 
    109 N         -5.0548  -20.9334  -55.6579 N.am      20 UNK        -0.5000 
    110 CA        -4.8845  -20.9967  -57.1086 C.3       20 UNK         0.1400 
    111 CB        -5.2250  -22.4161  -57.5884 C.3       20 UNK        -0.1800 
    112 C         -3.4652  -20.5993  -57.5603 C.2       20 UNK         0.5000 
    113 O         -3.2867  -20.2476  -58.7270 O.2       20 UNK        -0.5000 
    114 N         -2.4845  -20.6698  -56.6487 N.am      21 UNK        -0.5000 
    115 CA        -1.0898  -20.3259  -56.9086 C.3       21 UNK         0.1400 
    116 CB        -0.1641  -21.1322  -55.9818 C.3       21 UNK        -0.1800 
    117 C         -0.8513  -18.8148  -56.7666 C.2       21 UNK         0.5000 
    118 O         -0.3293  -18.2047  -57.7013 O.2       21 UNK        -0.5000 
    119 N         -1.2321  -18.2361  -55.6171 N.am      22 UNK        -0.5000 
    120 CA        -1.0632  -16.7966  -55.3452 C.3       22 UNK         0.1400 
    121 C         -2.2143  -15.8907  -55.8727 C.2       22 UNK         0.5000 
    122 N         -3.3660  -16.4256  -56.2592 N.am      22 UNK        -0.7600 
    123 O         -2.0491  -14.6765  -55.9554 O.2       22 UNK        -0.5000 
    124 C124       -0.6884  -16.5008  -53.8689 C.3       23 UNK        -0.0398 
    125 S125       -2.0285  -16.7459  -52.6529 S.3       23 UNK        -0.2404 
    126 C126       -1.1779  -17.7102  -51.3651 C.3       23 UNK        -0.0205 
    127 H127        0.0084  -13.4195  -52.0138 H         1 UNK         0.0600 
    128 H128        1.2758  -14.6466  -51.9470 H         1 UNK         0.0600 
    129 H129        1.6811  -12.9454  -51.6942 H         1 UNK         0.0600 
    130 H130       -1.1781  -13.1777  -50.1364 H         1 UNK         0.3000 
    131 H131       -0.4170  -14.6213  -47.7544 H         1 UNK         0.0600 
    132 H132       -2.7817  -14.5342  -48.8587 H         1 UNK         0.0800 
    133 H133       -2.9661  -12.9879  -48.0987 H         1 UNK         0.0800 
    134 H134       -2.4727  -16.9686  -45.6829 H         1 UNK         0.0800 
    135 H135       -1.0741  -16.2946  -46.4646 H         1 UNK         0.0800 
    136 H136       -0.7768  -16.5569  -48.9249 H         1 UNK         0.1150 
    137 H137       -3.4916  -19.0920  -51.0415 H         1 UNK         0.1150 
    138 H138       -4.3128  -18.0112  -46.9787 H         1 UNK         0.1150 
    139 H139       -5.9261  -19.3054  -48.1778 H         1 UNK         0.0800 
    140 H140       -5.9243  -19.0433  -49.9012 H         1 UNK         0.0800 
    141 H141       -5.5001  -22.4257  -47.3846 H         1 UNK         0.0800 
    142 H142       -4.5963  -20.9937  -46.9909 H         1 UNK         0.0800 
    143 H143       -3.2622  -23.1887  -48.6311 H         1 UNK         0.0600 
    144 H144       -2.3128  -20.7866  -47.4846 H         1 UNK         0.3000 
    145 H145        1.1125  -21.6548  -47.1738 H         1 UNK         0.0600 
    146 H146        1.4052  -19.7726  -48.7690 H         1 UNK         0.0600 
    147 H147        0.8867  -21.2197  -49.6172 H         1 UNK         0.0600 
    148 H148       -0.2692  -19.9307  -49.2962 H         1 UNK         0.0600 
    149 H149       -0.1590  -19.1562  -46.9206 H         1 UNK         0.3000 
    150 H150       -0.5500  -18.2016  -45.0167 H         1 UNK         0.0600 
    151 H151       -2.3090  -20.0091  -43.2668 H         1 UNK         0.0600 
    152 H152       -2.8253  -19.2754  -44.7790 H         1 UNK         0.0600 
    153 H153       -2.4270  -18.2556  -43.4049 H         1 UNK         0.0600 
    154 H154       -0.2592  -18.9311  -42.3474 H         1 UNK         0.3000 
    155 H155        2.0787  -19.5124  -41.3450 H         1 UNK         0.0600 
    156 H156        3.9512  -17.4711  -42.6543 H         1 UNK         0.0600 
    157 H157        4.2279  -19.2038  -42.5319 H         1 UNK         0.0600 
    158 H158        4.1913  -18.2193  -41.0780 H         1 UNK         0.0600 
    159 H159        1.7749  -16.5522  -41.6994 H         1 UNK         0.3000 
    160 H160       -0.8507  -16.4104  -39.3613 H         1 UNK         0.0600 
    161 H161        2.0207  -15.5378  -38.7661 H         1 UNK         0.0600 
    162 H162        0.9251  -16.3753  -37.6799 H         1 UNK         0.0600 
    163 H163        0.5794  -14.7204  -38.1607 H         1 UNK         0.0600 
    164 H164        0.7765  -14.4339  -40.7185 H         1 UNK         0.3000 
    165 H165       -0.3665  -14.6037  -43.7271 H         1 UNK         0.0600 
    166 H166       -2.0292  -12.7509  -43.9667 H         1 UNK         0.0600 
    167 H167       -2.5807  -13.0323  -42.3141 H         1 UNK         0.0600 
    168 H168       -2.7855  -14.2736  -43.5320 H         1 UNK         0.0600 
    169 H169        1.1514  -13.1921  -43.0335 H         1 UNK         0.3000 
    170 H170        1.4437  -10.5130  -42.5014 H         1 UNK         0.0600 
    171 H171        0.6555   -9.5397  -40.3867 H         1 UNK         0.0600 
    172 H172        1.4673  -10.7833  -39.4484 H         1 UNK         0.0600 
    173 H173        2.4097   -9.6130  -40.3709 H         1 UNK         0.0600 
    174 H174        3.2305  -11.8033  -42.5839 H         1 UNK         0.3000 
    175 H175        5.2289  -13.0629  -41.0993 H         1 UNK         0.0600 
    176 H176        3.6921  -15.6713  -40.6274 H         1 UNK         0.0600 
    177 H177        5.4363  -15.5508  -40.8387 H         1 UNK         0.0600 
    178 H178        4.6641  -14.8051  -39.4487 H         1 UNK         0.0600 
    179 H179        5.1616  -13.5430  -43.2547 H         1 UNK         0.3000 
    180 H180        4.7009  -14.3252  -45.2103 H         1 UNK         0.0600 
    181 H181        2.3887  -16.3183  -45.4701 H         1 UNK         0.0600 
    182 H182        4.0543  -16.7504  -45.1057 H         1 UNK         0.0600 
    183 H183        3.6593  -16.0264  -46.6562 H         1 UNK         0.0600 
    184 H184        2.2133  -14.0462  -46.4085 H         1 UNK         0.3000 
    185 H185        1.0915  -10.9559  -45.7186 H         1 UNK         0.0600 
    186 H186        1.8717   -9.9475  -47.8708 H         1 UNK         0.0600 
    187 H187        3.1222   -9.8539  -46.6413 H         1 UNK         0.0600 
    188 H188        3.2345  -11.0652  -47.9138 H         1 UNK         0.0600 
    189 H189        1.4942  -12.9713  -47.9136 H         1 UNK         0.3000 
    190 H190       -2.2593  -22.5850  -45.3042 H         1 UNK         0.3000 
    191 H191       -3.6600  -24.8610  -44.1790 H         1 UNK         0.0600 
    192 H192       -2.2831  -24.3893  -42.1888 H         1 UNK         0.0600 
    193 H193       -2.9582  -22.8889  -42.8059 H         1 UNK         0.0600 
    194 H194       -1.2647  -23.2843  -43.0989 H         1 UNK         0.0600 
    195 H195       -0.5179  -24.3225  -45.7222 H         1 UNK         0.3000 
    196 H196        0.5269  -26.9879  -45.0501 H         1 UNK         0.0600 
    197 H197        1.6347  -24.7432  -46.8215 H         1 UNK         0.0600 
    198 H198        2.0646  -25.0433  -45.1389 H         1 UNK         0.0600 
    199 H199        2.4875  -26.2165  -46.3765 H         1 UNK         0.0600 
    200 H200       -0.6850  -25.2061  -47.9148 H         1 UNK         0.3000 
    201 H201       -0.2824  -27.3966  -49.7461 H         1 UNK         0.0600 
    202 H202       -1.8233  -24.7713  -50.0545 H         1 UNK         0.0600 
    203 H203       -1.2547  -25.7992  -51.3667 H         1 UNK         0.0600 
    204 H204       -0.0948  -24.9704  -50.3453 H         1 UNK         0.0600 
    205 H205       -2.7806  -26.8318  -47.5185 H         1 UNK         0.3000 
    206 H206       -4.8159  -27.6106  -47.1194 H         1 UNK         0.0600 
    207 H207       -3.8566  -29.8720  -47.5546 H         1 UNK         0.0600 
    208 H208       -5.5481  -29.7858  -48.0211 H         1 UNK         0.0600 
    209 H209       -4.2998  -29.7494  -49.2561 H         1 UNK         0.0600 
    210 H210       -4.9217  -25.4229  -48.2396 H         1 UNK         0.3000 
    211 H211       -6.1557  -23.8898  -49.1921 H         1 UNK         0.0600 
    212 H212       -8.4346  -24.3160  -49.9634 H         1 UNK         0.0600 
    213 H213       -8.1241  -25.2614  -48.5173 H         1 UNK         0.0600 
    214 H214       -8.1263  -26.0382  -50.1014 H         1 UNK         0.0600 
    215 H215       -4.6237  -26.1600  -51.1509 H         1 UNK         0.3000 
    216 H216       -5.4531  -25.3186  -53.7327 H         1 UNK         0.0600 
    217 H217       -2.8442  -26.6731  -52.8757 H         1 UNK         0.0600 
    218 H218       -3.4917  -26.6157  -54.5085 H         1 UNK         0.0600 
    219 H219       -4.3520  -27.5003  -53.2578 H         1 UNK         0.0600 
    220 H220       -3.2403  -23.8009  -51.5145 H         1 UNK         0.3000 
    221 H221       -1.5267  -22.4661  -53.3405 H         1 UNK         0.0600 
    222 H222       -0.9568  -22.7330  -50.9497 H         1 UNK         0.0600 
    223 H223       -2.3128  -21.7012  -50.4837 H         1 UNK         0.0600 
    224 H224       -0.9571  -21.0399  -51.3834 H         1 UNK         0.0600 
    225 H225       -4.8247  -21.7392  -52.4391 H         1 UNK         0.3000 
    226 H226       -4.9368  -18.9675  -53.0172 H         1 UNK         0.0600 
    227 H227       -7.0809  -21.1425  -53.3219 H         1 UNK         0.0600 
    228 H228       -6.7490  -20.2272  -51.8556 H         1 UNK         0.0600 
    229 H229       -7.3836  -19.4086  -53.2744 H         1 UNK         0.0600 
    230 H230       -4.9361  -21.8015  -55.1512 H         1 UNK         0.3000 
    231 H231       -5.5871  -20.3036  -57.5765 H         1 UNK         0.0600 
    232 H232       -4.5428  -23.1573  -57.1706 H         1 UNK         0.0600 
    233 H233       -5.1597  -22.4869  -58.6748 H         1 UNK         0.0600 
    234 H234       -6.2399  -22.6962  -57.3054 H         1 UNK         0.0600 
    235 H235       -2.7218  -20.9027  -55.6943 H         1 UNK         0.3000 
    236 H236       -0.8440  -20.6092  -57.9346 H         1 UNK         0.0600 
    237 H237       -0.2878  -20.8619  -54.9339 H         1 UNK         0.0600 
    238 H238       -0.3473  -22.2027  -56.0757 H         1 UNK         0.0600 
    239 H239        0.8817  -20.9581  -56.2375 H         1 UNK         0.0600 
    240 H240       -1.6685  -18.7954  -54.8885 H         1 UNK         0.3000 
    241 H241       -0.1911  -16.4674  -55.9139 H         1 UNK         0.0600 
    242 H242       -3.5542  -17.4102  -56.1386 H         1 UNK         0.3800 
    243 H243       -4.0967  -15.8232  -56.6025 H         1 UNK         0.3800 
    244 H244       -0.3511  -15.4673  -53.7781 H         1 UNK         0.0800 
    245 H245        0.1713  -17.1112  -53.5900 H         1 UNK         0.0800 
    246 H246       -0.2228  -17.2380  -51.1298 H         1 UNK         0.0800 
    247 H247       -0.9508  -18.7044  -51.7495 H         1 UNK         0.0800 
@<TRIPOS>BOND
     1    1    2 1    
     2    1  127 1    
     3    1  128 1    
     4    1  129 1    
     5    2    3 2    
     6    2    4 am   BACKBONE|DICT|INTERRES
     7    4    5 1    
     8    4  130 1    
     9    5    6 1    
    10    5   65 1    
    11    5  131 1    
    12    6    7 1    
    13    6  132 1    
    14    6  133 1    
    15    7    8 1    
    16    8    9 1    
    17    8  134 1    
    18    8  135 1    
    19    9   10 ar   
    20    9   14 ar   
    21   10   11 ar   
    22   10  136 1    
    23   11   12 ar   
    24   11  126 1    
    25   12   13 ar   
    26   12  137 1    
    27   13   14 ar   
    28   13   15 1    
    29   14  138 1    
    30   15   16 1    
    31   15  139 1    
    32   15  140 1    
    33   16   17 1    
    34   17   18 1    
    35   17  141 1    
    36   17  142 1    
    37   18   19 1    
    38   18   67 1    
    39   18  143 1    
    40   19   20 am   BACKBONE|DICT|INTERRES
    41   19  144 1    
    42   20   21 2    
    43   20   22 1    
    44   22   23 1    
    45   22   24 1    
    46   22  145 1    
    47   23  146 1    
    48   23  147 1    
    49   23  148 1    
    50   24   25 am   BACKBONE|DICT|INTERRES
    51   24  149 1    
    52   25   26 2    
    53   25   27 1    
    54   27   28 1    
    55   27   29 1    
    56   27  150 1    
    57   28  151 1    
    58   28  152 1    
    59   28  153 1    
    60   29   30 am   BACKBONE|DICT|INTERRES
    61   29  154 1    
    62   30   31 2    
    63   30   32 1    
    64   32   33 1    
    65   32   34 1    
    66   32  155 1    
    67   33  156 1    
    68   33  157 1    
    69   33  158 1    
    70   34   35 am   BACKBONE|DICT|INTERRES
    71   34  159 1    
    72   35   36 2    
    73   35   37 1    
    74   37   38 1    
    75   37   39 1    
    76   37  160 1    
    77   38  161 1    
    78   38  162 1    
    79   38  163 1    
    80   39   40 am   BACKBONE|DICT|INTERRES
    81   39  164 1    
    82   40   41 2    
    83   40   42 1    
    84   42   43 1    
    85   42   44 1    
    86   42  165 1    
    87   43  166 1    
    88   43  167 1    
    89   43  168 1    
    90   44   45 am   BACKBONE|DICT|INTERRES
    91   44  169 1    
    92   45   46 2    
    93   45   47 1    
    94   47   48 1    
    95   47   49 1    
    96   47  170 1    
    97   48  171 1    
    98   48  172 1    
    99   48  173 1    
   100   49   50 am   BACKBONE|DICT|INTERRES
   101   49  174 1    
   102   50   51 2    
   103   50   52 1    
   104   52   53 1    
   105   52   54 1    
   106   52  175 1    
   107   53  176 1    
   108   53  177 1    
   109   53  178 1    
   110   54   55 am   BACKBONE|DICT|INTERRES
   111   54  179 1    
   112   55   56 2    
   113   55   57 1    
   114   57   58 1    
   115   57   59 1    
   116   57  180 1    
   117   58  181 1    
   118   58  182 1    
   119   58  183 1    
   120   59   60 am   BACKBONE|DICT|INTERRES
   121   59  184 1    
   122   60   61 2    
   123   60   62 1    
   124   62   63 1    
   125   62   64 1    
   126   62  185 1    
   127   63  186 1    
   128   63  187 1    
   129   63  188 1    
   130   64   65 am   BACKBONE|DICT|INTERRES
   131   64  189 1    
   132   65   66 2    
   133   67   68 2    
   134   67   69 am   BACKBONE|DICT|INTERRES
   135   69   70 1    
   136   69  190 1    
   137   70   71 1    
   138   70   72 1    
   139   70  191 1    
   140   71  192 1    
   141   71  193 1    
   142   71  194 1    
   143   72   73 2    
   144   72   74 am   BACKBONE|DICT|INTERRES
   145   74   75 1    
   146   74  195 1    
   147   75   76 1    
   148   75   77 1    
   149   75  196 1    
   150   76  197 1    
   151   76  198 1    
   152   76  199 1    
   153   77   78 2    
   154   77   79 am   BACKBONE|DICT|INTERRES
   155   79   80 1    
   156   79  200 1    
   157   80   81 1    
   158   80   82 1    
   159   80  201 1    
   160   81  202 1    
   161   81  203 1    
   162   81  204 1    
   163   82   83 2    
   164   82   84 am   BACKBONE|DICT|INTERRES
   165   84   85 1    
   166   84  205 1    
   167   85   86 1    
   168   85   87 1    
   169   85  206 1    
   170   86  207 1    
   171   86  208 1    
   172   86  209 1    
   173   87   88 2    
   174   87   89 am   BACKBONE|DICT|INTERRES
   175   89   90 1    
   176   89  210 1    
   177   90   91 1    
   178   90   92 1    
   179   90  211 1    
   180   91  212 1    
   181   91  213 1    
   182   91  214 1    
   183   92   93 2    
   184   92   94 am   BACKBONE|DICT|INTERRES
   185   94   95 1    
   186   94  215 1    
   187   95   96 1    
   188   95   97 1    
   189   95  216 1    
   190   96  217 1    
   191   96  218 1    
   192   96  219 1    
   193   97   98 2    
   194   97   99 am   BACKBONE|DICT|INTERRES
   195   99  100 1    
   196   99  220 1    
   197  100  101 1    
   198  100  102 1    
   199  100  221 1    
   200  101  222 1    
   201  101  223 1    
   202  101  224 1    
   203  102  103 2    
   204  102  104 am   BACKBONE|DICT|INTERRES
   205  104  105 1    
   206  104  225 1    
   207  105  106 1    
   208  105  107 1    
   209  105  226 1    
   210  106  227 1    
   211  106  228 1    
   212  106  229 1    
   213  107  108 2    
   214  107  109 am   BACKBONE|DICT|INTERRES
   215  109  110 1    
   216  109  230 1    
   217  110  111 1    
   218  110  112 1    
   219  110  231 1    
   220  111  232 1    
   221  111  233 1    
   222  111  234 1    
   223  112  113 2    
   224  112  114 am   BACKBONE|DICT|INTERRES
   225  114  115 1    
   226  114  235 1    
   227  115  116 1    
   228  115  117 1    
   229  115  236 1    
   230  116  237 1    
   231  116  238 1    
   232  116  239 1    
   233  117  118 2    
   234  117  119 am   BACKBONE|DICT|INTERRES
   235  119  120 1    
   236  119  240 1    
   237  120  121 1    
   238  120  124 1    
   239  120  241 1    
   240  121  122 am   BACKBONE|DICT|INTERRES
   241  121  123 2    
   242  122  242 1    
   243  122  243 1    
   244  124  125 1    
   245  124  244 1    
   246  124  245 1    
   247  125  126 1    
   248  126  246 1    
   249  126  247 1    
@<TRIPOS>SUBSTRUCTURE
     1 UNK         1 GROUP             0       ****    0 ROOT    
