@<TRIPOS>MOLECULE
3R540
247   249    1
SMALL
USER_CHARGES


@<TRIPOS>ATOM
      1 CA          4.0813  -17.0280  -45.2545 C.3       0 UNK        -0.1800 
      2 C           4.0020  -15.5337  -44.9847 C.2       0 UNK         0.5000 
      3 O           3.8128  -15.1325  -43.8384 O.2       0 UNK        -0.5000 
      4 N           4.1765  -14.7061  -46.0244 N.am      1 UNK        -0.5000 
      5 CA          4.0775  -13.2369  -45.9807 C.3       1 UNK         0.1400 
      6 C6          4.2253  -12.5928  -47.3835 C.3       23 UNK        -0.0398 
      7 S7          3.0787  -13.2988  -48.6171 S.3       23 UNK        -0.2404 
      8 C8          4.2135  -14.2086  -49.7127 C.3       23 UNK        -0.0205 
      9 C9          3.5589  -15.4782  -50.2302 C.ar      23 UNK        -0.0193 
     10 C10         2.7967  -15.4623  -51.4016 C.ar      23 UNK        -0.1150 
     11 C11         2.1814  -16.6308  -51.8631 C.ar      23 UNK        -0.0193 
     12 C12         2.3245  -17.8174  -51.1369 C.ar      23 UNK        -0.1150 
     13 C13         3.0836  -17.8431  -49.9633 C.ar      23 UNK        -0.0193 
     14 C14         3.7077  -16.6735  -49.5238 C.ar      23 UNK        -0.1150 
     15 C15         3.2028  -19.1132  -49.1380 C.3       23 UNK        -0.0205 
     16 S16         2.1533  -18.9718  -47.6660 S.3       23 UNK        -0.2404 
     17 C17         2.4278  -20.5552  -46.7919 C.3       23 UNK        -0.0398 
     18 CA          1.2444  -21.5528  -46.9136 C.3       11 UNK         0.1400 
     19 N          -0.0433  -20.8804  -46.7244 N.am      11 UNK        -0.5000 
     20 C          -1.2592  -21.4383  -46.7113 C.2       10 UNK         0.5000 
     21 O          -1.4604  -22.6521  -46.7112 O.2       10 UNK        -0.5000 
     22 CA         -2.4511  -20.4605  -46.7637 C.3       10 UNK         0.1400 
     23 CB         -2.9474  -20.1300  -45.3484 C.3       10 UNK        -0.1800 
     24 N          -2.1485  -19.2099  -47.4714 N.am      10 UNK        -0.5000 
     25 C          -1.7627  -19.1006  -48.7503 C.2       9 UNK         0.5000 
     26 O          -1.6484  -20.0664  -49.5026 O.2       9 UNK        -0.5000 
     27 CA         -1.3773  -17.7057  -49.2780 C.3       9 UNK         0.1400 
     28 CB         -2.6140  -16.9238  -49.7572 C.3       9 UNK        -0.1800 
     29 N          -0.5461  -16.9197  -48.3579 N.am      9 UNK        -0.5000 
     30 C          -0.8735  -16.4097  -47.1646 C.2       8 UNK         0.5000 
     31 O          -2.0038  -16.4701  -46.6741 O.2       8 UNK        -0.5000 
     32 CA          0.2684  -15.7326  -46.3843 C.3       8 UNK         0.1400 
     33 CB          0.2006  -14.2130  -46.5859 C.3       8 UNK        -0.1800 
     34 N           0.2243  -16.0200  -44.9502 N.am      8 UNK        -0.5000 
     35 C           0.1727  -17.2346  -44.3821 C.2       7 UNK         0.5000 
     36 O           0.2280  -18.2950  -45.0053 O.2       7 UNK        -0.5000 
     37 CA          0.0125  -17.2708  -42.8534 C.3       7 UNK         0.1400 
     38 CB          1.3813  -17.2317  -42.1560 C.3       7 UNK        -0.1800 
     39 N          -0.8137  -16.1624  -42.3728 N.am      7 UNK        -0.5000 
     40 C          -2.1548  -16.1732  -42.3516 C.2       6 UNK         0.5000 
     41 O          -2.8342  -17.1487  -42.6723 O.2       6 UNK        -0.5000 
     42 CA         -2.8632  -14.8869  -41.8802 C.3       6 UNK         0.1400 
     43 CB         -3.1843  -14.9734  -40.3801 C.3       6 UNK        -0.1800 
     44 N          -2.0710  -13.6814  -42.1242 N.am      6 UNK        -0.5000 
     45 C          -1.9330  -13.0855  -43.3172 C.2       5 UNK         0.5000 
     46 O          -2.5511  -13.4267  -44.3243 O.2       5 UNK        -0.5000 
     47 CA         -0.9176  -11.9250  -43.4043 C.3       5 UNK         0.1400 
     48 CB         -1.6367  -10.5710  -43.3089 C.3       5 UNK        -0.1800 
     49 N           0.1266  -11.9871  -42.3748 N.am      5 UNK        -0.5000 
     50 C           1.0457  -12.9568  -42.2882 C.2       4 UNK         0.5000 
     51 O           1.1346  -13.8804  -43.0981 O.2       4 UNK        -0.5000 
     52 CA          1.9185  -12.9528  -41.0285 C.3       4 UNK         0.1400 
     53 CB          1.1430  -13.6231  -39.8735 C.3       4 UNK        -0.1800 
     54 N           3.1745  -13.6589  -41.2755 N.am      4 UNK        -0.5000 
     55 C           4.2207  -13.6612  -40.4376 C.2       3 UNK         0.5000 
     56 O           4.2560  -13.0231  -39.3843 O.2       3 UNK        -0.5000 
     57 CA          5.4417  -14.4994  -40.8420 C.3       3 UNK         0.1400 
     58 CB          5.1194  -16.0038  -40.8409 C.3       3 UNK        -0.1800 
     59 N           5.9339  -14.0927  -42.1546 N.am      3 UNK        -0.5000 
     60 C           6.8496  -13.1342  -42.3565 C.2       2 UNK         0.5000 
     61 O           7.4000  -12.5152  -41.4448 O.2       2 UNK        -0.5000 
     62 CA          7.2382  -12.8132  -43.8141 C.3       2 UNK         0.1400 
     63 CB          8.5677  -13.4936  -44.1762 C.3       2 UNK        -0.1800 
     64 N           6.2236  -13.2199  -44.7851 N.am      2 UNK        -0.5000 
     65 C           5.0659  -12.5785  -44.9937 C.2       1 UNK         0.5000 
     66 O           4.7582  -11.5248  -44.4354 O.2       1 UNK        -0.5000 
     67 C           1.3350  -22.3589  -48.2293 C.2       11 UNK         0.5000 
     68 O           1.9703  -23.4142  -48.2405 O.2       11 UNK        -0.5000 
     69 N           0.7076  -21.8595  -49.3029 N.am      12 UNK        -0.5000 
     70 CA          0.6304  -22.5301  -50.5995 C.3       12 UNK         0.1400 
     71 CB          0.7360  -21.4876  -51.7236 C.3       12 UNK        -0.1800 
     72 C          -0.6689  -23.3397  -50.7241 C.2       12 UNK         0.5000 
     73 O          -0.6334  -24.4766  -51.1981 O.2       12 UNK        -0.5000 
     74 N          -1.7876  -22.7536  -50.2752 N.am      13 UNK        -0.5000 
     75 CA         -3.1429  -23.2952  -50.3608 C.3       13 UNK         0.1400 
     76 CB         -4.1492  -22.1367  -50.2484 C.3       13 UNK        -0.1800 
     77 C          -3.4104  -24.4216  -49.3405 C.2       13 UNK         0.5000 
     78 O          -4.3515  -24.3427  -48.5481 O.2       13 UNK        -0.5000 
     79 N          -2.5746  -25.4659  -49.3867 N.am      14 UNK        -0.5000 
     80 CA         -2.6030  -26.6350  -48.5062 C.3       14 UNK         0.1400 
     81 CB         -1.3583  -27.4910  -48.7828 C.3       14 UNK        -0.1800 
     82 C          -3.8831  -27.4840  -48.6302 C.2       14 UNK         0.5000 
     83 O          -4.2256  -28.2034  -47.6903 O.2       14 UNK        -0.5000 
     84 N          -4.5897  -27.3664  -49.7627 N.am      15 UNK        -0.5000 
     85 CA         -5.8899  -27.9800  -50.0294 C.3       15 UNK         0.1400 
     86 CB         -6.0949  -28.0531  -51.5520 C.3       15 UNK        -0.1800 
     87 C          -7.0278  -27.2248  -49.3090 C.2       15 UNK         0.5000 
     88 O          -7.9189  -26.6746  -49.9585 O.2       15 UNK        -0.5000 
     89 N          -6.9493  -27.1848  -47.9706 N.am      16 UNK        -0.5000 
     90 CA         -7.9156  -26.6169  -47.0204 C.3       16 UNK         0.1400 
     91 CB         -9.1748  -27.5070  -46.9683 C.3       16 UNK        -0.1800 
     92 C          -8.2609  -25.1302  -47.2651 C.2       16 UNK         0.5000 
     93 O          -9.3717  -24.7025  -46.9469 O.2       16 UNK        -0.5000 
     94 N          -7.3180  -24.3789  -47.8556 N.am      17 UNK        -0.5000 
     95 CA         -7.4470  -22.9960  -48.3309 C.3       17 UNK         0.1400 
     96 CB         -7.6892  -22.0245  -47.1571 C.3       17 UNK        -0.1800 
     97 C          -8.4668  -22.8062  -49.4794 C.2       17 UNK         0.5000 
     98 O          -8.8062  -21.6658  -49.7990 O.2       17 UNK        -0.5000 
     99 N          -8.9349  -23.9052  -50.0880 N.am      18 UNK        -0.5000 
    100 CA        -9.9505  -23.9106  -51.1414 C.3       18 UNK         0.1400 
    101 CB       -10.8859  -25.1087  -50.9132 C.3       18 UNK        -0.1800 
    102 C         -9.3387  -23.9726  -52.5519 C.2       18 UNK         0.5000 
    103 O        -10.0261  -23.6398  -53.5186 O.2       18 UNK        -0.5000 
    104 N         -8.0741  -24.3944  -52.6567 N.am      19 UNK        -0.5000 
    105 CA        -7.3239  -24.5303  -53.9000 C.3       19 UNK         0.1400 
    106 CB        -7.6778  -25.8676  -54.5781 C.3       19 UNK        -0.1800 
    107 C         -5.8214  -24.4282  -53.6006 C.2       19 UNK         0.5000 
    108 O         -5.4266  -24.4806  -52.4335 O.2       19 UNK        -0.5000 
    109 N         -5.0226  -24.2898  -54.6687 N.am      20 UNK        -0.5000 
    110 CA        -3.5568  -24.1625  -54.6863 C.3       20 UNK         0.1400 
    111 CB        -2.8743  -25.3876  -54.0380 C.3       20 UNK        -0.1800 
    112 C         -3.0294  -22.8168  -54.1389 C.2       20 UNK         0.5000 
    113 O         -1.8492  -22.7134  -53.8055 O.2       20 UNK        -0.5000 
    114 N         -3.9019  -21.8024  -54.0781 N.am      21 UNK        -0.5000 
    115 CA        -3.5820  -20.4331  -53.6720 C.3       21 UNK         0.1400 
    116 CB        -4.8979  -19.7170  -53.3190 C.3       21 UNK        -0.1800 
    117 C         -2.7887  -19.6584  -54.7457 C.2       21 UNK         0.5000 
    118 O         -2.5595  -20.1665  -55.8463 O.2       21 UNK        -0.5000 
    119 N         -2.3923  -18.4278  -54.3968 N.am      22 UNK        -0.5000 
    120 CA        -1.5667  -17.5198  -55.2150 C.3       22 UNK         0.1400 
    121 C         -2.1815  -17.0830  -56.5795 C.2       22 UNK         0.5000 
    122 N         -3.4862  -17.2023  -56.7925 N.am      22 UNK        -0.7600 
    123 O         -1.4581  -16.6228  -57.4586 O.2       22 UNK        -0.5000 
    124 C124       -1.1335  -16.2591  -54.4197 C.3       23 UNK        -0.0398 
    125 S125       -0.4205  -16.6114  -52.7767 S.3       23 UNK        -0.2404 
    126 C126        1.3595  -16.6102  -53.1427 C.3       23 UNK        -0.0205 
    127 H127        4.3784  -17.2416  -46.2806 H         1 UNK         0.0600 
    128 H128        4.8081  -17.4908  -44.5873 H         1 UNK         0.0600 
    129 H129        3.1121  -17.4917  -45.0752 H         1 UNK         0.0600 
    130 H130        4.3192  -15.0956  -46.9436 H         1 UNK         0.3000 
    131 H131        3.0803  -13.0020  -45.6064 H         1 UNK         0.0600 
    132 H132        4.0187  -11.5225  -47.3251 H         1 UNK         0.0800 
    133 H133        5.2521  -12.6768  -47.7432 H         1 UNK         0.0800 
    134 H134        4.5061  -13.5650  -50.5437 H         1 UNK         0.0800 
    135 H135        5.1337  -14.4662  -49.1866 H         1 UNK         0.0800 
    136 H136        2.6776  -14.5378  -51.9492 H         1 UNK         0.1150 
    137 H137        1.8302  -18.7134  -51.4814 H         1 UNK         0.1150 
    138 H138        4.2909  -16.6925  -48.6151 H         1 UNK         0.1150 
    139 H139        2.9089  -19.9862  -49.7217 H         1 UNK         0.0800 
    140 H140        4.2408  -19.2654  -48.8387 H         1 UNK         0.0800 
    141 H141        2.5660  -20.3066  -45.7388 H         1 UNK         0.0800 
    142 H142        3.3716  -21.0039  -47.1078 H         1 UNK         0.0800 
    143 H143        1.3380  -22.2781  -46.1029 H         1 UNK         0.0600 
    144 H144        0.0117  -19.8715  -46.6463 H         1 UNK         0.3000 
    145 H145       -3.2597  -20.9588  -47.2991 H         1 UNK         0.0600 
    146 H146       -3.8401  -19.5051  -45.3793 H         1 UNK         0.0600 
    147 H147       -3.2047  -21.0382  -44.8021 H         1 UNK         0.0600 
    148 H148       -2.1901  -19.6006  -44.7690 H         1 UNK         0.0600 
    149 H149       -2.2001  -18.3509  -46.9302 H         1 UNK         0.3000 
    150 H150       -0.7445  -17.8797  -50.1486 H         1 UNK         0.0600 
    151 H151       -3.1439  -17.4779  -50.5329 H         1 UNK         0.0600 
    152 H152       -2.3295  -15.9615  -50.1829 H         1 UNK         0.0600 
    153 H153       -3.3223  -16.7387  -48.9496 H         1 UNK         0.0600 
    154 H154        0.4192  -16.8366  -48.6473 H         1 UNK         0.3000 
    155 H155        1.2271  -16.0956  -46.7597 H         1 UNK         0.0600 
    156 H156        0.9820  -13.7017  -46.0274 H         1 UNK         0.0600 
    157 H157       -0.7583  -13.8090  -46.2622 H         1 UNK         0.0600 
    158 H158        0.3216  -13.9539  -47.6380 H         1 UNK         0.0600 
    159 H159        0.2475  -15.2148  -44.3354 H         1 UNK         0.3000 
    160 H160       -0.4673  -18.2167  -42.5927 H         1 UNK         0.0600 
    161 H161        1.9106  -16.3010  -42.3552 H         1 UNK         0.0600 
    162 H162        2.0180  -18.0480  -42.4994 H         1 UNK         0.0600 
    163 H163        1.2770  -17.3311  -41.0757 H         1 UNK         0.0600 
    164 H164       -0.3273  -15.3054  -42.1528 H         1 UNK         0.3000 
    165 H165       -3.8052  -14.8060  -42.4269 H         1 UNK         0.0600 
    166 H166       -2.2783  -15.0479  -39.7771 H         1 UNK         0.0600 
    167 H167       -3.7408  -14.0981  -40.0446 H         1 UNK         0.0600 
    168 H168       -3.7966  -15.8495  -40.1620 H         1 UNK         0.0600 
    169 H169       -1.5557  -13.3099  -41.3409 H         1 UNK         0.3000 
    170 H170       -0.4323  -11.9870  -44.3806 H         1 UNK         0.0600 
    171 H171       -2.4022  -10.4802  -44.0807 H         1 UNK         0.0600 
    172 H172       -2.1274  -10.4426  -42.3433 H         1 UNK         0.0600 
    173 H173       -0.9402   -9.7436  -43.4457 H         1 UNK         0.0600 
    174 H174        0.1006  -11.2680  -41.6659 H         1 UNK         0.3000 
    175 H175        2.1448  -11.9166  -40.7692 H         1 UNK         0.0600 
    176 H176        0.1807  -13.1382  -39.7063 H         1 UNK         0.0600 
    177 H177        1.6887  -13.5654  -38.9321 H         1 UNK         0.0600 
    178 H178        0.9496  -14.6766  -40.0799 H         1 UNK         0.0600 
    179 H179        3.2190  -14.1742  -42.1529 H         1 UNK         0.3000 
    180 H180        6.2216  -14.3374  -40.0947 H         1 UNK         0.0600 
    181 H181        4.3374  -16.2615  -41.5544 H         1 UNK         0.0600 
    182 H182        4.7785  -16.3257  -39.8562 H         1 UNK         0.0600 
    183 H183        6.0020  -16.5938  -41.0879 H         1 UNK         0.0600 
    184 H184        5.4540  -14.4968  -42.9516 H         1 UNK         0.3000 
    185 H185        7.3776  -11.7325  -43.8879 H         1 UNK         0.0600 
    186 H186        8.8883  -13.2235  -45.1826 H         1 UNK         0.0600 
    187 H187        9.3611  -13.1905  -43.4918 H         1 UNK         0.0600 
    188 H188        8.4899  -14.5805  -44.1276 H         1 UNK         0.0600 
    189 H189        6.3898  -14.0829  -45.2819 H         1 UNK         0.3000 
    190 H190        0.1556  -21.0166  -49.1994 H         1 UNK         0.3000 
    191 H191        1.4657  -23.2240  -50.7152 H         1 UNK         0.0600 
    192 H192        1.7131  -21.0067  -51.7162 H         1 UNK         0.0600 
    193 H193        0.6169  -21.9560  -52.7014 H         1 UNK         0.0600 
    194 H194       -0.0268  -20.7129  -51.6376 H         1 UNK         0.0600 
    195 H195       -1.7173  -21.8071  -49.9087 H         1 UNK         0.3000 
    196 H196       -3.2514  -23.7297  -51.3527 H         1 UNK         0.0600 
    197 H197       -5.1400  -22.4581  -50.5680 H         1 UNK         0.0600 
    198 H198       -3.8678  -21.2991  -50.8818 H         1 UNK         0.0600 
    199 H199       -4.2272  -21.7605  -49.2293 H         1 UNK         0.0600 
    200 H200       -1.8166  -25.4177  -50.0627 H         1 UNK         0.3000 
    201 H201       -2.5511  -26.2739  -47.4772 H         1 UNK         0.0600 
    202 H202       -0.4435  -26.9216  -48.6160 H         1 UNK         0.0600 
    203 H203       -1.3432  -27.8568  -49.8103 H         1 UNK         0.0600 
    204 H204       -1.3248  -28.3593  -48.1233 H         1 UNK         0.0600 
    205 H205       -4.2506  -26.7215  -50.4615 H         1 UNK         0.3000 
    206 H206       -5.8853  -29.0023  -49.6458 H         1 UNK         0.0600 
    207 H207       -5.3167  -28.6503  -52.0272 H         1 UNK         0.0600 
    208 H208       -7.0532  -28.5120  -51.7988 H         1 UNK         0.0600 
    209 H209       -6.0776  -27.0622  -52.0034 H         1 UNK         0.0600 
    210 H210       -6.1311  -27.6203  -47.5551 H         1 UNK         0.3000 
    211 H211       -7.4393  -26.6572  -46.0400 H         1 UNK         0.0600 
    212 H212       -9.7322  -27.4691  -47.9050 H         1 UNK         0.0600 
    213 H213       -9.8494  -27.1913  -46.1716 H         1 UNK         0.0600 
    214 H214       -8.9147  -28.5477  -46.7748 H         1 UNK         0.0600 
    215 H215       -6.4238  -24.8095  -48.0642 H         1 UNK         0.3000 
    216 H216       -6.4785  -22.7411  -48.7536 H         1 UNK         0.0600 
    217 H217       -6.9516  -22.1692  -46.3678 H         1 UNK         0.0600 
    218 H218       -8.6800  -22.1514  -46.7205 H         1 UNK         0.0600 
    219 H219       -7.6097  -20.9875  -47.4852 H         1 UNK         0.0600 
    220 H220       -8.5873  -24.8161  -49.8025 H         1 UNK         0.3000 
    221 H221      -10.5521  -23.0012  -51.0828 H         1 UNK         0.0600 
    222 H222      -10.3547  -26.0574  -50.9977 H         1 UNK         0.0600 
    223 H223      -11.3433  -25.0686  -49.9243 H         1 UNK         0.0600 
    224 H224      -11.6939  -25.1191  -51.6457 H         1 UNK         0.0600 
    225 H225       -7.5461  -24.6100  -51.8202 H         1 UNK         0.3000 
    226 H226       -7.5837  -23.7052  -54.5666 H         1 UNK         0.0600 
    227 H227       -8.7369  -25.9128  -54.8323 H         1 UNK         0.0600 
    228 H228       -7.1204  -26.0044  -55.5053 H         1 UNK         0.0600 
    229 H229       -7.4561  -26.7175  -53.9329 H         1 UNK         0.0600 
    230 H230       -5.4578  -24.2621  -55.5806 H         1 UNK         0.3000 
    231 H231       -3.2777  -24.1679  -55.7408 H         1 UNK         0.0600 
    232 H232       -1.7951  -25.3615  -54.1927 H         1 UNK         0.0600 
    233 H233       -3.2399  -26.3176  -54.4729 H         1 UNK         0.0600 
    234 H234       -3.0419  -25.4332  -52.9627 H         1 UNK         0.0600 
    235 H235       -4.8393  -21.9648  -54.4114 H         1 UNK         0.3000 
    236 H236       -2.9532  -20.4758  -52.7807 H         1 UNK         0.0600 
    237 H237       -4.7156  -18.7229  -52.9097 H         1 UNK         0.0600 
    238 H238       -5.5385  -19.6005  -54.1941 H         1 UNK         0.0600 
    239 H239       -5.4597  -20.2717  -52.5670 H         1 UNK         0.0600 
    240 H240       -2.6184  -18.0843  -53.4752 H         1 UNK         0.3000 
    241 H241       -0.6601  -18.0754  -55.4616 H         1 UNK         0.0600 
    242 H242       -4.0891  -17.5857  -56.0828 H         1 UNK         0.3800 
    243 H243       -3.8726  -16.9188  -57.6793 H         1 UNK         0.3800 
    244 H244       -0.4200  -15.6689  -54.9976 H         1 UNK         0.0800 
    245 H245       -1.9947  -15.6077  -54.2601 H         1 UNK         0.0800 
    246 H246        1.6121  -15.7302  -53.7361 H         1 UNK         0.0800 
    247 H247        1.6046  -17.4795  -53.7547 H         1 UNK         0.0800 
@<TRIPOS>BOND
     1    1    2 1    
     2    1  127 1    
     3    1  128 1    
     4    1  129 1    
     5    2    3 2    
     6    2    4 am   BACKBONE|DICT|INTERRES
     7    4    5 1    
     8    4  130 1    
     9    5    6 1    
    10    5   65 1    
    11    5  131 1    
    12    6    7 1    
    13    6  132 1    
    14    6  133 1    
    15    7    8 1    
    16    8    9 1    
    17    8  134 1    
    18    8  135 1    
    19    9   10 ar   
    20    9   14 ar   
    21   10   11 ar   
    22   10  136 1    
    23   11   12 ar   
    24   11  126 1    
    25   12   13 ar   
    26   12  137 1    
    27   13   14 ar   
    28   13   15 1    
    29   14  138 1    
    30   15   16 1    
    31   15  139 1    
    32   15  140 1    
    33   16   17 1    
    34   17   18 1    
    35   17  141 1    
    36   17  142 1    
    37   18   19 1    
    38   18   67 1    
    39   18  143 1    
    40   19   20 am   BACKBONE|DICT|INTERRES
    41   19  144 1    
    42   20   21 2    
    43   20   22 1    
    44   22   23 1    
    45   22   24 1    
    46   22  145 1    
    47   23  146 1    
    48   23  147 1    
    49   23  148 1    
    50   24   25 am   BACKBONE|DICT|INTERRES
    51   24  149 1    
    52   25   26 2    
    53   25   27 1    
    54   27   28 1    
    55   27   29 1    
    56   27  150 1    
    57   28  151 1    
    58   28  152 1    
    59   28  153 1    
    60   29   30 am   BACKBONE|DICT|INTERRES
    61   29  154 1    
    62   30   31 2    
    63   30   32 1    
    64   32   33 1    
    65   32   34 1    
    66   32  155 1    
    67   33  156 1    
    68   33  157 1    
    69   33  158 1    
    70   34   35 am   BACKBONE|DICT|INTERRES
    71   34  159 1    
    72   35   36 2    
    73   35   37 1    
    74   37   38 1    
    75   37   39 1    
    76   37  160 1    
    77   38  161 1    
    78   38  162 1    
    79   38  163 1    
    80   39   40 am   BACKBONE|DICT|INTERRES
    81   39  164 1    
    82   40   41 2    
    83   40   42 1    
    84   42   43 1    
    85   42   44 1    
    86   42  165 1    
    87   43  166 1    
    88   43  167 1    
    89   43  168 1    
    90   44   45 am   BACKBONE|DICT|INTERRES
    91   44  169 1    
    92   45   46 2    
    93   45   47 1    
    94   47   48 1    
    95   47   49 1    
    96   47  170 1    
    97   48  171 1    
    98   48  172 1    
    99   48  173 1    
   100   49   50 am   BACKBONE|DICT|INTERRES
   101   49  174 1    
   102   50   51 2    
   103   50   52 1    
   104   52   53 1    
   105   52   54 1    
   106   52  175 1    
   107   53  176 1    
   108   53  177 1    
   109   53  178 1    
   110   54   55 am   BACKBONE|DICT|INTERRES
   111   54  179 1    
   112   55   56 2    
   113   55   57 1    
   114   57   58 1    
   115   57   59 1    
   116   57  180 1    
   117   58  181 1    
   118   58  182 1    
   119   58  183 1    
   120   59   60 am   BACKBONE|DICT|INTERRES
   121   59  184 1    
   122   60   61 2    
   123   60   62 1    
   124   62   63 1    
   125   62   64 1    
   126   62  185 1    
   127   63  186 1    
   128   63  187 1    
   129   63  188 1    
   130   64   65 am   BACKBONE|DICT|INTERRES
   131   64  189 1    
   132   65   66 2    
   133   67   68 2    
   134   67   69 am   BACKBONE|DICT|INTERRES
   135   69   70 1    
   136   69  190 1    
   137   70   71 1    
   138   70   72 1    
   139   70  191 1    
   140   71  192 1    
   141   71  193 1    
   142   71  194 1    
   143   72   73 2    
   144   72   74 am   BACKBONE|DICT|INTERRES
   145   74   75 1    
   146   74  195 1    
   147   75   76 1    
   148   75   77 1    
   149   75  196 1    
   150   76  197 1    
   151   76  198 1    
   152   76  199 1    
   153   77   78 2    
   154   77   79 am   BACKBONE|DICT|INTERRES
   155   79   80 1    
   156   79  200 1    
   157   80   81 1    
   158   80   82 1    
   159   80  201 1    
   160   81  202 1    
   161   81  203 1    
   162   81  204 1    
   163   82   83 2    
   164   82   84 am   BACKBONE|DICT|INTERRES
   165   84   85 1    
   166   84  205 1    
   167   85   86 1    
   168   85   87 1    
   169   85  206 1    
   170   86  207 1    
   171   86  208 1    
   172   86  209 1    
   173   87   88 2    
   174   87   89 am   BACKBONE|DICT|INTERRES
   175   89   90 1    
   176   89  210 1    
   177   90   91 1    
   178   90   92 1    
   179   90  211 1    
   180   91  212 1    
   181   91  213 1    
   182   91  214 1    
   183   92   93 2    
   184   92   94 am   BACKBONE|DICT|INTERRES
   185   94   95 1    
   186   94  215 1    
   187   95   96 1    
   188   95   97 1    
   189   95  216 1    
   190   96  217 1    
   191   96  218 1    
   192   96  219 1    
   193   97   98 2    
   194   97   99 am   BACKBONE|DICT|INTERRES
   195   99  100 1    
   196   99  220 1    
   197  100  101 1    
   198  100  102 1    
   199  100  221 1    
   200  101  222 1    
   201  101  223 1    
   202  101  224 1    
   203  102  103 2    
   204  102  104 am   BACKBONE|DICT|INTERRES
   205  104  105 1    
   206  104  225 1    
   207  105  106 1    
   208  105  107 1    
   209  105  226 1    
   210  106  227 1    
   211  106  228 1    
   212  106  229 1    
   213  107  108 2    
   214  107  109 am   BACKBONE|DICT|INTERRES
   215  109  110 1    
   216  109  230 1    
   217  110  111 1    
   218  110  112 1    
   219  110  231 1    
   220  111  232 1    
   221  111  233 1    
   222  111  234 1    
   223  112  113 2    
   224  112  114 am   BACKBONE|DICT|INTERRES
   225  114  115 1    
   226  114  235 1    
   227  115  116 1    
   228  115  117 1    
   229  115  236 1    
   230  116  237 1    
   231  116  238 1    
   232  116  239 1    
   233  117  118 2    
   234  117  119 am   BACKBONE|DICT|INTERRES
   235  119  120 1    
   236  119  240 1    
   237  120  121 1    
   238  120  124 1    
   239  120  241 1    
   240  121  122 am   BACKBONE|DICT|INTERRES
   241  121  123 2    
   242  122  242 1    
   243  122  243 1    
   244  124  125 1    
   245  124  244 1    
   246  124  245 1    
   247  125  126 1    
   248  126  246 1    
   249  126  247 1    
@<TRIPOS>SUBSTRUCTURE
     1 UNK         1 GROUP             0       ****    0 ROOT    
