@<TRIPOS>MOLECULE
3R540
247   249    1
SMALL
USER_CHARGES


@<TRIPOS>ATOM
      1 CA         -3.8686  -14.1528  -45.7078 C.3       0 UNK        -0.1800 
      2 C          -2.9266  -13.4034  -46.6404 C.2       0 UNK         0.5000 
      3 O          -3.2429  -12.2924  -47.0662 O.2       0 UNK        -0.5000 
      4 N          -1.7758  -14.0058  -46.9585 N.am      1 UNK        -0.5000 
      5 CA         -0.7262  -13.4205  -47.7969 C.3       1 UNK         0.1400 
      6 C6          0.1321  -14.5130  -48.4870 C.3       23 UNK        -0.0398 
      7 S7          0.8542  -13.9756  -50.0796 S.3       23 UNK        -0.2404 
      8 C8         -0.5672  -14.0204  -51.2243 C.3       23 UNK        -0.0205 
      9 C9         -1.1853  -15.4053  -51.3238 C.ar      23 UNK        -0.0193 
     10 C10        -0.6493  -16.3655  -52.1876 C.ar      23 UNK        -0.1150 
     11 C11        -1.1973  -17.6510  -52.2436 C.ar      23 UNK        -0.0193 
     12 C12        -2.2714  -17.9760  -51.4106 C.ar      23 UNK        -0.1150 
     13 C13        -2.8146  -17.0237  -50.5454 C.ar      23 UNK        -0.0193 
     14 C14        -2.2868  -15.7317  -50.5294 C.ar      23 UNK        -0.1150 
     15 C15        -3.9481  -17.3963  -49.6056 C.3       23 UNK        -0.0205 
     16 S16        -3.4028  -17.2973  -47.8690 S.3       23 UNK        -0.2404 
     17 C17        -4.3128  -18.6700  -47.0911 C.3       23 UNK        -0.0398 
     18 CA         -3.3528  -19.6640  -46.3840 C.3       11 UNK         0.1400 
     19 N          -2.5812  -19.0865  -45.2782 N.am      11 UNK        -0.5000 
     20 C          -3.0216  -18.4338  -44.1947 C.2       10 UNK         0.5000 
     21 O          -4.2136  -18.2636  -43.9358 O.2       10 UNK        -0.5000 
     22 CA         -1.9528  -17.9009  -43.2196 C.3       10 UNK         0.1400 
     23 CB         -1.8569  -18.8155  -41.9883 C.3       10 UNK        -0.1800 
     24 N          -0.6228  -17.7913  -43.8199 N.am      10 UNK        -0.5000 
     25 C          -0.2441  -16.8717  -44.7177 C.2       9 UNK         0.5000 
     26 O          -0.9616  -15.9569  -45.1164 O.2       9 UNK        -0.5000 
     27 CA          1.1675  -17.0333  -45.3031 C.3       9 UNK         0.1400 
     28 CB          2.2307  -16.4556  -44.3559 C.3       9 UNK        -0.1800 
     29 N           1.4628  -18.4357  -45.5989 N.am      9 UNK        -0.5000 
     30 C           0.9643  -19.1025  -46.6507 C.2       8 UNK         0.5000 
     31 O           0.2601  -18.5833  -47.5146 O.2       8 UNK        -0.5000 
     32 CA          1.2854  -20.6052  -46.7505 C.3       8 UNK         0.1400 
     33 CB          2.5015  -20.8423  -47.6575 C.3       8 UNK        -0.1800 
     34 N           1.5291  -21.2236  -45.4466 N.am      8 UNK        -0.5000 
     35 C           0.5673  -21.5384  -44.5685 C.2       7 UNK         0.5000 
     36 O          -0.6348  -21.3726  -44.7757 O.2       7 UNK        -0.5000 
     37 CA          1.0362  -22.1028  -43.2143 C.3       7 UNK         0.1400 
     38 CB          1.2650  -23.6186  -43.3113 C.3       7 UNK        -0.1800 
     39 N           2.2370  -21.4532  -42.6758 N.am      7 UNK        -0.5000 
     40 C           2.3130  -20.1461  -42.3966 C.2       6 UNK         0.5000 
     41 O           1.4158  -19.3457  -42.6686 O.2       6 UNK        -0.5000 
     42 CA          3.6096  -19.6316  -41.7461 C.3       6 UNK         0.1400 
     43 CB          4.6689  -19.3419  -42.8207 C.3       6 UNK        -0.1800 
     44 N           3.3426  -18.3993  -41.0049 N.am      6 UNK        -0.5000 
     45 C           2.6620  -18.3359  -39.8528 C.2       5 UNK         0.5000 
     46 O           2.3683  -19.3304  -39.1867 O.2       5 UNK        -0.5000 
     47 CA          2.1802  -16.9423  -39.3933 C.3       5 UNK         0.1400 
     48 CB          2.3059  -16.7468  -37.8677 C.3       5 UNK        -0.1800 
     49 N           2.7712  -15.8130  -40.1257 N.am      5 UNK        -0.5000 
     50 C           4.0431  -15.3864  -40.0903 C.2       4 UNK         0.5000 
     51 O           4.9392  -15.9461  -39.4584 O.2       4 UNK        -0.5000 
     52 CA          4.3808  -14.1251  -40.9127 C.3       4 UNK         0.1400 
     53 CB          5.1006  -14.5149  -42.2138 C.3       4 UNK        -0.1800 
     54 N           3.2237  -13.2911  -41.2537 N.am      4 UNK        -0.5000 
     55 C           2.4559  -12.6115  -40.3887 C.2       3 UNK         0.5000 
     56 O           2.6315  -12.6356  -39.1699 O.2       3 UNK        -0.5000 
     57 CA          1.3118  -11.7534  -40.9772 C.3       3 UNK         0.1400 
     58 CB          1.2450  -10.3705  -40.3056 C.3       3 UNK        -0.1800 
     59 N           1.4204  -11.5589  -42.4270 N.am      3 UNK        -0.5000 
     60 C           0.9693  -12.4027  -43.3618 C.2       2 UNK         0.5000 
     61 O           0.3975  -13.4658  -43.1121 O.2       2 UNK        -0.5000 
     62 CA          1.2678  -12.0102  -44.8141 C.3       2 UNK         0.1400 
     63 CB          2.7493  -12.2725  -45.1535 C.3       2 UNK        -0.1800 
     64 N           0.4084  -12.7697  -45.7157 N.am      2 UNK        -0.5000 
     65 C           0.1562  -12.4466  -46.9910 C.2       1 UNK         0.5000 
     66 O           0.5889  -11.4285  -47.5334 O.2       1 UNK        -0.5000 
     67 C          -4.0987  -20.9479  -45.9835 C.2       11 UNK         0.5000 
     68 O          -3.9218  -21.9727  -46.6424 O.2       11 UNK        -0.5000 
     69 N          -4.9318  -20.8719  -44.9382 N.am      12 UNK        -0.5000 
     70 CA         -5.8721  -21.9152  -44.5218 C.3       12 UNK         0.1400 
     71 CB         -6.7037  -21.4011  -43.3373 C.3       12 UNK        -0.1800 
     72 C          -5.2081  -23.2591  -44.1761 C.2       12 UNK         0.5000 
     73 O          -5.7167  -24.3086  -44.5707 O.2       12 UNK        -0.5000 
     74 N          -4.0647  -23.1997  -43.4821 N.am      13 UNK        -0.5000 
     75 CA         -3.2891  -24.3693  -43.0643 C.3       13 UNK         0.1400 
     76 CB         -2.2737  -23.9364  -41.9988 C.3       13 UNK        -0.1800 
     77 C          -2.5895  -25.0947  -44.2309 C.2       13 UNK         0.5000 
     78 O          -2.3487  -26.2981  -44.1322 O.2       13 UNK        -0.5000 
     79 N          -2.2937  -24.3637  -45.3137 N.am      14 UNK        -0.5000 
     80 CA         -1.7041  -24.8940  -46.5445 C.3       14 UNK         0.1400 
     81 CB         -0.6776  -23.8806  -47.0751 C.3       14 UNK        -0.1800 
     82 C          -2.7599  -25.2018  -47.6235 C.2       14 UNK         0.5000 
     83 O          -2.3789  -25.5813  -48.7307 O.2       14 UNK        -0.5000 
     84 N          -4.0504  -24.9905  -47.3178 N.am      15 UNK        -0.5000 
     85 CA         -5.2016  -25.0943  -48.2245 C.3       15 UNK         0.1400 
     86 CB         -5.4628  -26.5657  -48.6070 C.3       15 UNK        -0.1800 
     87 C          -5.0717  -24.1600  -49.4492 C.2       15 UNK         0.5000 
     88 O          -5.3383  -24.5700  -50.5792 O.2       15 UNK        -0.5000 
     89 N          -4.6245  -22.9243  -49.1827 N.am      16 UNK        -0.5000 
     90 CA         -4.2917  -21.8535  -50.1280 C.3       16 UNK         0.1400 
     91 CB         -5.5022  -21.4477  -50.9943 C.3       16 UNK        -0.1800 
     92 C          -3.0139  -22.1145  -50.9529 C.2       16 UNK         0.5000 
     93 O          -2.7972  -21.4289  -51.9517 O.2       16 UNK        -0.5000 
     94 N          -2.1689  -23.0534  -50.4957 N.am      17 UNK        -0.5000 
     95 CA         -0.8413  -23.3904  -51.0175 C.3       17 UNK         0.1400 
     96 CB          0.1617  -22.2641  -50.6771 C.3       17 UNK        -0.1800 
     97 C          -0.8905  -23.7672  -52.5119 C.2       17 UNK         0.5000 
     98 O          -1.4754  -24.7969  -52.8539 O.2       17 UNK        -0.5000 
     99 N          -0.3200  -22.9226  -53.3812 N.am      18 UNK        -0.5000 
    100 CA        -0.3838  -23.0178  -54.8410 C.3       18 UNK         0.1400 
    101 CB         0.7636  -22.1833  -55.4384 C.3       18 UNK        -0.1800 
    102 C         -1.7659  -22.5877  -55.3801 C.2       18 UNK         0.5000 
    103 O         -1.8566  -21.6833  -56.2117 O.2       18 UNK        -0.5000 
    104 N         -2.8266  -23.2413  -54.8896 N.am      19 UNK        -0.5000 
    105 CA        -4.2368  -22.9137  -55.1151 C.3       19 UNK         0.1400 
    106 CB        -5.1040  -23.8865  -54.3041 C.3       19 UNK        -0.1800 
    107 C         -4.6694  -22.9096  -56.5935 C.2       19 UNK         0.5000 
    108 O         -5.5946  -22.1802  -56.9489 O.2       19 UNK        -0.5000 
    109 N         -3.9702  -23.6818  -57.4364 N.am      20 UNK        -0.5000 
    110 CA        -4.1439  -23.7050  -58.8904 C.3       20 UNK         0.1400 
    111 CB        -3.2938  -24.8429  -59.4757 C.3       20 UNK        -0.1800 
    112 C         -3.7969  -22.3654  -59.5745 C.2       20 UNK         0.5000 
    113 O         -4.3547  -22.0706  -60.6325 O.2       20 UNK        -0.5000 
    114 N         -2.8993  -21.5829  -58.9605 N.am      21 UNK        -0.5000 
    115 CA        -2.5233  -20.2402  -59.3961 C.3       21 UNK         0.1400 
    116 CB        -0.9924  -20.1059  -59.3470 C.3       21 UNK        -0.1800 
    117 C         -3.1863  -19.1723  -58.5106 C.2       21 UNK         0.5000 
    118 O         -3.6950  -18.1807  -59.0351 O.2       21 UNK        -0.5000 
    119 N         -3.1577  -19.3860  -57.1893 N.am      22 UNK        -0.5000 
    120 CA        -3.6384  -18.4359  -56.1746 C.3       22 UNK         0.1400 
    121 C         -5.1832  -18.3786  -56.0011 C.2       22 UNK         0.5000 
    122 N         -5.9561  -19.3470  -56.4747 N.am      22 UNK        -0.7600 
    123 O         -5.6970  -17.4192  -55.4327 O.2       22 UNK        -0.5000 
    124 C124       -2.9359  -18.6554  -54.8113 C.3       23 UNK        -0.0398 
    125 S125       -1.1303  -18.4013  -54.9159 S.3       23 UNK        -0.2404 
    126 C126       -0.6246  -18.6940  -53.1925 C.3       23 UNK        -0.0205 
    127 H127       -4.8545  -14.2430  -46.1636 H         1 UNK         0.0600 
    128 H128       -3.9726  -13.6142  -44.7662 H         1 UNK         0.0600 
    129 H129       -3.5085  -15.1580  -45.4873 H         1 UNK         0.0600 
    130 H130       -1.5514  -14.8889  -46.5040 H         1 UNK         0.3000 
    131 H131       -1.2226  -12.8366  -48.5742 H         1 UNK         0.0600 
    132 H132        0.9512  -14.8325  -47.8421 H         1 UNK         0.0800 
    133 H133       -0.4495  -15.4190  -48.6529 H         1 UNK         0.0800 
    134 H134       -1.3152  -13.2912  -50.9105 H         1 UNK         0.0800 
    135 H135       -0.2322  -13.6996  -52.2118 H         1 UNK         0.0800 
    136 H136        0.1964  -16.1150  -52.8127 H         1 UNK         0.1150 
    137 H137       -2.6842  -18.9727  -51.4351 H         1 UNK         0.1150 
    138 H138       -2.7015  -14.9958  -49.8544 H         1 UNK         0.1150 
    139 H139       -4.7903  -16.7201  -49.7585 H         1 UNK         0.0800 
    140 H140       -4.3079  -18.3983  -49.8407 H         1 UNK         0.0800 
    141 H141       -4.9068  -19.1865  -47.8461 H         1 UNK         0.0800 
    142 H142       -5.0359  -18.2482  -46.3924 H         1 UNK         0.0800 
    143 H143       -2.6054  -19.9717  -47.1180 H         1 UNK         0.0600 
    144 H144       -1.5844  -19.2386  -45.3382 H         1 UNK         0.3000 
    145 H145       -2.2671  -16.9074  -42.8935 H         1 UNK         0.0600 
    146 H146       -1.1416  -18.4263  -41.2632 H         1 UNK         0.0600 
    147 H147       -2.8203  -18.8987  -41.4839 H         1 UNK         0.0600 
    148 H148       -1.5390  -19.8227  -42.2620 H         1 UNK         0.0600 
    149 H149        0.0690  -18.4680  -43.5031 H         1 UNK         0.3000 
    150 H150        1.2111  -16.4690  -46.2353 H         1 UNK         0.0600 
    151 H151        2.0486  -15.3970  -44.1729 H         1 UNK         0.0600 
    152 H152        3.2298  -16.5442  -44.7825 H         1 UNK         0.0600 
    153 H153        2.2306  -16.9537  -43.3874 H         1 UNK         0.0600 
    154 H154        1.9760  -18.9490  -44.8978 H         1 UNK         0.3000 
    155 H155        0.4227  -21.0896  -47.2112 H         1 UNK         0.0600 
    156 H156        2.6873  -21.9077  -47.7955 H         1 UNK         0.0600 
    157 H157        3.4058  -20.3923  -47.2462 H         1 UNK         0.0600 
    158 H158        2.3400  -20.4118  -48.6468 H         1 UNK         0.0600 
    159 H159        2.4906  -21.3996  -45.1945 H         1 UNK         0.3000 
    160 H160        0.2352  -21.9200  -42.4970 H         1 UNK         0.0600 
    161 H161        2.1049  -23.8585  -43.9644 H         1 UNK         0.0600 
    162 H162        0.3856  -24.1243  -43.7119 H         1 UNK         0.0600 
    163 H163        1.4667  -24.0505  -42.3309 H         1 UNK         0.0600 
    164 H164        3.0143  -22.0552  -42.4446 H         1 UNK         0.3000 
    165 H165        3.9910  -20.3889  -41.0582 H         1 UNK         0.0600 
    166 H166        5.5909  -18.9702  -42.3731 H         1 UNK         0.0600 
    167 H167        4.9214  -20.2455  -43.3768 H         1 UNK         0.0600 
    168 H168        4.3244  -18.5989  -43.5408 H         1 UNK         0.0600 
    169 H169        3.5204  -17.5339  -41.4897 H         1 UNK         0.3000 
    170 H170        1.1160  -16.9150  -39.6322 H         1 UNK         0.0600 
    171 H171        1.7119  -17.4851  -37.3280 H         1 UNK         0.0600 
    172 H172        3.3366  -16.8493  -37.5278 H         1 UNK         0.0600 
    173 H173        1.9486  -15.7621  -37.5658 H         1 UNK         0.0600 
    174 H174        2.1260  -15.2825  -40.6940 H         1 UNK         0.3000 
    175 H175        5.0621  -13.5200  -40.3110 H         1 UNK         0.0600 
    176 H176        4.4586  -15.1039  -42.8692 H         1 UNK         0.0600 
    177 H177        5.4244  -13.6324  -42.7660 H         1 UNK         0.0600 
    178 H178        5.9912  -15.1099  -42.0064 H         1 UNK         0.0600 
    179 H179        3.0025  -13.2104  -42.2340 H         1 UNK         0.3000 
    180 H180        0.3787  -12.2769  -40.7583 H         1 UNK         0.0600 
    181 H181        0.4217   -9.7778  -40.7048 H         1 UNK         0.0600 
    182 H182        2.1672   -9.8071  -40.4532 H         1 UNK         0.0600 
    183 H183        1.0827  -10.4600  -39.2307 H         1 UNK         0.0600 
    184 H184        1.9040  -10.7218  -42.7211 H         1 UNK         0.3000 
    185 H185        1.0486  -10.9463  -44.9271 H         1 UNK         0.0600 
    186 H186        2.9898  -11.9450  -46.1649 H         1 UNK         0.0600 
    187 H187        3.4140  -11.7316  -44.4790 H         1 UNK         0.0600 
    188 H188        2.9981  -13.3316  -45.0809 H         1 UNK         0.0600 
    189 H189       -0.0330  -13.5814  -45.2979 H         1 UNK         0.3000 
    190 H190       -4.9744  -19.9867  -44.4411 H         1 UNK         0.3000 
    191 H191       -6.5496  -22.0943  -45.3593 H         1 UNK         0.0600 
    192 H192       -7.4265  -22.1502  -43.0112 H         1 UNK         0.0600 
    193 H193       -7.2644  -20.5064  -43.6087 H         1 UNK         0.0600 
    194 H194       -6.0750  -21.1548  -42.4806 H         1 UNK         0.0600 
    195 H195       -3.7040  -22.2930  -43.2238 H         1 UNK         0.3000 
    196 H196       -3.9738  -25.0857  -42.6050 H         1 UNK         0.0600 
    197 H197       -1.6359  -23.1363  -42.3678 H         1 UNK         0.0600 
    198 H198       -2.7756  -23.5758  -41.1009 H         1 UNK         0.0600 
    199 H199       -1.6306  -24.7660  -41.7017 H         1 UNK         0.0600 
    200 H200       -2.5397  -23.3819  -45.3234 H         1 UNK         0.3000 
    201 H201       -1.1765  -25.8274  -46.3386 H         1 UNK         0.0600 
    202 H202       -0.2162  -24.2255  -48.0006 H         1 UNK         0.0600 
    203 H203       -1.1382  -22.9122  -47.2742 H         1 UNK         0.0600 
    204 H204        0.1299  -23.7362  -46.3597 H         1 UNK         0.0600 
    205 H205       -4.2626  -24.6589  -46.3860 H         1 UNK         0.3000 
    206 H206       -6.0669  -24.7410  -47.6618 H         1 UNK         0.0600 
    207 H207       -5.5671  -27.1902  -47.7198 H         1 UNK         0.0600 
    208 H208       -6.3851  -26.6618  -49.1810 H         1 UNK         0.0600 
    209 H209       -4.6560  -26.9773  -49.2142 H         1 UNK         0.0600 
    210 H210       -4.4119  -22.7054  -48.2100 H         1 UNK         0.3000 
    211 H211       -4.0489  -20.9923  -49.5045 H         1 UNK         0.0600 
    212 H212       -5.2871  -20.5461  -51.5691 H         1 UNK         0.0600 
    213 H213       -6.3748  -21.2356  -50.3766 H         1 UNK         0.0600 
    214 H214       -5.7752  -22.2261  -51.7058 H         1 UNK         0.0600 
    215 H215       -2.4837  -23.6370  -49.7315 H         1 UNK         0.3000 
    216 H216       -0.5193  -24.2897  -50.4910 H         1 UNK         0.0600 
    217 H217        1.1660  -22.5106  -51.0238 H         1 UNK         0.0600 
    218 H218       -0.1212  -21.3081  -51.1186 H         1 UNK         0.0600 
    219 H219        0.2252  -22.1167  -49.5991 H         1 UNK         0.0600 
    220 H220        0.0930  -22.0793  -53.0125 H         1 UNK         0.3000 
    221 H221       -0.2299  -24.0582  -55.1339 H         1 UNK         0.0600 
    222 H222        1.7326  -22.5283  -55.0775 H         1 UNK         0.0600 
    223 H223        0.6670  -21.1267  -55.1847 H         1 UNK         0.0600 
    224 H224        0.7780  -22.2591  -56.5265 H         1 UNK         0.0600 
    225 H225       -2.6371  -23.9586  -54.1964 H         1 UNK         0.3000 
    226 H226       -4.3987  -21.9065  -54.7258 H         1 UNK         0.0600 
    227 H227       -4.9878  -24.9137  -54.6518 H         1 UNK         0.0600 
    228 H228       -4.8398  -23.8614  -53.2469 H         1 UNK         0.0600 
    229 H229       -6.1609  -23.6282  -54.3819 H         1 UNK         0.0600 
    230 H230       -3.2255  -24.2475  -57.0568 H         1 UNK         0.3000 
    231 H231       -5.1943  -23.9183  -59.0993 H         1 UNK         0.0600 
    232 H232       -2.2316  -24.6943  -59.2771 H         1 UNK         0.0600 
    233 H233       -3.4196  -24.9080  -60.5573 H         1 UNK         0.0600 
    234 H234       -3.5831  -25.8074  -59.0578 H         1 UNK         0.0600 
    235 H235       -2.5177  -21.8835  -58.0700 H         1 UNK         0.3000 
    236 H236       -2.8421  -20.0674  -60.4261 H         1 UNK         0.0600 
    237 H237       -0.6776  -19.1111  -59.6646 H         1 UNK         0.0600 
    238 H238       -0.6025  -20.2683  -58.3411 H         1 UNK         0.0600 
    239 H239       -0.5140  -20.8263  -60.0106 H         1 UNK         0.0600 
    240 H240       -2.6841  -20.2126  -56.8320 H         1 UNK         0.3000 
    241 H241       -3.3557  -17.4375  -56.5147 H         1 UNK         0.0600 
    242 H242       -6.9538  -19.2749  -56.3564 H         1 UNK         0.3800 
    243 H243       -5.5715  -20.1868  -56.8918 H         1 UNK         0.3800 
    244 H244       -3.1325  -19.6594  -54.4309 H         1 UNK         0.0800 
    245 H245       -3.3298  -17.9591  -54.0693 H         1 UNK         0.0800 
    246 H246        0.4645  -18.6775  -53.1345 H         1 UNK         0.0800 
    247 H247       -0.9321  -19.6979  -52.8972 H         1 UNK         0.0800 
@<TRIPOS>BOND
     1    1    2 1    
     2    1  127 1    
     3    1  128 1    
     4    1  129 1    
     5    2    3 2    
     6    2    4 am   BACKBONE|DICT|INTERRES
     7    4    5 1    
     8    4  130 1    
     9    5    6 1    
    10    5   65 1    
    11    5  131 1    
    12    6    7 1    
    13    6  132 1    
    14    6  133 1    
    15    7    8 1    
    16    8    9 1    
    17    8  134 1    
    18    8  135 1    
    19    9   10 ar   
    20    9   14 ar   
    21   10   11 ar   
    22   10  136 1    
    23   11   12 ar   
    24   11  126 1    
    25   12   13 ar   
    26   12  137 1    
    27   13   14 ar   
    28   13   15 1    
    29   14  138 1    
    30   15   16 1    
    31   15  139 1    
    32   15  140 1    
    33   16   17 1    
    34   17   18 1    
    35   17  141 1    
    36   17  142 1    
    37   18   19 1    
    38   18   67 1    
    39   18  143 1    
    40   19   20 am   BACKBONE|DICT|INTERRES
    41   19  144 1    
    42   20   21 2    
    43   20   22 1    
    44   22   23 1    
    45   22   24 1    
    46   22  145 1    
    47   23  146 1    
    48   23  147 1    
    49   23  148 1    
    50   24   25 am   BACKBONE|DICT|INTERRES
    51   24  149 1    
    52   25   26 2    
    53   25   27 1    
    54   27   28 1    
    55   27   29 1    
    56   27  150 1    
    57   28  151 1    
    58   28  152 1    
    59   28  153 1    
    60   29   30 am   BACKBONE|DICT|INTERRES
    61   29  154 1    
    62   30   31 2    
    63   30   32 1    
    64   32   33 1    
    65   32   34 1    
    66   32  155 1    
    67   33  156 1    
    68   33  157 1    
    69   33  158 1    
    70   34   35 am   BACKBONE|DICT|INTERRES
    71   34  159 1    
    72   35   36 2    
    73   35   37 1    
    74   37   38 1    
    75   37   39 1    
    76   37  160 1    
    77   38  161 1    
    78   38  162 1    
    79   38  163 1    
    80   39   40 am   BACKBONE|DICT|INTERRES
    81   39  164 1    
    82   40   41 2    
    83   40   42 1    
    84   42   43 1    
    85   42   44 1    
    86   42  165 1    
    87   43  166 1    
    88   43  167 1    
    89   43  168 1    
    90   44   45 am   BACKBONE|DICT|INTERRES
    91   44  169 1    
    92   45   46 2    
    93   45   47 1    
    94   47   48 1    
    95   47   49 1    
    96   47  170 1    
    97   48  171 1    
    98   48  172 1    
    99   48  173 1    
   100   49   50 am   BACKBONE|DICT|INTERRES
   101   49  174 1    
   102   50   51 2    
   103   50   52 1    
   104   52   53 1    
   105   52   54 1    
   106   52  175 1    
   107   53  176 1    
   108   53  177 1    
   109   53  178 1    
   110   54   55 am   BACKBONE|DICT|INTERRES
   111   54  179 1    
   112   55   56 2    
   113   55   57 1    
   114   57   58 1    
   115   57   59 1    
   116   57  180 1    
   117   58  181 1    
   118   58  182 1    
   119   58  183 1    
   120   59   60 am   BACKBONE|DICT|INTERRES
   121   59  184 1    
   122   60   61 2    
   123   60   62 1    
   124   62   63 1    
   125   62   64 1    
   126   62  185 1    
   127   63  186 1    
   128   63  187 1    
   129   63  188 1    
   130   64   65 am   BACKBONE|DICT|INTERRES
   131   64  189 1    
   132   65   66 2    
   133   67   68 2    
   134   67   69 am   BACKBONE|DICT|INTERRES
   135   69   70 1    
   136   69  190 1    
   137   70   71 1    
   138   70   72 1    
   139   70  191 1    
   140   71  192 1    
   141   71  193 1    
   142   71  194 1    
   143   72   73 2    
   144   72   74 am   BACKBONE|DICT|INTERRES
   145   74   75 1    
   146   74  195 1    
   147   75   76 1    
   148   75   77 1    
   149   75  196 1    
   150   76  197 1    
   151   76  198 1    
   152   76  199 1    
   153   77   78 2    
   154   77   79 am   BACKBONE|DICT|INTERRES
   155   79   80 1    
   156   79  200 1    
   157   80   81 1    
   158   80   82 1    
   159   80  201 1    
   160   81  202 1    
   161   81  203 1    
   162   81  204 1    
   163   82   83 2    
   164   82   84 am   BACKBONE|DICT|INTERRES
   165   84   85 1    
   166   84  205 1    
   167   85   86 1    
   168   85   87 1    
   169   85  206 1    
   170   86  207 1    
   171   86  208 1    
   172   86  209 1    
   173   87   88 2    
   174   87   89 am   BACKBONE|DICT|INTERRES
   175   89   90 1    
   176   89  210 1    
   177   90   91 1    
   178   90   92 1    
   179   90  211 1    
   180   91  212 1    
   181   91  213 1    
   182   91  214 1    
   183   92   93 2    
   184   92   94 am   BACKBONE|DICT|INTERRES
   185   94   95 1    
   186   94  215 1    
   187   95   96 1    
   188   95   97 1    
   189   95  216 1    
   190   96  217 1    
   191   96  218 1    
   192   96  219 1    
   193   97   98 2    
   194   97   99 am   BACKBONE|DICT|INTERRES
   195   99  100 1    
   196   99  220 1    
   197  100  101 1    
   198  100  102 1    
   199  100  221 1    
   200  101  222 1    
   201  101  223 1    
   202  101  224 1    
   203  102  103 2    
   204  102  104 am   BACKBONE|DICT|INTERRES
   205  104  105 1    
   206  104  225 1    
   207  105  106 1    
   208  105  107 1    
   209  105  226 1    
   210  106  227 1    
   211  106  228 1    
   212  106  229 1    
   213  107  108 2    
   214  107  109 am   BACKBONE|DICT|INTERRES
   215  109  110 1    
   216  109  230 1    
   217  110  111 1    
   218  110  112 1    
   219  110  231 1    
   220  111  232 1    
   221  111  233 1    
   222  111  234 1    
   223  112  113 2    
   224  112  114 am   BACKBONE|DICT|INTERRES
   225  114  115 1    
   226  114  235 1    
   227  115  116 1    
   228  115  117 1    
   229  115  236 1    
   230  116  237 1    
   231  116  238 1    
   232  116  239 1    
   233  117  118 2    
   234  117  119 am   BACKBONE|DICT|INTERRES
   235  119  120 1    
   236  119  240 1    
   237  120  121 1    
   238  120  124 1    
   239  120  241 1    
   240  121  122 am   BACKBONE|DICT|INTERRES
   241  121  123 2    
   242  122  242 1    
   243  122  243 1    
   244  124  125 1    
   245  124  244 1    
   246  124  245 1    
   247  125  126 1    
   248  126  246 1    
   249  126  247 1    
@<TRIPOS>SUBSTRUCTURE
     1 UNK         1 GROUP             0       ****    0 ROOT    
