@<TRIPOS>MOLECULE
3R540
247   249    1
SMALL
USER_CHARGES


@<TRIPOS>ATOM
      1 CA         -4.9137  -11.5651  -49.7134 C.3       0 UNK        -0.1800 
      2 C          -3.4899  -11.9990  -49.3964 C.2       0 UNK         0.5000 
      3 O          -2.5763  -11.7185  -50.1714 O.2       0 UNK        -0.5000 
      4 N          -3.3053  -12.6924  -48.2665 N.am      1 UNK        -0.5000 
      5 CA         -2.0104  -13.1660  -47.7651 C.3       1 UNK         0.1400 
      6 C6         -2.1626  -14.2790  -46.6944 C.3       23 UNK        -0.0398 
      7 S7         -3.3855  -13.8993  -45.3849 S.3       23 UNK        -0.2404 
      8 C8         -4.1730  -15.5213  -45.0675 C.3       23 UNK        -0.0205 
      9 C9         -4.9371  -16.1507  -46.2344 C.ar      23 UNK        -0.0193 
     10 C10        -5.5094  -15.3839  -47.2566 C.ar      23 UNK        -0.1150 
     11 C11        -6.2077  -15.9917  -48.3046 C.ar      23 UNK        -0.0193 
     12 C12        -6.3683  -17.3790  -48.3072 C.ar      23 UNK        -0.1150 
     13 C13        -5.8191  -18.1595  -47.2870 C.ar      23 UNK        -0.0193 
     14 C14        -5.1019  -17.5404  -46.2585 C.ar      23 UNK        -0.1150 
     15 C15        -6.0223  -19.6675  -47.2950 C.3       23 UNK        -0.0205 
     16 S16        -4.9203  -20.4902  -48.4852 S.3       23 UNK        -0.2404 
     17 C17        -3.3466  -20.5187  -47.5676 C.3       23 UNK        -0.0398 
     18 CA         -2.8700  -21.9445  -47.2214 C.3       11 UNK         0.1400 
     19 N          -1.4364  -21.9709  -46.9396 N.am      11 UNK        -0.5000 
     20 C          -0.6966  -23.0841  -46.8792 C.2       10 UNK         0.5000 
     21 O          -1.1413  -24.2103  -47.1039 O.2       10 UNK        -0.5000 
     22 CA          0.7758  -22.9095  -46.4655 C.3       10 UNK         0.1400 
     23 CB          1.6284  -22.4868  -47.6710 C.3       10 UNK        -0.1800 
     24 N           0.9499  -21.9443  -45.3758 N.am      10 UNK        -0.5000 
     25 C           0.4357  -22.0919  -44.1458 C.2       9 UNK         0.5000 
     26 O          -0.2149  -23.0737  -43.7948 O.2       9 UNK        -0.5000 
     27 CA          0.6378  -20.9380  -43.1489 C.3       9 UNK         0.1400 
     28 CB          2.0461  -20.9817  -42.5379 C.3       9 UNK        -0.1800 
     29 N           0.3929  -19.6234  -43.7396 N.am      9 UNK        -0.5000 
     30 C          -0.7811  -19.2147  -44.2432 C.2       8 UNK         0.5000 
     31 O          -1.8051  -19.8976  -44.2507 O.2       8 UNK        -0.5000 
     32 CA         -0.7929  -17.8292  -44.9132 C.3       8 UNK         0.1400 
     33 CB         -0.7687  -16.7142  -43.8560 C.3       8 UNK        -0.1800 
     34 N           0.3221  -17.6627  -45.8474 N.am      8 UNK        -0.5000 
     35 C           0.5409  -18.4504  -46.9106 C.2       7 UNK         0.5000 
     36 O          -0.2415  -19.3268  -47.2731 O.2       7 UNK        -0.5000 
     37 CA          1.8695  -18.2662  -47.6606 C.3       7 UNK         0.1400 
     38 CB          1.7633  -17.1514  -48.7086 C.3       7 UNK        -0.1800 
     39 N           2.9711  -17.9851  -46.7408 N.am      7 UNK        -0.5000 
     40 C           3.5209  -18.9003  -45.9301 C.2       6 UNK         0.5000 
     41 O           3.1776  -20.0818  -45.9036 O.2       6 UNK        -0.5000 
     42 CA          4.6081  -18.4027  -44.9597 C.3       6 UNK         0.1400 
     43 CB          5.9730  -18.3384  -45.6609 C.3       6 UNK        -0.1800 
     44 N           4.2921  -17.0923  -44.3894 N.am      6 UNK        -0.5000 
     45 C           3.2750  -16.8617  -43.5473 C.2       5 UNK         0.5000 
     46 O           2.5324  -17.7450  -43.1210 O.2       5 UNK        -0.5000 
     47 CA          3.0142  -15.3950  -43.1524 C.3       5 UNK         0.1400 
     48 CB          3.8153  -15.0241  -41.8962 C.3       5 UNK        -0.1800 
     49 N           3.3165  -14.4360  -44.2181 N.am      5 UNK        -0.5000 
     50 C           2.7442  -14.4137  -45.4283 C.2       4 UNK         0.5000 
     51 O           1.8762  -15.2125  -45.7846 O.2       4 UNK        -0.5000 
     52 CA          3.2389  -13.3150  -46.3869 C.3       4 UNK         0.1400 
     53 CB          2.9112  -13.6232  -47.8584 C.3       4 UNK        -0.1800 
     54 N           2.6898  -12.0090  -46.0196 N.am      4 UNK        -0.5000 
     55 C           3.1597  -11.2446  -45.0214 C.2       3 UNK         0.5000 
     56 O           4.1041  -11.5850  -44.3058 O.2       3 UNK        -0.5000 
     57 CA          2.5052   -9.8697  -44.7760 C.3       3 UNK         0.1400 
     58 CB          3.4704   -8.7401  -45.1707 C.3       3 UNK        -0.1800 
     59 N           1.2465   -9.6733  -45.4939 N.am      3 UNK        -0.5000 
     60 C           0.0548  -10.1401  -45.1019 C.2       2 UNK         0.5000 
     61 O          -0.1145  -10.8033  -44.0775 O.2       2 UNK        -0.5000 
     62 CA         -1.1583   -9.8237  -46.0058 C.3       2 UNK         0.1400 
     63 CB         -0.8613   -8.8151  -47.1389 C.3       2 UNK        -0.1800 
     64 N          -1.7589  -11.0374  -46.5643 N.am      2 UNK        -0.5000 
     65 C          -1.1341  -11.9997  -47.2611 C.2       1 UNK         0.5000 
     66 O           0.0661  -11.9773  -47.5347 O.2       1 UNK        -0.5000 
     67 C          -3.6854  -22.5876  -46.0801 C.2       11 UNK         0.5000 
     68 O          -4.5599  -23.4085  -46.3563 O.2       11 UNK        -0.5000 
     69 N          -3.3478  -22.2619  -44.8229 N.am      12 UNK        -0.5000 
     70 CA         -3.9489  -22.8454  -43.6189 C.3       12 UNK         0.1400 
     71 CB         -3.4514  -22.0887  -42.3786 C.3       12 UNK        -0.1800 
     72 C          -3.6844  -24.3582  -43.4783 C.2       12 UNK         0.5000 
     73 O          -4.5750  -25.0945  -43.0533 O.2       12 UNK        -0.5000 
     74 N          -2.4842  -24.7990  -43.8790 N.am      13 UNK        -0.5000 
     75 CA         -2.0785  -26.2045  -43.9659 C.3       13 UNK         0.1400 
     76 CB         -0.5444  -26.2745  -44.0364 C.3       13 UNK        -0.1800 
     77 C          -2.7042  -26.9579  -45.1591 C.2       13 UNK         0.5000 
     78 O          -2.5513  -28.1774  -45.2404 O.2       13 UNK        -0.5000 
     79 N          -3.3848  -26.2296  -46.0565 N.am      14 UNK        -0.5000 
     80 CA         -4.0509  -26.6980  -47.2717 C.3       14 UNK         0.1400 
     81 CB         -5.2158  -27.6527  -46.9360 C.3       14 UNK        -0.1800 
     82 C          -3.0708  -27.2716  -48.3138 C.2       14 UNK         0.5000 
     83 O          -3.3958  -28.2445  -48.9983 O.2       14 UNK        -0.5000 
     84 N          -1.8990  -26.6349  -48.4580 N.am      15 UNK        -0.5000 
     85 CA         -0.8842  -26.9492  -49.4677 C.3       15 UNK         0.1400 
     86 CB          0.4766  -26.4051  -48.9992 C.3       15 UNK        -0.1800 
     87 C          -1.2999  -26.3968  -50.8470 C.2       15 UNK         0.5000 
     88 O          -0.6793  -25.4637  -51.3622 O.2       15 UNK        -0.5000 
     89 N          -2.4025  -26.9422  -51.3810 N.am      16 UNK        -0.5000 
     90 CA         -3.0819  -26.5561  -52.6230 C.3       16 UNK         0.1400 
     91 CB         -2.2246  -26.9455  -53.8454 C.3       16 UNK        -0.1800 
     92 C          -3.5040  -25.0709  -52.6353 C.2       16 UNK         0.5000 
     93 O          -3.4025  -24.4148  -53.6708 O.2       16 UNK        -0.5000 
     94 N          -3.9235  -24.5586  -51.4667 N.am      17 UNK        -0.5000 
     95 CA         -4.2324  -23.1507  -51.1831 C.3       17 UNK         0.1400 
     96 CB         -5.5115  -22.7085  -51.9240 C.3       17 UNK        -0.1800 
     97 C          -3.0259  -22.2267  -51.4579 C.2       17 UNK         0.5000 
     98 O          -3.1584  -21.2279  -52.1647 O.2       17 UNK        -0.5000 
     99 N          -1.8557  -22.6248  -50.9338 N.am      18 UNK        -0.5000 
    100 CA        -0.5417  -22.0026  -51.1394 C.3       18 UNK         0.1400 
    101 CB        -0.4803  -20.6137  -50.4719 C.3       18 UNK        -0.1800 
    102 C         -0.1316  -21.9799  -52.6271 C.2       18 UNK         0.5000 
    103 O          0.3493  -20.9599  -53.1222 O.2       18 UNK        -0.5000 
    104 N         -0.3532  -23.1155  -53.3066 N.am      19 UNK        -0.5000 
    105 CA        -0.1853  -23.3304  -54.7478 C.3       19 UNK         0.1400 
    106 CB         1.3066  -23.2863  -55.1392 C.3       19 UNK        -0.1800 
    107 C         -1.0697  -22.3827  -55.5889 C.2       19 UNK         0.5000 
    108 O         -0.5688  -21.6736  -56.4639 O.2       19 UNK        -0.5000 
    109 N         -2.3772  -22.4075  -55.2939 N.am      20 UNK        -0.5000 
    110 CA        -3.4608  -21.6398  -55.9119 C.3       20 UNK         0.1400 
    111 CB        -3.6929  -22.1073  -57.3640 C.3       20 UNK        -0.1800 
    112 C         -3.2623  -20.1158  -55.7861 C.2       20 UNK         0.5000 
    113 O         -3.2717  -19.4007  -56.7911 O.2       20 UNK        -0.5000 
    114 N         -3.0806  -19.6495  -54.5473 N.am      21 UNK        -0.5000 
    115 CA        -2.8890  -18.2472  -54.1954 C.3       21 UNK         0.1400 
    116 CB        -1.3768  -17.9470  -54.1162 C.3       21 UNK        -0.1800 
    117 C         -3.6666  -17.9378  -52.9019 C.2       21 UNK         0.5000 
    118 O         -4.7839  -18.4297  -52.7299 O.2       21 UNK        -0.5000 
    119 N         -3.0722  -17.1205  -52.0299 N.am      22 UNK        -0.5000 
    120 CA        -3.5538  -16.7769  -50.6908 C.3       22 UNK         0.1400 
    121 C         -2.3512  -16.8353  -49.7210 C.2       22 UNK         0.5000 
    122 N         -2.5179  -17.4438  -48.5576 N.am      22 UNK        -0.7600 
    123 O         -1.2793  -16.3078  -50.0051 O.2       22 UNK        -0.5000 
    124 C124       -4.2274  -15.3793  -50.6604 C.3       23 UNK        -0.0398 
    125 S125       -6.0065  -15.4768  -51.0518 S.3       23 UNK        -0.2404 
    126 C126       -6.7858  -15.1450  -49.4328 C.3       23 UNK        -0.0205 
    127 H127       -5.5957  -11.7792  -48.8902 H         1 UNK         0.0600 
    128 H128       -5.2748  -12.0864  -50.6001 H         1 UNK         0.0600 
    129 H129       -4.9456  -10.4933  -49.9088 H         1 UNK         0.0600 
    130 H130       -4.0889  -12.8715  -47.6564 H         1 UNK         0.3000 
    131 H131       -1.4767  -13.6096  -48.6091 H         1 UNK         0.0600 
    132 H132       -2.4734  -15.1951  -47.1899 H         1 UNK         0.0800 
    133 H133       -1.1991  -14.5104  -46.2375 H         1 UNK         0.0800 
    134 H134       -4.8693  -15.4014  -44.2367 H         1 UNK         0.0800 
    135 H135       -3.4053  -16.2101  -44.7205 H         1 UNK         0.0800 
    136 H136       -5.4161  -14.3095  -47.2408 H         1 UNK         0.1150 
    137 H137       -6.9141  -17.8529  -49.1115 H         1 UNK         0.1150 
    138 H138       -4.6819  -18.1418  -45.4640 H         1 UNK         0.1150 
    139 H139       -5.8758  -20.0892  -46.2992 H         1 UNK         0.0800 
    140 H140       -7.0556  -19.8874  -47.5670 H         1 UNK         0.0800 
    141 H141       -3.3895  -19.8881  -46.6786 H         1 UNK         0.0800 
    142 H142       -2.6153  -20.0570  -48.2281 H         1 UNK         0.0800 
    143 H143       -3.0178  -22.5649  -48.1076 H         1 UNK         0.0600 
    144 H144       -0.9853  -21.0733  -46.7865 H         1 UNK         0.3000 
    145 H145        1.1377  -23.8780  -46.1149 H         1 UNK         0.0600 
    146 H146        2.6840  -22.4291  -47.4055 H         1 UNK         0.0600 
    147 H147        1.5386  -23.2031  -48.4877 H         1 UNK         0.0600 
    148 H148        1.3270  -21.5124  -48.0550 H         1 UNK         0.0600 
    149 H149        1.5231  -21.1300  -45.5744 H         1 UNK         0.3000 
    150 H150       -0.0830  -21.0722  -42.3399 H         1 UNK         0.0600 
    151 H151        2.2426  -21.9508  -42.0778 H         1 UNK         0.0600 
    152 H152        2.1620  -20.2242  -41.7626 H         1 UNK         0.0600 
    153 H153        2.8179  -20.8114  -43.2885 H         1 UNK         0.0600 
    154 H154        1.1764  -18.9764  -43.7394 H         1 UNK         0.3000 
    155 H155       -1.7180  -17.7421  -45.4859 H         1 UNK         0.0600 
    156 H156        0.1103  -16.7790  -43.2177 H         1 UNK         0.0600 
    157 H157       -1.6401  -16.7782  -43.2037 H         1 UNK         0.0600 
    158 H158       -0.7735  -15.7258  -44.3126 H         1 UNK         0.0600 
    159 H159        0.9816  -16.9139  -45.6548 H         1 UNK         0.3000 
    160 H160        2.0923  -19.1971  -48.1858 H         1 UNK         0.0600 
    161 H161        2.7232  -16.9616  -49.1886 H         1 UNK         0.0600 
    162 H162        1.4091  -16.2161  -48.2750 H         1 UNK         0.0600 
    163 H163        1.0611  -17.4338  -49.4932 H         1 UNK         0.0600 
    164 H164        3.2579  -17.0212  -46.6574 H         1 UNK         0.3000 
    165 H165        4.6785  -19.1224  -44.1412 H         1 UNK         0.0600 
    166 H166        6.7622  -18.0599  -44.9622 H         1 UNK         0.0600 
    167 H167        6.2407  -19.3086  -46.0817 H         1 UNK         0.0600 
    168 H168        5.9753  -17.6146  -46.4768 H         1 UNK         0.0600 
    169 H169        4.8597  -16.3120  -44.6851 H         1 UNK         0.3000 
    170 H170        1.9526  -15.2993  -42.9187 H         1 UNK         0.0600 
    171 H171        3.5916  -15.7061  -41.0746 H         1 UNK         0.0600 
    172 H172        4.8901  -15.0675  -42.0765 H         1 UNK         0.0600 
    173 H173        3.5722  -14.0170  -41.5567 H         1 UNK         0.0600 
    174 H174        3.9679  -13.6925  -43.9938 H         1 UNK         0.3000 
    175 H175        4.3274  -13.2724  -46.3077 H         1 UNK         0.0600 
    176 H176        1.8427  -13.7605  -48.0220 H         1 UNK         0.0600 
    177 H177        3.2500  -12.8222  -48.5154 H         1 UNK         0.0600 
    178 H178        3.4080  -14.5387  -48.1804 H         1 UNK         0.0600 
    179 H179        1.8652  -11.7113  -46.5309 H         1 UNK         0.3000 
    180 H180        2.3138   -9.7903  -43.7037 H         1 UNK         0.0600 
    181 H181        3.7040   -8.7644  -46.2359 H         1 UNK         0.0600 
    182 H182        4.4124   -8.8202  -44.6264 H         1 UNK         0.0600 
    183 H183        3.0481   -7.7616  -44.9410 H         1 UNK         0.0600 
    184 H184        1.2988   -9.1618  -46.3630 H         1 UNK         0.3000 
    185 H185       -1.9108   -9.3755  -45.3555 H         1 UNK         0.0600 
    186 H186       -0.4733   -7.8760  -46.7420 H         1 UNK         0.0600 
    187 H187       -1.7708   -8.5749  -47.6898 H         1 UNK         0.0600 
    188 H188       -0.1383   -9.2018  -47.8581 H         1 UNK         0.0600 
    189 H189       -2.7404  -11.1682  -46.3665 H         1 UNK         0.3000 
    190 H190       -2.6355  -21.5516  -44.6706 H         1 UNK         0.3000 
    191 H191       -5.0295  -22.7060  -43.6892 H         1 UNK         0.0600 
    192 H192       -3.9056  -22.4853  -41.4698 H         1 UNK         0.0600 
    193 H193       -3.7058  -21.0301  -42.4345 H         1 UNK         0.0600 
    194 H194       -2.3698  -22.1670  -42.2670 H         1 UNK         0.0600 
    195 H195       -1.7753  -24.1141  -44.1288 H         1 UNK         0.3000 
    196 H196       -2.4016  -26.7127  -43.0553 H         1 UNK         0.0600 
    197 H197       -0.1972  -27.3081  -44.0607 H         1 UNK         0.0600 
    198 H198       -0.0874  -25.8006  -43.1676 H         1 UNK         0.0600 
    199 H199       -0.1622  -25.7786  -44.9293 H         1 UNK         0.0600 
    200 H200       -3.4431  -25.2313  -45.8987 H         1 UNK         0.3000 
    201 H201       -4.4856  -25.8106  -47.7332 H         1 UNK         0.0600 
    202 H202       -5.8906  -27.2076  -46.2048 H         1 UNK         0.0600 
    203 H203       -4.8619  -28.6018  -46.5328 H         1 UNK         0.0600 
    204 H204       -5.8056  -27.8769  -47.8255 H         1 UNK         0.0600 
    205 H205       -1.7050  -25.8250  -47.8721 H         1 UNK         0.3000 
    206 H206       -0.7950  -28.0339  -49.5567 H         1 UNK         0.0600 
    207 H207        0.7455  -26.8021  -48.0202 H         1 UNK         0.0600 
    208 H208        1.2681  -26.6858  -49.6949 H         1 UNK         0.0600 
    209 H209        0.4743  -25.3178  -48.9299 H         1 UNK         0.0600 
    210 H210       -2.8634  -27.6617  -50.8312 H         1 UNK         0.3000 
    211 H211       -4.0056  -27.1345  -52.6669 H         1 UNK         0.0600 
    212 H212       -1.2859  -26.3924  -53.8751 H         1 UNK         0.0600 
    213 H213       -2.7536  -26.7463  -54.7781 H         1 UNK         0.0600 
    214 H214       -1.9839  -28.0085  -53.8325 H         1 UNK         0.0600 
    215 H215       -3.9721  -25.1865  -50.6784 H         1 UNK         0.3000 
    216 H216       -4.4348  -23.0856  -50.1135 H         1 UNK         0.0600 
    217 H217       -5.7958  -21.6957  -51.6350 H         1 UNK         0.0600 
    218 H218       -6.3507  -23.3616  -51.6857 H         1 UNK         0.0600 
    219 H219       -5.3791  -22.7127  -53.0062 H         1 UNK         0.0600 
    220 H220       -1.8347  -23.5072  -50.4430 H         1 UNK         0.3000 
    221 H221        0.1834  -22.6424  -50.6346 H         1 UNK         0.0600 
    222 H222       -1.1674  -19.9034  -50.9329 H         1 UNK         0.0600 
    223 H223       -0.7311  -20.6858  -49.4169 H         1 UNK         0.0600 
    224 H224        0.5219  -20.1888  -50.5348 H         1 UNK         0.0600 
    225 H225       -0.7189  -23.9045  -52.7841 H         1 UNK         0.3000 
    226 H226       -0.5442  -24.3399  -54.9509 H         1 UNK         0.0600 
    227 H227        1.4409  -23.5526  -56.1882 H         1 UNK         0.0600 
    228 H228        1.7371  -22.2948  -54.9972 H         1 UNK         0.0600 
    229 H229        1.8892  -23.9928  -54.5480 H         1 UNK         0.0600 
    230 H230       -2.6830  -23.0555  -54.5686 H         1 UNK         0.3000 
    231 H231       -4.3615  -21.8783  -55.3443 H         1 UNK         0.0600 
    232 H232       -3.8768  -23.1809  -57.4064 H         1 UNK         0.0600 
    233 H233       -2.8375  -21.8880  -58.0037 H         1 UNK         0.0600 
    234 H234       -4.5620  -21.6122  -57.7986 H         1 UNK         0.0600 
    235 H235       -3.1269  -20.2891  -53.7539 H         1 UNK         0.3000 
    236 H236       -3.3258  -17.6107  -54.9674 H         1 UNK         0.0600 
    237 H237       -0.8705  -18.2428  -55.0354 H         1 UNK         0.0600 
    238 H238       -1.1856  -16.8824  -53.9781 H         1 UNK         0.0600 
    239 H239       -0.9036  -18.4859  -53.2941 H         1 UNK         0.0600 
    240 H240       -2.1351  -16.7957  -52.2262 H         1 UNK         0.3000 
    241 H241       -4.2690  -17.5340  -50.3612 H         1 UNK         0.0600 
    242 H242       -3.4098  -17.8375  -48.3016 H         1 UNK         0.3800 
    243 H243       -1.7241  -17.5453  -47.9468 H         1 UNK         0.3800 
    244 H244       -4.1183  -14.9110  -49.6833 H         1 UNK         0.0800 
    245 H245       -3.7445  -14.6973  -51.3620 H         1 UNK         0.0800 
    246 H246       -6.6854  -14.0826  -49.2079 H         1 UNK         0.0800 
    247 H247       -7.8563  -15.3386  -49.5110 H         1 UNK         0.0800 
@<TRIPOS>BOND
     1    1    2 1    
     2    1  127 1    
     3    1  128 1    
     4    1  129 1    
     5    2    3 2    
     6    2    4 am   BACKBONE|DICT|INTERRES
     7    4    5 1    
     8    4  130 1    
     9    5    6 1    
    10    5   65 1    
    11    5  131 1    
    12    6    7 1    
    13    6  132 1    
    14    6  133 1    
    15    7    8 1    
    16    8    9 1    
    17    8  134 1    
    18    8  135 1    
    19    9   10 ar   
    20    9   14 ar   
    21   10   11 ar   
    22   10  136 1    
    23   11   12 ar   
    24   11  126 1    
    25   12   13 ar   
    26   12  137 1    
    27   13   14 ar   
    28   13   15 1    
    29   14  138 1    
    30   15   16 1    
    31   15  139 1    
    32   15  140 1    
    33   16   17 1    
    34   17   18 1    
    35   17  141 1    
    36   17  142 1    
    37   18   19 1    
    38   18   67 1    
    39   18  143 1    
    40   19   20 am   BACKBONE|DICT|INTERRES
    41   19  144 1    
    42   20   21 2    
    43   20   22 1    
    44   22   23 1    
    45   22   24 1    
    46   22  145 1    
    47   23  146 1    
    48   23  147 1    
    49   23  148 1    
    50   24   25 am   BACKBONE|DICT|INTERRES
    51   24  149 1    
    52   25   26 2    
    53   25   27 1    
    54   27   28 1    
    55   27   29 1    
    56   27  150 1    
    57   28  151 1    
    58   28  152 1    
    59   28  153 1    
    60   29   30 am   BACKBONE|DICT|INTERRES
    61   29  154 1    
    62   30   31 2    
    63   30   32 1    
    64   32   33 1    
    65   32   34 1    
    66   32  155 1    
    67   33  156 1    
    68   33  157 1    
    69   33  158 1    
    70   34   35 am   BACKBONE|DICT|INTERRES
    71   34  159 1    
    72   35   36 2    
    73   35   37 1    
    74   37   38 1    
    75   37   39 1    
    76   37  160 1    
    77   38  161 1    
    78   38  162 1    
    79   38  163 1    
    80   39   40 am   BACKBONE|DICT|INTERRES
    81   39  164 1    
    82   40   41 2    
    83   40   42 1    
    84   42   43 1    
    85   42   44 1    
    86   42  165 1    
    87   43  166 1    
    88   43  167 1    
    89   43  168 1    
    90   44   45 am   BACKBONE|DICT|INTERRES
    91   44  169 1    
    92   45   46 2    
    93   45   47 1    
    94   47   48 1    
    95   47   49 1    
    96   47  170 1    
    97   48  171 1    
    98   48  172 1    
    99   48  173 1    
   100   49   50 am   BACKBONE|DICT|INTERRES
   101   49  174 1    
   102   50   51 2    
   103   50   52 1    
   104   52   53 1    
   105   52   54 1    
   106   52  175 1    
   107   53  176 1    
   108   53  177 1    
   109   53  178 1    
   110   54   55 am   BACKBONE|DICT|INTERRES
   111   54  179 1    
   112   55   56 2    
   113   55   57 1    
   114   57   58 1    
   115   57   59 1    
   116   57  180 1    
   117   58  181 1    
   118   58  182 1    
   119   58  183 1    
   120   59   60 am   BACKBONE|DICT|INTERRES
   121   59  184 1    
   122   60   61 2    
   123   60   62 1    
   124   62   63 1    
   125   62   64 1    
   126   62  185 1    
   127   63  186 1    
   128   63  187 1    
   129   63  188 1    
   130   64   65 am   BACKBONE|DICT|INTERRES
   131   64  189 1    
   132   65   66 2    
   133   67   68 2    
   134   67   69 am   BACKBONE|DICT|INTERRES
   135   69   70 1    
   136   69  190 1    
   137   70   71 1    
   138   70   72 1    
   139   70  191 1    
   140   71  192 1    
   141   71  193 1    
   142   71  194 1    
   143   72   73 2    
   144   72   74 am   BACKBONE|DICT|INTERRES
   145   74   75 1    
   146   74  195 1    
   147   75   76 1    
   148   75   77 1    
   149   75  196 1    
   150   76  197 1    
   151   76  198 1    
   152   76  199 1    
   153   77   78 2    
   154   77   79 am   BACKBONE|DICT|INTERRES
   155   79   80 1    
   156   79  200 1    
   157   80   81 1    
   158   80   82 1    
   159   80  201 1    
   160   81  202 1    
   161   81  203 1    
   162   81  204 1    
   163   82   83 2    
   164   82   84 am   BACKBONE|DICT|INTERRES
   165   84   85 1    
   166   84  205 1    
   167   85   86 1    
   168   85   87 1    
   169   85  206 1    
   170   86  207 1    
   171   86  208 1    
   172   86  209 1    
   173   87   88 2    
   174   87   89 am   BACKBONE|DICT|INTERRES
   175   89   90 1    
   176   89  210 1    
   177   90   91 1    
   178   90   92 1    
   179   90  211 1    
   180   91  212 1    
   181   91  213 1    
   182   91  214 1    
   183   92   93 2    
   184   92   94 am   BACKBONE|DICT|INTERRES
   185   94   95 1    
   186   94  215 1    
   187   95   96 1    
   188   95   97 1    
   189   95  216 1    
   190   96  217 1    
   191   96  218 1    
   192   96  219 1    
   193   97   98 2    
   194   97   99 am   BACKBONE|DICT|INTERRES
   195   99  100 1    
   196   99  220 1    
   197  100  101 1    
   198  100  102 1    
   199  100  221 1    
   200  101  222 1    
   201  101  223 1    
   202  101  224 1    
   203  102  103 2    
   204  102  104 am   BACKBONE|DICT|INTERRES
   205  104  105 1    
   206  104  225 1    
   207  105  106 1    
   208  105  107 1    
   209  105  226 1    
   210  106  227 1    
   211  106  228 1    
   212  106  229 1    
   213  107  108 2    
   214  107  109 am   BACKBONE|DICT|INTERRES
   215  109  110 1    
   216  109  230 1    
   217  110  111 1    
   218  110  112 1    
   219  110  231 1    
   220  111  232 1    
   221  111  233 1    
   222  111  234 1    
   223  112  113 2    
   224  112  114 am   BACKBONE|DICT|INTERRES
   225  114  115 1    
   226  114  235 1    
   227  115  116 1    
   228  115  117 1    
   229  115  236 1    
   230  116  237 1    
   231  116  238 1    
   232  116  239 1    
   233  117  118 2    
   234  117  119 am   BACKBONE|DICT|INTERRES
   235  119  120 1    
   236  119  240 1    
   237  120  121 1    
   238  120  124 1    
   239  120  241 1    
   240  121  122 am   BACKBONE|DICT|INTERRES
   241  121  123 2    
   242  122  242 1    
   243  122  243 1    
   244  124  125 1    
   245  124  244 1    
   246  124  245 1    
   247  125  126 1    
   248  126  246 1    
   249  126  247 1    
@<TRIPOS>SUBSTRUCTURE
     1 UNK         1 GROUP             0       ****    0 ROOT    
