@<TRIPOS>MOLECULE
3R540
247   249    1
SMALL
USER_CHARGES


@<TRIPOS>ATOM
      1 CA         -3.6153  -15.4811  -51.3328 C.3       0 UNK        -0.1800 
      2 C          -2.7837  -15.2001  -50.0885 C.2       0 UNK         0.5000 
      3 O          -3.0255  -15.8000  -49.0416 O.2       0 UNK        -0.5000 
      4 N          -1.7975  -14.3018  -50.2084 N.am      1 UNK        -0.5000 
      5 CA         -0.8752  -13.8772  -49.1456 C.3       1 UNK         0.1400 
      6 C6          0.0311  -15.0239  -48.6035 C.3       23 UNK        -0.0398 
      7 S7          0.8940  -15.9780  -49.8973 S.3       23 UNK        -0.2404 
      8 C8          0.0771  -17.5929  -49.7115 C.3       23 UNK        -0.0205 
      9 C9          0.8867  -18.6957  -50.3630 C.ar      23 UNK        -0.0193 
     10 C10         0.6029  -19.1199  -51.6628 C.ar      23 UNK        -0.1150 
     11 C11         1.3715  -20.1225  -52.2627 C.ar      23 UNK        -0.0193 
     12 C12         2.4098  -20.7195  -51.5386 C.ar      23 UNK        -0.1150 
     13 C13         2.6928  -20.3080  -50.2315 C.ar      23 UNK        -0.0193 
     14 C14         1.9319  -19.2900  -49.6544 C.ar      23 UNK        -0.1150 
     15 C15         3.8404  -20.9354  -49.4547 C.3       23 UNK        -0.0205 
     16 S16         3.3060  -22.3730  -48.4740 S.3       23 UNK        -0.2404 
     17 C17         2.6038  -21.5999  -46.9734 C.3       23 UNK        -0.0398 
     18 CA          1.2707  -22.2569  -46.5433 C.3       11 UNK         0.1400 
     19 N           1.0235  -22.1367  -45.1041 N.am      11 UNK        -0.5000 
     20 C           0.1024  -22.8532  -44.4435 C.2       10 UNK         0.5000 
     21 O          -0.6149  -23.6982  -44.9772 O.2       10 UNK        -0.5000 
     22 CA         -0.0805  -22.5545  -42.9468 C.3       10 UNK         0.1400 
     23 CB          1.0244  -23.2264  -42.1185 C.3       10 UNK        -0.1800 
     24 N          -0.1206  -21.1209  -42.6608 N.am      10 UNK        -0.5000 
     25 C          -1.0687  -20.2852  -43.1086 C.2       9 UNK         0.5000 
     26 O          -2.0345  -20.6475  -43.7808 O.2       9 UNK        -0.5000 
     27 CA         -0.8849  -18.7893  -42.7890 C.3       9 UNK         0.1400 
     28 CB         -1.3182  -18.4798  -41.3482 C.3       9 UNK        -0.1800 
     29 N           0.4903  -18.3335  -42.9913 N.am      9 UNK        -0.5000 
     30 C           1.1370  -18.3499  -44.1663 C.2       8 UNK         0.5000 
     31 O           0.6367  -18.7247  -45.2261 O.2       8 UNK        -0.5000 
     32 CA          2.6179  -17.9416  -44.1359 C.3       8 UNK         0.1400 
     33 CB          2.7705  -16.4134  -44.0668 C.3       8 UNK        -0.1800 
     34 N           3.3265  -18.5705  -43.0202 N.am      8 UNK        -0.5000 
     35 C           3.5556  -19.8885  -42.9199 C.2       7 UNK         0.5000 
     36 O           3.2216  -20.7077  -43.7757 O.2       7 UNK        -0.5000 
     37 CA          4.2361  -20.3775  -41.6286 C.3       7 UNK         0.1400 
     38 CB          5.7599  -20.2106  -41.7228 C.3       7 UNK        -0.1800 
     39 N           3.7443  -19.6850  -40.4371 N.am      7 UNK        -0.5000 
     40 C           2.4957  -19.7888  -39.9594 C.2       6 UNK         0.5000 
     41 O           1.6315  -20.5097  -40.4542 O.2       6 UNK        -0.5000 
     42 CA          2.1381  -18.8901  -38.7616 C.3       6 UNK         0.1400 
     43 CB          2.5290  -19.5669  -37.4397 C.3       6 UNK        -0.1800 
     44 N           2.7625  -17.5664  -38.8380 N.am      6 UNK        -0.5000 
     45 C           2.5276  -16.6794  -39.8123 C.2       5 UNK         0.5000 
     46 O           1.7487  -16.8799  -40.7508 O.2       5 UNK        -0.5000 
     47 CA          3.3307  -15.3748  -39.7572 C.3       5 UNK         0.1400 
     48 CB          4.7556  -15.5815  -40.2998 C.3       5 UNK        -0.1800 
     49 N           2.6326  -14.3972  -40.5757 N.am      5 UNK        -0.5000 
     50 C           2.6453  -13.0705  -40.4238 C.2       4 UNK         0.5000 
     51 O           3.3358  -12.4812  -39.5914 O.2       4 UNK        -0.5000 
     52 CA          1.7201  -12.2663  -41.3580 C.3       4 UNK         0.1400 
     53 CB          2.5233  -11.6555  -42.5167 C.3       4 UNK        -0.1800 
     54 N           0.6314  -13.0708  -41.9184 N.am      4 UNK        -0.5000 
     55 C          -0.4421  -13.5073  -41.2474 C.2       3 UNK         0.5000 
     56 O          -0.6483  -13.2533  -40.0597 O.2       3 UNK        -0.5000 
     57 CA         -1.4537  -14.3481  -42.0581 C.3       3 UNK         0.1400 
     58 CB         -2.7016  -14.7329  -41.2434 C.3       3 UNK        -0.1800 
     59 N          -1.8783  -13.6580  -43.2799 N.am      3 UNK        -0.5000 
     60 C          -1.1663  -13.5958  -44.4100 C.2       2 UNK         0.5000 
     61 O          -0.0658  -14.1400  -44.5507 O.2       2 UNK        -0.5000 
     62 CA         -1.7463  -12.7523  -45.5524 C.3       2 UNK         0.1400 
     63 CB         -1.4308  -11.2594  -45.3517 C.3       2 UNK        -0.1800 
     64 N          -1.1371  -13.2338  -46.7826 N.am      2 UNK        -0.5000 
     65 C          -1.6273  -13.1195  -48.0202 C.2       1 UNK         0.5000 
     66 O          -2.6254  -12.4458  -48.2910 O.2       1 UNK        -0.5000 
     67 C           0.0644  -21.7739  -47.3768 C.2       11 UNK         0.5000 
     68 O          -0.3044  -22.4498  -48.3351 O.2       11 UNK        -0.5000 
     69 N          -0.5795  -20.6719  -46.9588 N.am      12 UNK        -0.5000 
     70 CA         -1.8255  -20.1642  -47.5415 C.3       12 UNK         0.1400 
     71 CB         -2.2242  -18.8471  -46.8533 C.3       12 UNK        -0.1800 
     72 C          -2.9800  -21.1807  -47.4569 C.2       12 UNK         0.5000 
     73 O          -3.6937  -21.3779  -48.4415 O.2       12 UNK        -0.5000 
     74 N          -3.1246  -21.8305  -46.2940 N.am      13 UNK        -0.5000 
     75 CA         -4.1013  -22.8931  -46.0625 C.3       13 UNK         0.1400 
     76 CB         -4.1631  -23.2213  -44.5630 C.3       13 UNK        -0.1800 
     77 C          -3.8089  -24.1551  -46.8952 C.2       13 UNK         0.5000 
     78 O          -4.7284  -24.7006  -47.5056 O.2       13 UNK        -0.5000 
     79 N          -2.5377  -24.5797  -46.9250 N.am      14 UNK        -0.5000 
     80 CA         -2.0640  -25.7516  -47.6638 C.3       14 UNK         0.1400 
     81 CB         -0.6157  -26.0650  -47.2588 C.3       14 UNK        -0.1800 
     82 C          -2.1763  -25.5948  -49.1907 C.2       14 UNK         0.5000 
     83 O          -2.5942  -26.5362  -49.8662 O.2       14 UNK        -0.5000 
     84 N          -1.8168  -24.4113  -49.7060 N.am      15 UNK        -0.5000 
     85 CA         -1.9000  -24.0695  -51.1270 C.3       15 UNK         0.1400 
     86 CB         -0.9805  -22.8724  -51.4145 C.3       15 UNK        -0.1800 
     87 C          -3.3380  -23.7766  -51.5984 C.2       15 UNK         0.5000 
     88 O          -3.5827  -23.8130  -52.8023 O.2       15 UNK        -0.5000 
     89 N          -4.2498  -23.5067  -50.6528 N.am      16 UNK        -0.5000 
     90 CA         -5.6556  -23.1404  -50.8349 C.3       16 UNK         0.1400 
     91 CB         -6.4421  -24.2254  -51.6009 C.3       16 UNK        -0.1800 
     92 C          -5.7974  -21.7348  -51.4471 C.2       16 UNK         0.5000 
     93 O          -6.2794  -21.5801  -52.5704 O.2       16 UNK        -0.5000 
     94 N          -5.3885  -20.7297  -50.6614 N.am      17 UNK        -0.5000 
     95 CA         -5.4105  -19.2873  -50.9422 C.3       17 UNK         0.1400 
     96 CB         -4.8839  -18.5570  -49.6985 C.3       17 UNK        -0.1800 
     97 C          -6.7597  -18.6774  -51.3872 C.2       17 UNK         0.5000 
     98 O          -6.7723  -17.5431  -51.8663 O.2       17 UNK        -0.5000 
     99 N          -7.8661  -19.4164  -51.2299 N.am      18 UNK        -0.5000 
    100 CA        -9.1806  -19.0751  -51.7779 C.3       18 UNK         0.1400 
    101 CB       -10.2364  -19.9910  -51.1398 C.3       18 UNK        -0.1800 
    102 C         -9.2394  -19.1752  -53.3186 C.2       18 UNK         0.5000 
    103 O        -10.0587  -18.4922  -53.9352 O.2       18 UNK        -0.5000 
    104 N         -8.3790  -20.0166  -53.9065 N.am      19 UNK        -0.5000 
    105 CA        -8.1866  -20.1740  -55.3468 C.3       19 UNK         0.1400 
    106 CB        -8.0678  -21.6808  -55.6472 C.3       19 UNK        -0.1800 
    107 C         -6.9349  -19.3945  -55.8033 C.2       19 UNK         0.5000 
    108 O         -6.4062  -18.5717  -55.0522 O.2       19 UNK        -0.5000 
    109 N         -6.4602  -19.6763  -57.0270 N.am      20 UNK        -0.5000 
    110 CA        -5.1946  -19.1602  -57.5697 C.3       20 UNK         0.1400 
    111 CB        -5.0801  -19.5549  -59.0498 C.3       20 UNK        -0.1800 
    112 C         -3.9588  -19.6468  -56.7817 C.2       20 UNK         0.5000 
    113 O         -2.9595  -18.9299  -56.7084 O.2       20 UNK        -0.5000 
    114 N         -4.0881  -20.8350  -56.1740 N.am      21 UNK        -0.5000 
    115 CA        -3.2137  -21.4705  -55.1887 C.3       21 UNK         0.1400 
    116 CB        -3.0608  -20.5802  -53.9388 C.3       21 UNK        -0.1800 
    117 C         -1.8540  -21.9259  -55.7431 C.2       21 UNK         0.5000 
    118 O         -1.5758  -23.1254  -55.7635 O.2       21 UNK        -0.5000 
    119 N         -1.0233  -20.9663  -56.1567 N.am      22 UNK        -0.5000 
    120 CA         0.3286  -21.1981  -56.6769 C.3       22 UNK         0.1400 
    121 C          0.2995  -21.7092  -58.1445 C.2       22 UNK         0.5000 
    122 N          1.2303  -22.5741  -58.5243 N.am      22 UNK        -0.7600 
    123 O         -0.5306  -21.3004  -58.9540 O.2       22 UNK        -0.5000 
    124 C124        1.2073  -19.9258  -56.5599 C.3       23 UNK        -0.0398 
    125 S125        1.5277  -19.2489  -54.8833 S.3       23 UNK        -0.2404 
    126 C126        1.0735  -20.5542  -53.6908 C.3       23 UNK        -0.0205 
    127 H127       -4.6724  -15.3150  -51.1250 H         1 UNK         0.0600 
    128 H128       -3.4872  -16.5182  -51.6429 H         1 UNK         0.0600 
    129 H129       -3.3287  -14.8398  -52.1666 H         1 UNK         0.0600 
    130 H130       -1.6710  -13.8320  -51.0932 H         1 UNK         0.3000 
    131 H131       -0.2192  -13.1375  -49.6066 H         1 UNK         0.0600 
    132 H132       -0.5488  -15.7024  -47.9755 H         1 UNK         0.0800 
    133 H133        0.8122  -14.6151  -47.9606 H         1 UNK         0.0800 
    134 H134       -0.9296  -17.5532  -50.1292 H         1 UNK         0.0800 
    135 H135       -0.0310  -17.8262  -48.6532 H         1 UNK         0.0800 
    136 H136       -0.2011  -18.6565  -52.2174 H         1 UNK         0.1150 
    137 H137        3.0041  -21.4993  -51.9937 H         1 UNK         0.1150 
    138 H138        2.1554  -18.9462  -48.6551 H         1 UNK         0.1150 
    139 H139        4.6156  -21.2599  -50.1503 H         1 UNK         0.0800 
    140 H140        4.3121  -20.1971  -48.8043 H         1 UNK         0.0800 
    141 H141        2.4960  -20.5216  -47.0857 H         1 UNK         0.0800 
    142 H142        3.3512  -21.7384  -46.1918 H         1 UNK         0.0800 
    143 H143        1.3680  -23.3284  -46.7316 H         1 UNK         0.0600 
    144 H144        1.6062  -21.4815  -44.5913 H         1 UNK         0.3000 
    145 H145       -1.0379  -22.9807  -42.6398 H         1 UNK         0.0600 
    146 H146        0.8443  -23.1046  -41.0503 H         1 UNK         0.0600 
    147 H147        2.0065  -22.8093  -42.3420 H         1 UNK         0.0600 
    148 H148        1.0678  -24.2974  -42.3201 H         1 UNK         0.0600 
    149 H149        0.6126  -20.7586  -42.0576 H         1 UNK         0.3000 
    150 H150       -1.5244  -18.2211  -43.4676 H         1 UNK         0.0600 
    151 H151       -2.3632  -18.7483  -41.1893 H         1 UNK         0.0600 
    152 H152       -1.2153  -17.4192  -41.1223 H         1 UNK         0.0600 
    153 H153       -0.7226  -19.0317  -40.6208 H         1 UNK         0.0600 
    154 H154        0.9818  -17.9892  -42.1719 H         1 UNK         0.3000 
    155 H155        3.0782  -18.2853  -45.0648 H         1 UNK         0.0600 
    156 H156        2.2940  -15.9383  -44.9255 H         1 UNK         0.0600 
    157 H157        3.8200  -16.1195  -44.0738 H         1 UNK         0.0600 
    158 H158        2.3106  -15.9952  -43.1723 H         1 UNK         0.0600 
    159 H159        3.5862  -17.9734  -42.2505 H         1 UNK         0.3000 
    160 H160        4.0154  -21.4412  -41.5180 H         1 UNK         0.0600 
    161 H161        6.0479  -19.1619  -41.8066 H         1 UNK         0.0600 
    162 H162        6.1557  -20.7308  -42.5962 H         1 UNK         0.0600 
    163 H163        6.2567  -20.6264  -40.8460 H         1 UNK         0.0600 
    164 H164        4.3902  -19.0692  -39.9661 H         1 UNK         0.3000 
    165 H165        1.0551  -18.7500  -38.7663 H         1 UNK         0.0600 
    166 H166        2.2044  -18.9761  -36.5830 H         1 UNK         0.0600 
    167 H167        2.0617  -20.5487  -37.3513 H         1 UNK         0.0600 
    168 H168        3.6077  -19.7085  -37.3615 H         1 UNK         0.0600 
    169 H169        3.4166  -17.3326  -38.1047 H         1 UNK         0.3000 
    170 H170        3.3687  -15.0300  -38.7218 H         1 UNK         0.0600 
    171 H171        4.7461  -15.9267  -41.3345 H         1 UNK         0.0600 
    172 H172        5.3282  -14.6545  -40.2642 H         1 UNK         0.0600 
    173 H173        5.2999  -16.3195  -39.7096 H         1 UNK         0.0600 
    174 H174        1.9914  -14.8071  -41.2422 H         1 UNK         0.3000 
    175 H175        1.2843  -11.4535  -40.7735 H         1 UNK         0.0600 
    176 H176        2.9724  -12.4265  -43.1443 H         1 UNK         0.0600 
    177 H177        1.8906  -11.0334  -43.1502 H         1 UNK         0.0600 
    178 H178        3.3303  -11.0236  -42.1433 H         1 UNK         0.0600 
    179 H179        0.7076  -13.3307  -42.8967 H         1 UNK         0.3000 
    180 H180       -0.9445  -15.2741  -42.3347 H         1 UNK         0.0600 
    181 H181       -3.3654  -15.3763  -41.8212 H         1 UNK         0.0600 
    182 H182       -3.2689  -13.8539  -40.9354 H         1 UNK         0.0600 
    183 H183       -2.4278  -15.2811  -40.3409 H         1 UNK         0.0600 
    184 H184       -2.7506  -13.1519  -43.2234 H         1 UNK         0.3000 
    185 H185       -2.8265  -12.9070  -45.5943 H         1 UNK         0.0600 
    186 H186       -1.8684  -10.8872  -44.4246 H         1 UNK         0.0600 
    187 H187       -0.3559  -11.0796  -45.3033 H         1 UNK         0.0600 
    188 H188       -1.8344  -10.6558  -46.1647 H         1 UNK         0.0600 
    189 H189       -0.3211  -13.8078  -46.6081 H         1 UNK         0.3000 
    190 H190       -0.1979  -20.1412  -46.1799 H         1 UNK         0.3000 
    191 H191       -1.6369  -19.9604  -48.5974 H         1 UNK         0.0600 
    192 H192       -1.4331  -18.1017  -46.9124 H         1 UNK         0.0600 
    193 H193       -2.4520  -18.9953  -45.7984 H         1 UNK         0.0600 
    194 H194       -3.1101  -18.4123  -47.3159 H         1 UNK         0.0600 
    195 H195       -2.5289  -21.5766  -45.5121 H         1 UNK         0.3000 
    196 H196       -5.0812  -22.5169  -46.3641 H         1 UNK         0.0600 
    197 H197       -4.4447  -22.3440  -43.9803 H         1 UNK         0.0600 
    198 H198       -3.2042  -23.5768  -44.1859 H         1 UNK         0.0600 
    199 H199       -4.9032  -23.9970  -44.3632 H         1 UNK         0.0600 
    200 H200       -1.8474  -24.0951  -46.3564 H         1 UNK         0.3000 
    201 H201       -2.6862  -26.6002  -47.3721 H         1 UNK         0.0600 
    202 H202       -0.5381  -26.2580  -46.1887 H         1 UNK         0.0600 
    203 H203        0.0556  -25.2404  -47.5001 H         1 UNK         0.0600 
    204 H204       -0.2474  -26.9513  -47.7769 H         1 UNK         0.0600 
    205 H205       -1.4233  -23.6985  -49.0936 H         1 UNK         0.3000 
    206 H206       -1.5322  -24.9194  -51.7057 H         1 UNK         0.0600 
    207 H207       -1.3336  -21.9639  -50.9241 H         1 UNK         0.0600 
    208 H208       -0.9267  -22.6759  -52.4851 H         1 UNK         0.0600 
    209 H209        0.0374  -23.0613  -51.0727 H         1 UNK         0.0600 
    210 H210       -3.9205  -23.4762  -49.6969 H         1 UNK         0.3000 
    211 H211       -6.0815  -23.0885  -49.8316 H         1 UNK         0.0600 
    212 H212       -6.1254  -24.3111  -52.6405 H         1 UNK         0.0600 
    213 H213       -7.5078  -23.9944  -51.6087 H         1 UNK         0.0600 
    214 H214       -6.3236  -25.2020  -51.1317 H         1 UNK         0.0600 
    215 H215       -4.9382  -20.9838  -49.7845 H         1 UNK         0.3000 
    216 H216       -4.7113  -19.1000  -51.7571 H         1 UNK         0.0600 
    217 H217       -5.0148  -17.4783  -49.7785 H         1 UNK         0.0600 
    218 H218       -3.8184  -18.7416  -49.5656 H         1 UNK         0.0600 
    219 H219       -5.4005  -18.8772  -48.7931 H         1 UNK         0.0600 
    220 H220       -7.7691  -20.3333  -50.8211 H         1 UNK         0.3000 
    221 H221       -9.4102  -18.0434  -51.5035 H         1 UNK         0.0600 
    222 H222      -10.0494  -21.0409  -51.3690 H         1 UNK         0.0600 
    223 H223      -10.2518  -19.8804  -50.0553 H         1 UNK         0.0600 
    224 H224      -11.2353  -19.7481  -51.5044 H         1 UNK         0.0600 
    225 H225       -7.6955  -20.4965  -53.3268 H         1 UNK         0.3000 
    226 H226       -9.0450  -19.7767  -55.8918 H         1 UNK         0.0600 
    227 H227       -8.0418  -21.8779  -56.7191 H         1 UNK         0.0600 
    228 H228       -7.1661  -22.1090  -55.2068 H         1 UNK         0.0600 
    229 H229       -8.9217  -22.2274  -55.2464 H         1 UNK         0.0600 
    230 H230       -6.9575  -20.3406  -57.6022 H         1 UNK         0.3000 
    231 H231       -5.2183  -18.0704  -57.5052 H         1 UNK         0.0600 
    232 H232       -5.9085  -19.1506  -59.6317 H         1 UNK         0.0600 
    233 H233       -5.0738  -20.6379  -59.1792 H         1 UNK         0.0600 
    234 H234       -4.1582  -19.1676  -59.4860 H         1 UNK         0.0600 
    235 H235       -4.9466  -21.3352  -56.3510 H         1 UNK         0.3000 
    236 H236       -3.7483  -22.3701  -54.8853 H         1 UNK         0.0600 
    237 H237       -2.4914  -19.6723  -54.1387 H         1 UNK         0.0600 
    238 H238       -4.0390  -20.2821  -53.5671 H         1 UNK         0.0600 
    239 H239       -2.5567  -21.1124  -53.1343 H         1 UNK         0.0600 
    240 H240       -1.3833  -20.0189  -56.2099 H         1 UNK         0.3000 
    241 H241        0.7903  -21.9831  -56.0760 H         1 UNK         0.0600 
    242 H242        1.2322  -22.9026  -59.4778 H         1 UNK         0.3800 
    243 H243        1.9278  -22.9205  -57.8832 H         1 UNK         0.3800 
    244 H244        0.7713  -19.1221  -57.1561 H         1 UNK         0.0800 
    245 H245        2.1866  -20.1173  -57.0022 H         1 UNK         0.0800 
    246 H246        1.6073  -21.4747  -53.9300 H         1 UNK         0.0800 
    247 H247        0.0100  -20.7728  -53.7594 H         1 UNK         0.0800 
@<TRIPOS>BOND
     1    1    2 1    
     2    1  127 1    
     3    1  128 1    
     4    1  129 1    
     5    2    3 2    
     6    2    4 am   BACKBONE|DICT|INTERRES
     7    4    5 1    
     8    4  130 1    
     9    5    6 1    
    10    5   65 1    
    11    5  131 1    
    12    6    7 1    
    13    6  132 1    
    14    6  133 1    
    15    7    8 1    
    16    8    9 1    
    17    8  134 1    
    18    8  135 1    
    19    9   10 ar   
    20    9   14 ar   
    21   10   11 ar   
    22   10  136 1    
    23   11   12 ar   
    24   11  126 1    
    25   12   13 ar   
    26   12  137 1    
    27   13   14 ar   
    28   13   15 1    
    29   14  138 1    
    30   15   16 1    
    31   15  139 1    
    32   15  140 1    
    33   16   17 1    
    34   17   18 1    
    35   17  141 1    
    36   17  142 1    
    37   18   19 1    
    38   18   67 1    
    39   18  143 1    
    40   19   20 am   BACKBONE|DICT|INTERRES
    41   19  144 1    
    42   20   21 2    
    43   20   22 1    
    44   22   23 1    
    45   22   24 1    
    46   22  145 1    
    47   23  146 1    
    48   23  147 1    
    49   23  148 1    
    50   24   25 am   BACKBONE|DICT|INTERRES
    51   24  149 1    
    52   25   26 2    
    53   25   27 1    
    54   27   28 1    
    55   27   29 1    
    56   27  150 1    
    57   28  151 1    
    58   28  152 1    
    59   28  153 1    
    60   29   30 am   BACKBONE|DICT|INTERRES
    61   29  154 1    
    62   30   31 2    
    63   30   32 1    
    64   32   33 1    
    65   32   34 1    
    66   32  155 1    
    67   33  156 1    
    68   33  157 1    
    69   33  158 1    
    70   34   35 am   BACKBONE|DICT|INTERRES
    71   34  159 1    
    72   35   36 2    
    73   35   37 1    
    74   37   38 1    
    75   37   39 1    
    76   37  160 1    
    77   38  161 1    
    78   38  162 1    
    79   38  163 1    
    80   39   40 am   BACKBONE|DICT|INTERRES
    81   39  164 1    
    82   40   41 2    
    83   40   42 1    
    84   42   43 1    
    85   42   44 1    
    86   42  165 1    
    87   43  166 1    
    88   43  167 1    
    89   43  168 1    
    90   44   45 am   BACKBONE|DICT|INTERRES
    91   44  169 1    
    92   45   46 2    
    93   45   47 1    
    94   47   48 1    
    95   47   49 1    
    96   47  170 1    
    97   48  171 1    
    98   48  172 1    
    99   48  173 1    
   100   49   50 am   BACKBONE|DICT|INTERRES
   101   49  174 1    
   102   50   51 2    
   103   50   52 1    
   104   52   53 1    
   105   52   54 1    
   106   52  175 1    
   107   53  176 1    
   108   53  177 1    
   109   53  178 1    
   110   54   55 am   BACKBONE|DICT|INTERRES
   111   54  179 1    
   112   55   56 2    
   113   55   57 1    
   114   57   58 1    
   115   57   59 1    
   116   57  180 1    
   117   58  181 1    
   118   58  182 1    
   119   58  183 1    
   120   59   60 am   BACKBONE|DICT|INTERRES
   121   59  184 1    
   122   60   61 2    
   123   60   62 1    
   124   62   63 1    
   125   62   64 1    
   126   62  185 1    
   127   63  186 1    
   128   63  187 1    
   129   63  188 1    
   130   64   65 am   BACKBONE|DICT|INTERRES
   131   64  189 1    
   132   65   66 2    
   133   67   68 2    
   134   67   69 am   BACKBONE|DICT|INTERRES
   135   69   70 1    
   136   69  190 1    
   137   70   71 1    
   138   70   72 1    
   139   70  191 1    
   140   71  192 1    
   141   71  193 1    
   142   71  194 1    
   143   72   73 2    
   144   72   74 am   BACKBONE|DICT|INTERRES
   145   74   75 1    
   146   74  195 1    
   147   75   76 1    
   148   75   77 1    
   149   75  196 1    
   150   76  197 1    
   151   76  198 1    
   152   76  199 1    
   153   77   78 2    
   154   77   79 am   BACKBONE|DICT|INTERRES
   155   79   80 1    
   156   79  200 1    
   157   80   81 1    
   158   80   82 1    
   159   80  201 1    
   160   81  202 1    
   161   81  203 1    
   162   81  204 1    
   163   82   83 2    
   164   82   84 am   BACKBONE|DICT|INTERRES
   165   84   85 1    
   166   84  205 1    
   167   85   86 1    
   168   85   87 1    
   169   85  206 1    
   170   86  207 1    
   171   86  208 1    
   172   86  209 1    
   173   87   88 2    
   174   87   89 am   BACKBONE|DICT|INTERRES
   175   89   90 1    
   176   89  210 1    
   177   90   91 1    
   178   90   92 1    
   179   90  211 1    
   180   91  212 1    
   181   91  213 1    
   182   91  214 1    
   183   92   93 2    
   184   92   94 am   BACKBONE|DICT|INTERRES
   185   94   95 1    
   186   94  215 1    
   187   95   96 1    
   188   95   97 1    
   189   95  216 1    
   190   96  217 1    
   191   96  218 1    
   192   96  219 1    
   193   97   98 2    
   194   97   99 am   BACKBONE|DICT|INTERRES
   195   99  100 1    
   196   99  220 1    
   197  100  101 1    
   198  100  102 1    
   199  100  221 1    
   200  101  222 1    
   201  101  223 1    
   202  101  224 1    
   203  102  103 2    
   204  102  104 am   BACKBONE|DICT|INTERRES
   205  104  105 1    
   206  104  225 1    
   207  105  106 1    
   208  105  107 1    
   209  105  226 1    
   210  106  227 1    
   211  106  228 1    
   212  106  229 1    
   213  107  108 2    
   214  107  109 am   BACKBONE|DICT|INTERRES
   215  109  110 1    
   216  109  230 1    
   217  110  111 1    
   218  110  112 1    
   219  110  231 1    
   220  111  232 1    
   221  111  233 1    
   222  111  234 1    
   223  112  113 2    
   224  112  114 am   BACKBONE|DICT|INTERRES
   225  114  115 1    
   226  114  235 1    
   227  115  116 1    
   228  115  117 1    
   229  115  236 1    
   230  116  237 1    
   231  116  238 1    
   232  116  239 1    
   233  117  118 2    
   234  117  119 am   BACKBONE|DICT|INTERRES
   235  119  120 1    
   236  119  240 1    
   237  120  121 1    
   238  120  124 1    
   239  120  241 1    
   240  121  122 am   BACKBONE|DICT|INTERRES
   241  121  123 2    
   242  122  242 1    
   243  122  243 1    
   244  124  125 1    
   245  124  244 1    
   246  124  245 1    
   247  125  126 1    
   248  126  246 1    
   249  126  247 1    
@<TRIPOS>SUBSTRUCTURE
     1 UNK         1 GROUP             0       ****    0 ROOT    
