@<TRIPOS>MOLECULE
3R540
247   249    1
SMALL
USER_CHARGES


@<TRIPOS>ATOM
      1 CA          6.1116  -11.7786  -51.4386 C.3       0 UNK        -0.1800 
      2 C           6.0827  -12.1295  -49.9578 C.2       0 UNK         0.5000 
      3 O           7.1113  -12.0452  -49.2869 O.2       0 UNK        -0.5000 
      4 N           4.9085  -12.5177  -49.4448 N.am      1 UNK        -0.5000 
      5 CA          4.6857  -12.8967  -48.0433 C.3       1 UNK         0.1400 
      6 C6          3.4500  -13.8207  -47.8969 C.3       23 UNK        -0.0398 
      7 S7          1.8690  -13.0456  -48.3934 S.3       23 UNK        -0.2404 
      8 C8          0.6998  -14.4094  -48.1081 C.3       23 UNK        -0.0205 
      9 C9          0.8732  -15.5155  -49.1371 C.ar      23 UNK        -0.0193 
     10 C10         0.3864  -15.3489  -50.4360 C.ar      23 UNK        -0.1150 
     11 C11         0.5734  -16.3468  -51.3959 C.ar      23 UNK        -0.0193 
     12 C12         1.2408  -17.5238  -51.0448 C.ar      23 UNK        -0.1150 
     13 C13         1.7203  -17.7111  -49.7430 C.ar      23 UNK        -0.0193 
     14 C14         1.5361  -16.6974  -48.7990 C.ar      23 UNK        -0.1150 
     15 C15         2.4855  -18.9723  -49.3507 C.3       23 UNK        -0.0205 
     16 S16         1.7680  -20.5144  -50.0059 S.3       23 UNK        -0.2404 
     17 C17         0.1489  -20.5967  -49.1695 C.3       23 UNK        -0.0398 
     18 CA         -0.0074  -21.9175  -48.3694 C.3       11 UNK         0.1400 
     19 N           0.3177  -21.7672  -46.9482 N.am      11 UNK        -0.5000 
     20 C           0.4535  -22.7908  -46.0927 C.2       10 UNK         0.5000 
     21 O           0.3880  -23.9744  -46.4268 O.2       10 UNK        -0.5000 
     22 CA          0.6301  -22.4355  -44.6053 C.3       10 UNK         0.1400 
     23 CB          2.0826  -22.0431  -44.2967 C.3       10 UNK        -0.1800 
     24 N          -0.2819  -21.3735  -44.1750 N.am      10 UNK        -0.5000 
     25 C          -1.6172  -21.4965  -44.1513 C.2       9 UNK         0.5000 
     26 O          -2.2080  -22.5379  -44.4345 O.2       9 UNK        -0.5000 
     27 CA         -2.4372  -20.2453  -43.7899 C.3       9 UNK         0.1400 
     28 CB         -2.5227  -20.0750  -42.2662 C.3       9 UNK        -0.1800 
     29 N          -1.9124  -19.0223  -44.3969 N.am      9 UNK        -0.5000 
     30 C          -1.8473  -18.7853  -45.7154 C.2       8 UNK         0.5000 
     31 O          -2.2658  -19.5611  -46.5733 O.2       8 UNK        -0.5000 
     32 CA         -1.1319  -17.4934  -46.1520 C.3       8 UNK         0.1400 
     33 CB         -2.0555  -16.2753  -46.0090 C.3       8 UNK        -0.1800 
     34 N           0.1086  -17.2669  -45.4084 N.am      8 UNK        -0.5000 
     35 C           1.1514  -18.1105  -45.4096 C.2       7 UNK         0.5000 
     36 O           1.1951  -19.1432  -46.0766 O.2       7 UNK        -0.5000 
     37 CA          2.3229  -17.7632  -44.4792 C.3       7 UNK         0.1400 
     38 CB          3.2172  -16.6832  -45.1040 C.3       7 UNK        -0.1800 
     39 N           1.8487  -17.3210  -43.1693 N.am      7 UNK        -0.5000 
     40 C           1.2728  -18.1306  -42.2690 C.2       6 UNK         0.5000 
     41 O           1.1258  -19.3415  -42.4334 O.2       6 UNK        -0.5000 
     42 CA          0.7329  -17.4659  -40.9898 C.3       6 UNK         0.1400 
     43 CB          1.8539  -17.2912  -39.9546 C.3       6 UNK        -0.1800 
     44 N           0.1070  -16.1688  -41.2524 N.am      6 UNK        -0.5000 
     45 C          -1.0144  -16.0010  -41.9677 C.2       5 UNK         0.5000 
     46 O          -1.6577  -16.9278  -42.4563 O.2       5 UNK        -0.5000 
     47 CA         -1.4698  -14.5529  -42.2169 C.3       5 UNK         0.1400 
     48 CB         -2.3744  -14.0674  -41.0748 C.3       5 UNK        -0.1800 
     49 N          -0.3564  -13.6171  -42.3867 N.am      5 UNK        -0.5000 
     50 C           0.5343  -13.6640  -43.3854 C.2       4 UNK         0.5000 
     51 O           0.5422  -14.5340  -44.2605 O.2       4 UNK        -0.5000 
     52 CA          1.6078  -12.5617  -43.3930 C.3       4 UNK         0.1400 
     53 CB          3.0154  -13.1688  -43.2980 C.3       4 UNK        -0.1800 
     54 N           1.5120  -11.7312  -44.5918 N.am      4 UNK        -0.5000 
     55 C           0.4911  -10.9051  -44.8664 C.2       3 UNK         0.5000 
     56 O          -0.4566  -10.7262  -44.0989 O.2       3 UNK        -0.5000 
     57 CA          0.5283  -10.1610  -46.2201 C.3       3 UNK         0.1400 
     58 CB         -0.2838   -8.8486  -46.2086 C.3       3 UNK        -0.1800 
     59 N           1.8828   -9.9331  -46.7350 N.am      3 UNK        -0.5000 
     60 C           2.8619   -9.1969  -46.1849 C.2       2 UNK         0.5000 
     61 O           2.7363   -8.5522  -45.1426 O.2       2 UNK        -0.5000 
     62 CA          4.2110   -9.2007  -46.9404 C.3       2 UNK         0.1400 
     63 CB          5.4064   -8.8122  -46.0448 C.3       2 UNK        -0.1800 
     64 N           4.4663  -10.4681  -47.6400 N.am      2 UNK        -0.5000 
     65 C           4.5899  -11.6863  -47.0869 C.2       1 UNK         0.5000 
     66 O           4.5716  -11.8880  -45.8732 O.2       1 UNK        -0.5000 
     67 C          -1.3994  -22.5494  -48.5744 C.2       11 UNK         0.5000 
     68 O          -1.5288  -23.4455  -49.4052 O.2       11 UNK        -0.5000 
     69 N          -2.4038  -22.1186  -47.7979 N.am      12 UNK        -0.5000 
     70 CA         -3.7542  -22.6856  -47.8094 C.3       12 UNK         0.1400 
     71 CB         -4.6850  -21.8419  -46.9272 C.3       12 UNK        -0.1800 
     72 C          -3.7865  -24.1657  -47.3930 C.2       12 UNK         0.5000 
     73 O          -4.4608  -24.9612  -48.0456 O.2       12 UNK        -0.5000 
     74 N          -3.0249  -24.5222  -46.3497 N.am      13 UNK        -0.5000 
     75 CA         -2.8406  -25.8995  -45.8918 C.3       13 UNK         0.1400 
     76 CB         -2.0547  -25.9091  -44.5722 C.3       13 UNK        -0.1800 
     77 C          -2.1581  -26.7842  -46.9511 C.2       13 UNK         0.5000 
     78 O          -2.6408  -27.8848  -47.2209 O.2       13 UNK        -0.5000 
     79 N          -1.0864  -26.2690  -47.5722 N.am      14 UNK        -0.5000 
     80 CA         -0.3692  -26.9188  -48.6738 C.3       14 UNK         0.1400 
     81 CB          0.8995  -26.1177  -49.0021 C.3       14 UNK        -0.1800 
     82 C          -1.2379  -27.1070  -49.9339 C.2       14 UNK         0.5000 
     83 O          -1.1167  -28.1279  -50.6112 O.2       14 UNK        -0.5000 
     84 N          -2.1282  -26.1419  -50.1961 N.am      15 UNK        -0.5000 
     85 CA         -3.1170  -26.1554  -51.2743 C.3       15 UNK         0.1400 
     86 CB         -3.4557  -24.7039  -51.6512 C.3       15 UNK        -0.1800 
     87 C          -4.3923  -26.9628  -50.9403 C.2       15 UNK         0.5000 
     88 O          -5.3501  -26.9060  -51.7118 O.2       15 UNK        -0.5000 
     89 N          -4.3936  -27.6974  -49.8171 N.am      16 UNK        -0.5000 
     90 CA         -5.4524  -28.5925  -49.3390 C.3       16 UNK         0.1400 
     91 CB         -5.6510  -29.7787  -50.3065 C.3       16 UNK        -0.1800 
     92 C          -6.7635  -27.8549  -48.9973 C.2       16 UNK         0.5000 
     93 O          -7.8463  -28.2910  -49.3919 O.2       16 UNK        -0.5000 
     94 N          -6.6258  -26.7514  -48.2506 N.am      17 UNK        -0.5000 
     95 CA         -7.6795  -25.8780  -47.7229 C.3       17 UNK         0.1400 
     96 CB         -8.6939  -26.6550  -46.8567 C.3       17 UNK        -0.1800 
     97 C          -8.3464  -24.9840  -48.7874 C.2       17 UNK         0.5000 
     98 O          -9.4327  -24.4537  -48.5454 O.2       17 UNK        -0.5000 
     99 N          -7.6700  -24.7858  -49.9261 N.am      18 UNK        -0.5000 
    100 CA        -7.9904  -23.7441  -50.9018 C.3       18 UNK         0.1400 
    101 CB        -7.3234  -24.0935  -52.2400 C.3       18 UNK        -0.1800 
    102 C         -7.5100  -22.3680  -50.4001 C.2       18 UNK         0.5000 
    103 O         -6.7050  -22.2947  -49.4681 O.2       18 UNK        -0.5000 
    104 N         -7.9807  -21.2931  -51.0437 N.am      19 UNK        -0.5000 
    105 CA        -7.6334  -19.9013  -50.7374 C.3       19 UNK         0.1400 
    106 CB        -8.7040  -18.9812  -51.3514 C.3       19 UNK        -0.1800 
    107 C         -6.2037  -19.5365  -51.1975 C.2       19 UNK         0.5000 
    108 O         -6.0315  -18.7205  -52.1042 O.2       19 UNK        -0.5000 
    109 N         -5.2056  -20.1991  -50.5983 N.am      20 UNK        -0.5000 
    110 CA        -3.7514  -20.0959  -50.7959 C.3       20 UNK         0.1400 
    111 CB        -3.2402  -18.6931  -50.4187 C.3       20 UNK        -0.1800 
    112 C         -3.2250  -20.5462  -52.1769 C.2       20 UNK         0.5000 
    113 O         -2.0586  -20.9276  -52.2676 O.2       20 UNK        -0.5000 
    114 N         -4.0826  -20.5233  -53.2075 N.am      21 UNK        -0.5000 
    115 CA        -3.8342  -20.9219  -54.5981 C.3       21 UNK         0.1400 
    116 CB        -3.5940  -22.4423  -54.6978 C.3       21 UNK        -0.1800 
    117 C         -2.7352  -20.0797  -55.2813 C.2       21 UNK         0.5000 
    118 O         -1.9300  -20.6081  -56.0508 O.2       21 UNK        -0.5000 
    119 N         -2.7253  -18.7777  -54.9726 N.am      22 UNK        -0.5000 
    120 CA        -1.7927  -17.7760  -55.5080 C.3       22 UNK         0.1400 
    121 C         -1.9459  -17.5609  -57.0400 C.2       22 UNK         0.5000 
    122 N         -0.8513  -17.3369  -57.7544 N.am      22 UNK        -0.7600 
    123 O         -3.0508  -17.5505  -57.5790 O.2       22 UNK        -0.5000 
    124 C124       -1.9285  -16.4245  -54.7621 C.3       23 UNK        -0.0398 
    125 S125       -1.6816  -16.5868  -52.9617 S.3       23 UNK        -0.2404 
    126 C126        0.0734  -16.1439  -52.8163 C.3       23 UNK        -0.0205 
    127 H127        6.8178  -12.4225  -51.9628 H         1 UNK         0.0600 
    128 H128        6.4269  -10.7439  -51.5733 H         1 UNK         0.0600 
    129 H129        5.1325  -11.8992  -51.9032 H         1 UNK         0.0600 
    130 H130        4.0942  -12.5703  -50.0416 H         1 UNK         0.3000 
    131 H131        5.5531  -13.4728  -47.7138 H         1 UNK         0.0600 
    132 H132        3.6022  -14.7178  -48.4980 H         1 UNK         0.0800 
    133 H133        3.3585  -14.1659  -46.8667 H         1 UNK         0.0800 
    134 H134       -0.3177  -14.0204  -48.1642 H         1 UNK         0.0800 
    135 H135        0.8252  -14.7931  -47.0941 H         1 UNK         0.0800 
    136 H136       -0.1237  -14.4343  -50.7041 H         1 UNK         0.1150 
    137 H137        1.3918  -18.2926  -51.7893 H         1 UNK         0.1150 
    138 H138        1.9261  -16.8193  -47.8008 H         1 UNK         0.1150 
    139 H139        3.5057  -18.8813  -49.7247 H         1 UNK         0.0800 
    140 H140        2.5661  -19.0594  -48.2673 H         1 UNK         0.0800 
    141 H141       -0.5983  -20.5096  -49.9600 H         1 UNK         0.0800 
    142 H142       -0.0014  -19.7257  -48.5299 H         1 UNK         0.0800 
    143 H143        0.6972  -22.6497  -48.7698 H         1 UNK         0.0600 
    144 H144        0.4343  -20.8192  -46.5994 H         1 UNK         0.3000 
    145 H145        0.3950  -23.3290  -44.0231 H         1 UNK         0.0600 
    146 H146        2.2209  -21.8509  -43.2327 H         1 UNK         0.0600 
    147 H147        2.7686  -22.8441  -44.5746 H         1 UNK         0.0600 
    148 H148        2.3872  -21.1492  -44.8399 H         1 UNK         0.0600 
    149 H149        0.1389  -20.4987  -43.8829 H         1 UNK         0.3000 
    150 H150       -3.4502  -20.3918  -44.1685 H         1 UNK         0.0600 
    151 H151       -2.9225  -20.9733  -41.7940 H         1 UNK         0.0600 
    152 H152       -3.1801  -19.2476  -41.9989 H         1 UNK         0.0600 
    153 H153       -1.5441  -19.8798  -41.8269 H         1 UNK         0.0600 
    154 H154       -1.5946  -18.3014  -43.7542 H         1 UNK         0.3000 
    155 H155       -0.8702  -17.5981  -47.2070 H         1 UNK         0.0600 
    156 H156       -2.9494  -16.3930  -46.6228 H         1 UNK         0.0600 
    157 H157       -1.5587  -15.3598  -46.3287 H         1 UNK         0.0600 
    158 H158       -2.3819  -16.1349  -44.9790 H         1 UNK         0.0600 
    159 H159        0.1666  -16.4162  -44.8573 H         1 UNK         0.3000 
    160 H160        2.9248  -18.6639  -44.3407 H         1 UNK         0.0600 
    161 H161        2.6554  -15.7751  -45.3181 H         1 UNK         0.0600 
    162 H162        3.6495  -17.0312  -46.0428 H         1 UNK         0.0600 
    163 H163        4.0436  -16.4208  -44.4433 H         1 UNK         0.0600 
    164 H164        1.8824  -16.3302  -42.9822 H         1 UNK         0.3000 
    165 H165       -0.0246  -18.1281  -40.5652 H         1 UNK         0.0600 
    166 H166        1.4659  -16.8923  -39.0171 H         1 UNK         0.0600 
    167 H167        2.3276  -18.2474  -39.7282 H         1 UNK         0.0600 
    168 H168        2.6322  -16.6153  -40.3111 H         1 UNK         0.0600 
    169 H169        0.5710  -15.3516  -40.8846 H         1 UNK         0.3000 
    170 H170       -2.0534  -14.5445  -43.1395 H         1 UNK         0.0600 
    171 H171       -3.2257  -14.7362  -40.9404 H         1 UNK         0.0600 
    172 H172       -1.8384  -14.0232  -40.1259 H         1 UNK         0.0600 
    173 H173       -2.7732  -13.0743  -41.2826 H         1 UNK         0.0600 
    174 H174       -0.3039  -12.8582  -41.7224 H         1 UNK         0.3000 
    175 H175        1.4627  -11.9179  -42.5229 H         1 UNK         0.0600 
    176 H176        3.2617  -13.7576  -44.1814 H         1 UNK         0.0600 
    177 H177        3.7715  -12.3898  -43.1987 H         1 UNK         0.0600 
    178 H178        3.1060  -13.8219  -42.4291 H         1 UNK         0.0600 
    179 H179        2.2664  -11.8156  -45.2592 H         1 UNK         0.3000 
    180 H180        0.0478  -10.8312  -46.9343 H         1 UNK         0.0600 
    181 H181        0.0874   -8.1482  -45.4601 H         1 UNK         0.0600 
    182 H182       -1.3338   -9.0395  -45.9835 H         1 UNK         0.0600 
    183 H183       -0.2478   -8.3538  -47.1791 H         1 UNK         0.0600 
    184 H184        2.1056  -10.4344  -47.5837 H         1 UNK         0.3000 
    185 H185        4.1223   -8.4381  -47.7154 H         1 UNK         0.0600 
    186 H186        5.2869   -7.8024  -45.6506 H         1 UNK         0.0600 
    187 H187        5.5117   -9.4837  -45.1923 H         1 UNK         0.0600 
    188 H188        6.3412   -8.8318  -46.6050 H         1 UNK         0.0600 
    189 H189        4.4890  -10.4157  -48.6487 H         1 UNK         0.3000 
    190 H190       -2.2449  -21.3317  -47.1728 H         1 UNK         0.3000 
    191 H191       -4.1238  -22.6362  -48.8343 H         1 UNK         0.0600 
    192 H192       -4.3518  -21.8223  -45.8907 H         1 UNK         0.0600 
    193 H193       -5.6992  -22.2428  -46.9354 H         1 UNK         0.0600 
    194 H194       -4.7391  -20.8131  -47.2836 H         1 UNK         0.0600 
    195 H195       -2.5434  -23.7972  -45.8240 H         1 UNK         0.3000 
    196 H196       -3.8300  -26.3188  -45.6979 H         1 UNK         0.0600 
    197 H197       -1.9239  -26.9269  -44.2028 H         1 UNK         0.0600 
    198 H198       -2.5785  -25.3467  -43.7991 H         1 UNK         0.0600 
    199 H199       -1.0633  -25.4712  -44.6879 H         1 UNK         0.0600 
    200 H200       -0.7316  -25.3664  -47.2686 H         1 UNK         0.3000 
    201 H201       -0.0656  -27.9102  -48.3317 H         1 UNK         0.0600 
    202 H202        1.5506  -26.0357  -48.1316 H         1 UNK         0.0600 
    203 H203        0.6623  -25.1081  -49.3380 H         1 UNK         0.0600 
    204 H204        1.4730  -26.6011  -49.7939 H         1 UNK         0.0600 
    205 H205       -2.1054  -25.3002  -49.6275 H         1 UNK         0.3000 
    206 H206       -2.6652  -26.6267  -52.1492 H         1 UNK         0.0600 
    207 H207       -2.5554  -24.1276  -51.8660 H         1 UNK         0.0600 
    208 H208       -4.0716  -24.6734  -52.5489 H         1 UNK         0.0600 
    209 H209       -3.9972  -24.1951  -50.8528 H         1 UNK         0.0600 
    210 H210       -3.5786  -27.6412  -49.2189 H         1 UNK         0.3000 
    211 H211       -5.0893  -29.0048  -48.3964 H         1 UNK         0.0600 
    212 H212       -6.0623  -29.4595  -51.2644 H         1 UNK         0.0600 
    213 H213       -6.3384  -30.5134  -49.8858 H         1 UNK         0.0600 
    214 H214       -4.7086  -30.2911  -50.4998 H         1 UNK         0.0600 
    215 H215       -5.6830  -26.4094  -48.0778 H         1 UNK         0.3000 
    216 H216       -7.1630  -25.1853  -47.0570 H         1 UNK         0.0600 
    217 H217       -9.3468  -25.9710  -46.3136 H         1 UNK         0.0600 
    218 H218       -8.1884  -27.2743  -46.1158 H         1 UNK         0.0600 
    219 H219       -9.3331  -27.3015  -47.4581 H         1 UNK         0.0600 
    220 H220       -6.7753  -25.2425  -50.0297 H         1 UNK         0.3000 
    221 H221       -9.0722  -23.7077  -51.0460 H         1 UNK         0.0600 
    222 H222       -6.2382  -24.0611  -52.1634 H         1 UNK         0.0600 
    223 H223       -7.6054  -25.0920  -52.5749 H         1 UNK         0.0600 
    224 H224       -7.6163  -23.3934  -53.0230 H         1 UNK         0.0600 
    225 H225       -8.6122  -21.4297  -51.8197 H         1 UNK         0.3000 
    226 H226       -7.6660  -19.7657  -49.6541 H         1 UNK         0.0600 
    227 H227       -9.6932  -19.2068  -50.9526 H         1 UNK         0.0600 
    228 H228       -8.4963  -17.9344  -51.1257 H         1 UNK         0.0600 
    229 H229       -8.7488  -19.0813  -52.4366 H         1 UNK         0.0600 
    230 H230       -5.5005  -20.9210  -49.9451 H         1 UNK         0.3000 
    231 H231       -3.3142  -20.7918  -50.0825 H         1 UNK         0.0600 
    232 H232       -3.4741  -18.4568  -49.3805 H         1 UNK         0.0600 
    233 H233       -3.6782  -17.9180  -51.0472 H         1 UNK         0.0600 
    234 H234       -2.1568  -18.6255  -50.5281 H         1 UNK         0.0600 
    235 H235       -4.9878  -20.1035  -53.0235 H         1 UNK         0.3000 
    236 H236       -4.7541  -20.7041  -55.1425 H         1 UNK         0.0600 
    237 H237       -3.5139  -22.7597  -55.7380 H         1 UNK         0.0600 
    238 H238       -2.6761  -22.7433  -54.1922 H         1 UNK         0.0600 
    239 H239       -4.4209  -22.9973  -54.2555 H         1 UNK         0.0600 
    240 H240       -3.4155  -18.4337  -54.3218 H         1 UNK         0.3000 
    241 H241       -0.7861  -18.1582  -55.3267 H         1 UNK         0.0600 
    242 H242       -0.9385  -17.1806  -58.7469 H         1 UNK         0.3800 
    243 H243        0.0658  -17.3349  -57.3348 H         1 UNK         0.3800 
    244 H244       -1.2189  -15.6936  -55.1542 H         1 UNK         0.0800 
    245 H245       -2.9200  -15.9990  -54.9274 H         1 UNK         0.0800 
    246 H246        0.2133  -15.1035  -53.1141 H         1 UNK         0.0800 
    247 H247        0.6598  -16.7476  -53.5107 H         1 UNK         0.0800 
@<TRIPOS>BOND
     1    1    2 1    
     2    1  127 1    
     3    1  128 1    
     4    1  129 1    
     5    2    3 2    
     6    2    4 am   BACKBONE|DICT|INTERRES
     7    4    5 1    
     8    4  130 1    
     9    5    6 1    
    10    5   65 1    
    11    5  131 1    
    12    6    7 1    
    13    6  132 1    
    14    6  133 1    
    15    7    8 1    
    16    8    9 1    
    17    8  134 1    
    18    8  135 1    
    19    9   10 ar   
    20    9   14 ar   
    21   10   11 ar   
    22   10  136 1    
    23   11   12 ar   
    24   11  126 1    
    25   12   13 ar   
    26   12  137 1    
    27   13   14 ar   
    28   13   15 1    
    29   14  138 1    
    30   15   16 1    
    31   15  139 1    
    32   15  140 1    
    33   16   17 1    
    34   17   18 1    
    35   17  141 1    
    36   17  142 1    
    37   18   19 1    
    38   18   67 1    
    39   18  143 1    
    40   19   20 am   BACKBONE|DICT|INTERRES
    41   19  144 1    
    42   20   21 2    
    43   20   22 1    
    44   22   23 1    
    45   22   24 1    
    46   22  145 1    
    47   23  146 1    
    48   23  147 1    
    49   23  148 1    
    50   24   25 am   BACKBONE|DICT|INTERRES
    51   24  149 1    
    52   25   26 2    
    53   25   27 1    
    54   27   28 1    
    55   27   29 1    
    56   27  150 1    
    57   28  151 1    
    58   28  152 1    
    59   28  153 1    
    60   29   30 am   BACKBONE|DICT|INTERRES
    61   29  154 1    
    62   30   31 2    
    63   30   32 1    
    64   32   33 1    
    65   32   34 1    
    66   32  155 1    
    67   33  156 1    
    68   33  157 1    
    69   33  158 1    
    70   34   35 am   BACKBONE|DICT|INTERRES
    71   34  159 1    
    72   35   36 2    
    73   35   37 1    
    74   37   38 1    
    75   37   39 1    
    76   37  160 1    
    77   38  161 1    
    78   38  162 1    
    79   38  163 1    
    80   39   40 am   BACKBONE|DICT|INTERRES
    81   39  164 1    
    82   40   41 2    
    83   40   42 1    
    84   42   43 1    
    85   42   44 1    
    86   42  165 1    
    87   43  166 1    
    88   43  167 1    
    89   43  168 1    
    90   44   45 am   BACKBONE|DICT|INTERRES
    91   44  169 1    
    92   45   46 2    
    93   45   47 1    
    94   47   48 1    
    95   47   49 1    
    96   47  170 1    
    97   48  171 1    
    98   48  172 1    
    99   48  173 1    
   100   49   50 am   BACKBONE|DICT|INTERRES
   101   49  174 1    
   102   50   51 2    
   103   50   52 1    
   104   52   53 1    
   105   52   54 1    
   106   52  175 1    
   107   53  176 1    
   108   53  177 1    
   109   53  178 1    
   110   54   55 am   BACKBONE|DICT|INTERRES
   111   54  179 1    
   112   55   56 2    
   113   55   57 1    
   114   57   58 1    
   115   57   59 1    
   116   57  180 1    
   117   58  181 1    
   118   58  182 1    
   119   58  183 1    
   120   59   60 am   BACKBONE|DICT|INTERRES
   121   59  184 1    
   122   60   61 2    
   123   60   62 1    
   124   62   63 1    
   125   62   64 1    
   126   62  185 1    
   127   63  186 1    
   128   63  187 1    
   129   63  188 1    
   130   64   65 am   BACKBONE|DICT|INTERRES
   131   64  189 1    
   132   65   66 2    
   133   67   68 2    
   134   67   69 am   BACKBONE|DICT|INTERRES
   135   69   70 1    
   136   69  190 1    
   137   70   71 1    
   138   70   72 1    
   139   70  191 1    
   140   71  192 1    
   141   71  193 1    
   142   71  194 1    
   143   72   73 2    
   144   72   74 am   BACKBONE|DICT|INTERRES
   145   74   75 1    
   146   74  195 1    
   147   75   76 1    
   148   75   77 1    
   149   75  196 1    
   150   76  197 1    
   151   76  198 1    
   152   76  199 1    
   153   77   78 2    
   154   77   79 am   BACKBONE|DICT|INTERRES
   155   79   80 1    
   156   79  200 1    
   157   80   81 1    
   158   80   82 1    
   159   80  201 1    
   160   81  202 1    
   161   81  203 1    
   162   81  204 1    
   163   82   83 2    
   164   82   84 am   BACKBONE|DICT|INTERRES
   165   84   85 1    
   166   84  205 1    
   167   85   86 1    
   168   85   87 1    
   169   85  206 1    
   170   86  207 1    
   171   86  208 1    
   172   86  209 1    
   173   87   88 2    
   174   87   89 am   BACKBONE|DICT|INTERRES
   175   89   90 1    
   176   89  210 1    
   177   90   91 1    
   178   90   92 1    
   179   90  211 1    
   180   91  212 1    
   181   91  213 1    
   182   91  214 1    
   183   92   93 2    
   184   92   94 am   BACKBONE|DICT|INTERRES
   185   94   95 1    
   186   94  215 1    
   187   95   96 1    
   188   95   97 1    
   189   95  216 1    
   190   96  217 1    
   191   96  218 1    
   192   96  219 1    
   193   97   98 2    
   194   97   99 am   BACKBONE|DICT|INTERRES
   195   99  100 1    
   196   99  220 1    
   197  100  101 1    
   198  100  102 1    
   199  100  221 1    
   200  101  222 1    
   201  101  223 1    
   202  101  224 1    
   203  102  103 2    
   204  102  104 am   BACKBONE|DICT|INTERRES
   205  104  105 1    
   206  104  225 1    
   207  105  106 1    
   208  105  107 1    
   209  105  226 1    
   210  106  227 1    
   211  106  228 1    
   212  106  229 1    
   213  107  108 2    
   214  107  109 am   BACKBONE|DICT|INTERRES
   215  109  110 1    
   216  109  230 1    
   217  110  111 1    
   218  110  112 1    
   219  110  231 1    
   220  111  232 1    
   221  111  233 1    
   222  111  234 1    
   223  112  113 2    
   224  112  114 am   BACKBONE|DICT|INTERRES
   225  114  115 1    
   226  114  235 1    
   227  115  116 1    
   228  115  117 1    
   229  115  236 1    
   230  116  237 1    
   231  116  238 1    
   232  116  239 1    
   233  117  118 2    
   234  117  119 am   BACKBONE|DICT|INTERRES
   235  119  120 1    
   236  119  240 1    
   237  120  121 1    
   238  120  124 1    
   239  120  241 1    
   240  121  122 am   BACKBONE|DICT|INTERRES
   241  121  123 2    
   242  122  242 1    
   243  122  243 1    
   244  124  125 1    
   245  124  244 1    
   246  124  245 1    
   247  125  126 1    
   248  126  246 1    
   249  126  247 1    
@<TRIPOS>SUBSTRUCTURE
     1 UNK         1 GROUP             0       ****    0 ROOT    
