@<TRIPOS>MOLECULE
3R540
247   249    1
SMALL
USER_CHARGES


@<TRIPOS>ATOM
      1 CA         -0.3025   -9.2498  -46.0010 C.3       0 UNK        -0.1800 
      2 C           0.5126  -10.5212  -46.1844 C.2       0 UNK         0.5000 
      3 O           1.6221  -10.6168  -45.6614 O.2       0 UNK        -0.5000 
      4 N          -0.0292  -11.4996  -46.9224 N.am      1 UNK        -0.5000 
      5 CA          0.5985  -12.8054  -47.1639 C.3       1 UNK         0.1400 
      6 C6         -0.1575  -13.6052  -48.2555 C.3       23 UNK        -0.0398 
      7 S7          0.9444  -14.6655  -49.2481 S.3       23 UNK        -0.2404 
      8 C8          0.7718  -16.2724  -48.4164 C.3       23 UNK        -0.0205 
      9 C9         -0.5716  -16.9315  -48.6740 C.ar      23 UNK        -0.0193 
     10 C10        -0.7976  -17.6255  -49.8640 C.ar      23 UNK        -0.1150 
     11 C11        -1.9939  -18.3194  -50.0637 C.ar      23 UNK        -0.0193 
     12 C12        -2.9715  -18.3083  -49.0609 C.ar      23 UNK        -0.1150 
     13 C13        -2.7690  -17.5928  -47.8767 C.ar      23 UNK        -0.0193 
     14 C14        -1.5654  -16.9039  -47.6943 C.ar      23 UNK        -0.1150 
     15 C15        -3.8554  -17.5422  -46.8082 C.3       23 UNK        -0.0205 
     16 S16        -3.2003  -17.8644  -45.1378 S.3       23 UNK        -0.2404 
     17 C17        -3.9635  -19.4516  -44.6696 C.3       23 UNK        -0.0398 
     18 CA         -3.6701  -20.6619  -45.5964 C.3       11 UNK         0.1400 
     19 N          -2.2781  -20.7596  -46.0436 N.am      11 UNK        -0.5000 
     20 C          -1.8586  -21.5487  -47.0447 C.2       10 UNK         0.5000 
     21 O          -2.6174  -22.2248  -47.7413 O.2       10 UNK        -0.5000 
     22 CA         -0.3377  -21.6453  -47.2767 C.3       10 UNK         0.1400 
     23 CB          0.1283  -20.6057  -48.3003 C.3       10 UNK        -0.1800 
     24 N           0.4344  -21.4842  -46.0450 N.am      10 UNK        -0.5000 
     25 C           0.4498  -22.3808  -45.0476 C.2       9 UNK         0.5000 
     26 O          -0.1353  -23.4615  -45.1001 O.2       9 UNK        -0.5000 
     27 CA          1.1898  -21.9850  -43.7540 C.3       9 UNK         0.1400 
     28 CB          2.6440  -22.4760  -43.7948 C.3       9 UNK        -0.1800 
     29 N           1.1762  -20.5434  -43.4986 N.am      9 UNK        -0.5000 
     30 C           0.0734  -19.7957  -43.3513 C.2       8 UNK         0.5000 
     31 O          -1.0619  -20.2718  -43.3184 O.2       8 UNK        -0.5000 
     32 CA          0.2582  -18.2661  -43.2709 C.3       8 UNK         0.1400 
     33 CB         -0.0092  -17.7696  -41.8424 C.3       8 UNK        -0.1800 
     34 N           1.5757  -17.7838  -43.7004 N.am      8 UNK        -0.5000 
     35 C           2.0964  -17.8788  -44.9338 C.2       7 UNK         0.5000 
     36 O           1.5268  -18.4528  -45.8630 O.2       7 UNK        -0.5000 
     37 CA          3.4923  -17.2499  -45.1362 C.3       7 UNK         0.1400 
     38 CB          3.8093  -16.9146  -46.6040 C.3       7 UNK        -0.1800 
     39 N           3.6483  -16.0377  -44.3294 N.am      7 UNK        -0.5000 
     40 C           4.2469  -15.9778  -43.1334 C.2       6 UNK         0.5000 
     41 O           4.7556  -16.9567  -42.5855 O.2       6 UNK        -0.5000 
     42 CA          4.2181  -14.6183  -42.4043 C.3       6 UNK         0.1400 
     43 CB          5.3177  -14.4869  -41.3303 C.3       6 UNK        -0.1800 
     44 N           4.2263  -13.4553  -43.2964 N.am      6 UNK        -0.5000 
     45 C           5.1958  -13.0751  -44.1432 C.2       5 UNK         0.5000 
     46 O           6.2159  -13.7278  -44.3661 O.2       5 UNK        -0.5000 
     47 CA          5.0031  -11.7111  -44.8380 C.3       5 UNK         0.1400 
     48 CB          4.5638  -11.8989  -46.2967 C.3       5 UNK        -0.1800 
     49 N           4.0347  -10.8621  -44.1327 N.am      5 UNK        -0.5000 
     50 C           4.3217  -10.1847  -43.0111 C.2       4 UNK         0.5000 
     51 O           5.4552  -10.1042  -42.5357 O.2       4 UNK        -0.5000 
     52 CA          3.1428   -9.5429  -42.2605 C.3       4 UNK         0.1400 
     53 CB          2.4676   -8.4218  -43.0656 C.3       4 UNK        -0.1800 
     54 N           2.1564  -10.5452  -41.8497 N.am      4 UNK        -0.5000 
     55 C           2.3190  -11.3815  -40.8155 C.2       3 UNK         0.5000 
     56 O           3.3367  -11.4150  -40.1240 O.2       3 UNK        -0.5000 
     57 CA          1.1602  -12.3400  -40.4735 C.3       3 UNK         0.1400 
     58 CB         -0.0282  -11.5824  -39.8493 C.3       3 UNK        -0.1800 
     59 N           0.7272  -13.2153  -41.5714 N.am      3 UNK        -0.5000 
     60 C           0.1272  -12.8760  -42.7187 C.2       2 UNK         0.5000 
     61 O          -0.1341  -11.7152  -43.0438 O.2       2 UNK        -0.5000 
     62 CA         -0.2735  -14.0406  -43.6413 C.3       2 UNK         0.1400 
     63 CB         -1.6660  -14.5704  -43.2693 C.3       2 UNK        -0.1800 
     64 N          -0.3006  -13.5810  -45.0247 N.am      2 UNK        -0.5000 
     65 C           0.7504  -13.6094  -45.8518 C.2       1 UNK         0.5000 
     66 O           1.8103  -14.1794  -45.5876 O.2       1 UNK        -0.5000 
     67 C          -4.0904  -21.9636  -44.8880 C.2       11 UNK         0.5000 
     68 O          -5.1617  -22.4974  -45.1744 O.2       11 UNK        -0.5000 
     69 N          -3.2148  -22.4690  -44.0041 N.am      12 UNK        -0.5000 
     70 CA         -3.3904  -23.7248  -43.2673 C.3       12 UNK         0.1400 
     71 CB         -2.2698  -23.8663  -42.2266 C.3       12 UNK        -0.1800 
     72 C          -3.4463  -24.9612  -44.1865 C.2       12 UNK         0.5000 
     73 O          -4.1918  -25.8989  -43.9037 O.2       12 UNK        -0.5000 
     74 N          -2.7002  -24.9120  -45.2979 N.am      13 UNK        -0.5000 
     75 CA         -2.7219  -25.8900  -46.3870 C.3       13 UNK         0.1400 
     76 CB         -1.4176  -25.7568  -47.1907 C.3       13 UNK        -0.1800 
     77 C          -3.9481  -25.7603  -47.3182 C.2       13 UNK         0.5000 
     78 O          -4.0302  -26.5042  -48.2965 O.2       13 UNK        -0.5000 
     79 N          -4.8579  -24.8139  -47.0358 N.am      14 UNK        -0.5000 
     80 CA         -6.0806  -24.5041  -47.7831 C.3       14 UNK         0.1400 
     81 CB         -7.0912  -25.6659  -47.6807 C.3       14 UNK        -0.1800 
     82 C          -5.7812  -24.0903  -49.2356 C.2       14 UNK         0.5000 
     83 O          -6.3963  -24.6110  -50.1680 O.2       14 UNK        -0.5000 
     84 N          -4.7936  -23.1963  -49.3989 N.am      15 UNK        -0.5000 
     85 CA         -4.2401  -22.7327  -50.6738 C.3       15 UNK         0.1400 
     86 CB         -5.2852  -21.9223  -51.4692 C.3       15 UNK        -0.1800 
     87 C          -3.6228  -23.8900  -51.4823 C.2       15 UNK         0.5000 
     88 O          -3.8492  -23.9898  -52.6887 O.2       15 UNK        -0.5000 
     89 N          -2.8852  -24.7667  -50.7839 N.am      16 UNK        -0.5000 
     90 CA         -2.2894  -26.0128  -51.2828 C.3       16 UNK         0.1400 
     91 CB         -1.1475  -25.7070  -52.2751 C.3       16 UNK        -0.1800 
     92 C          -3.3512  -26.9742  -51.8604 C.2       16 UNK         0.5000 
     93 O          -3.1574  -27.5345  -52.9393 O.2       16 UNK        -0.5000 
     94 N          -4.4717  -27.1081  -51.1352 N.am      17 UNK        -0.5000 
     95 CA         -5.7112  -27.7828  -51.5343 C.3       17 UNK         0.1400 
     96 CB         -5.5007  -29.3078  -51.6383 C.3       17 UNK        -0.1800 
     97 C          -6.3282  -27.1580  -52.8063 C.2       17 UNK         0.5000 
     98 O          -6.6604  -27.8725  -53.7542 O.2       17 UNK        -0.5000 
     99 N          -6.4590  -25.8232  -52.7861 N.am      18 UNK        -0.5000 
    100 CA        -6.9870  -24.9522  -53.8412 C.3       18 UNK         0.1400 
    101 CB        -8.5088  -25.1571  -53.9911 C.3       18 UNK        -0.1800 
    102 C         -6.2223  -25.0692  -55.1785 C.2       18 UNK         0.5000 
    103 O         -6.8425  -25.2163  -56.2342 O.2       18 UNK        -0.5000 
    104 N         -4.8874  -25.0037  -55.1065 N.am      19 UNK        -0.5000 
    105 CA        -3.9797  -25.1060  -56.2525 C.3       19 UNK         0.1400 
    106 CB        -3.3022  -26.4855  -56.2314 C.3       19 UNK        -0.1800 
    107 C         -2.9207  -23.9878  -56.2931 C.2       19 UNK         0.5000 
    108 O         -2.2884  -23.8110  -57.3362 O.2       19 UNK        -0.5000 
    109 N         -2.7178  -23.2643  -55.1831 N.am      20 UNK        -0.5000 
    110 CA        -1.7437  -22.1788  -55.0648 C.3       20 UNK         0.1400 
    111 CB        -1.5591  -21.8330  -53.5799 C.3       20 UNK        -0.1800 
    112 C         -2.1387  -20.9211  -55.8627 C.2       20 UNK         0.5000 
    113 O         -3.3142  -20.7167  -56.1797 O.2       20 UNK        -0.5000 
    114 N         -1.1352  -20.0731  -56.1270 N.am      21 UNK        -0.5000 
    115 CA        -1.2270  -18.8380  -56.9143 C.3       21 UNK         0.1400 
    116 CB         0.1869  -18.2613  -57.0891 C.3       21 UNK        -0.1800 
    117 C         -2.1792  -17.7635  -56.3486 C.2       21 UNK         0.5000 
    118 O         -2.5754  -16.8648  -57.0922 O.2       21 UNK        -0.5000 
    119 N         -2.5414  -17.8739  -55.0638 N.am      22 UNK        -0.5000 
    120 CA        -3.5879  -17.0646  -54.4211 C.3       22 UNK         0.1400 
    121 C         -5.0373  -17.3646  -54.9170 C.2       22 UNK         0.5000 
    122 N         -5.2942  -18.4739  -55.6035 N.am      22 UNK        -0.7600 
    123 O         -5.9414  -16.5665  -54.6848 O.2       22 UNK        -0.5000 
    124 C124       -3.4832  -17.1130  -52.8741 C.3       23 UNK        -0.0398 
    125 S125       -3.7671  -18.7776  -52.1747 S.3       23 UNK        -0.2404 
    126 C126       -2.1904  -19.1286  -51.3377 C.3       23 UNK        -0.0205 
    127 H127       -0.5444   -9.1134  -44.9468 H         1 UNK         0.0600 
    128 H128       -1.2353   -9.2801  -46.5644 H         1 UNK         0.0600 
    129 H129        0.2707   -8.3852  -46.3354 H         1 UNK         0.0600 
    130 H130       -0.9406  -11.3584  -47.3341 H         1 UNK         0.3000 
    131 H131        1.6036  -12.5936  -47.5334 H         1 UNK         0.0600 
    132 H132       -0.6126  -12.9161  -48.9682 H         1 UNK         0.0800 
    133 H133       -0.9894  -14.1774  -47.8442 H         1 UNK         0.0800 
    134 H134        0.9279  -16.1512  -47.3449 H         1 UNK         0.0800 
    135 H135        1.5657  -16.9355  -48.7626 H         1 UNK         0.0800 
    136 H136       -0.0240  -17.6516  -50.6186 H         1 UNK         0.1150 
    137 H137       -3.8924  -18.8546  -49.2084 H         1 UNK         0.1150 
    138 H138       -1.3917  -16.3631  -46.7747 H         1 UNK         0.1150 
    139 H139       -4.2987  -16.5459  -46.8186 H         1 UNK         0.0800 
    140 H140       -4.6639  -18.2372  -47.0368 H         1 UNK         0.0800 
    141 H141       -5.0413  -19.2981  -44.5945 H         1 UNK         0.0800 
    142 H142       -3.6266  -19.6529  -43.6510 H         1 UNK         0.0800 
    143 H143       -4.2917  -20.5575  -46.4881 H         1 UNK         0.0600 
    144 H144       -1.5986  -20.2583  -45.4886 H         1 UNK         0.3000 
    145 H145       -0.1282  -22.6362  -47.6842 H         1 UNK         0.0600 
    146 H146       -0.0211  -19.5934  -47.9262 H         1 UNK         0.0600 
    147 H147        1.1870  -20.7229  -48.5311 H         1 UNK         0.0600 
    148 H148       -0.4228  -20.7022  -49.2360 H         1 UNK         0.0600 
    149 H149        0.9177  -20.6015  -45.9246 H         1 UNK         0.3000 
    150 H150        0.6838  -22.4749  -42.9200 H         1 UNK         0.0600 
    151 H151        2.6875  -23.5532  -43.9616 H         1 UNK         0.0600 
    152 H152        3.1559  -22.2735  -42.8537 H         1 UNK         0.0600 
    153 H153        3.2086  -21.9963  -44.5954 H         1 UNK         0.0600 
    154 H154        2.0685  -20.0729  -43.5087 H         1 UNK         0.3000 
    155 H155       -0.4830  -17.8175  -43.9340 H         1 UNK         0.0600 
    156 H156       -1.0104  -18.0512  -41.5131 H         1 UNK         0.0600 
    157 H157        0.0575  -16.6844  -41.7784 H         1 UNK         0.0600 
    158 H158        0.7017  -18.1920  -41.1311 H         1 UNK         0.0600 
    159 H159        2.1406  -17.3400  -42.9922 H         1 UNK         0.3000 
    160 H160        4.2123  -18.0071  -44.8202 H         1 UNK         0.0600 
    161 H161        4.8558  -16.6312  -46.7162 H         1 UNK         0.0600 
    162 H162        3.2088  -16.0825  -46.9677 H         1 UNK         0.0600 
    163 H163        3.6359  -17.7686  -47.2599 H         1 UNK         0.0600 
    164 H164        3.1919  -15.2072  -44.6999 H         1 UNK         0.3000 
    165 H165        3.2606  -14.5872  -41.8847 H         1 UNK         0.0600 
    166 H166        6.3159  -14.5766  -41.7597 H         1 UNK         0.0600 
    167 H167        5.2572  -13.5248  -40.8211 H         1 UNK         0.0600 
    168 H168        5.2187  -15.2610  -40.5686 H         1 UNK         0.0600 
    169 H169        3.4308  -12.8388  -43.2247 H         1 UNK         0.3000 
    170 H170        5.9717  -11.2067  -44.8461 H         1 UNK         0.0600 
    171 H171        3.6258  -12.4457  -46.3631 H         1 UNK         0.0600 
    172 H172        4.4296  -10.9398  -46.7970 H         1 UNK         0.0600 
    173 H173        5.3095  -12.4612  -46.8597 H         1 UNK         0.0600 
    174 H174        3.0926  -10.8280  -44.5189 H         1 UNK         0.3000 
    175 H175        3.5510   -9.0800  -41.3591 H         1 UNK         0.0600 
    176 H176        1.9445   -8.7991  -43.9408 H         1 UNK         0.0600 
    177 H177        1.7410   -7.8869  -42.4540 H         1 UNK         0.0600 
    178 H178        3.2013   -7.6922  -43.4104 H         1 UNK         0.0600 
    179 H179        1.3033  -10.6248  -42.3971 H         1 UNK         0.3000 
    180 H180        1.5405  -13.0152  -39.7049 H         1 UNK         0.0600 
    181 H181       -0.4753  -10.8714  -40.5443 H         1 UNK         0.0600 
    182 H182        0.2894  -11.0193  -38.9708 H         1 UNK         0.0600 
    183 H183       -0.8089  -12.2717  -39.5277 H         1 UNK         0.0600 
    184 H184        0.8756  -14.1984  -41.3958 H         1 UNK         0.3000 
    185 H185        0.4495  -14.8518  -43.5320 H         1 UNK         0.0600 
    186 H186       -1.9500  -15.4047  -43.9100 H         1 UNK         0.0600 
    187 H187       -1.6908  -14.9289  -42.2397 H         1 UNK         0.0600 
    188 H188       -2.4308  -13.7987  -43.3659 H         1 UNK         0.0600 
    189 H189       -1.0917  -13.0090  -45.2813 H         1 UNK         0.3000 
    190 H190       -2.3664  -21.9462  -43.8191 H         1 UNK         0.3000 
    191 H191       -4.3426  -23.6650  -42.7362 H         1 UNK         0.0600 
    192 H192       -1.2914  -23.9606  -42.6972 H         1 UNK         0.0600 
    193 H193       -2.2394  -23.0061  -41.5576 H         1 UNK         0.0600 
    194 H194       -2.4219  -24.7533  -41.6104 H         1 UNK         0.0600 
    195 H195       -2.0488  -24.1415  -45.4011 H         1 UNK         0.3000 
    196 H196       -2.7526  -26.8910  -45.9525 H         1 UNK         0.0600 
    197 H197       -0.5447  -25.8651  -46.5466 H         1 UNK         0.0600 
    198 H198       -1.3490  -24.7888  -47.6870 H         1 UNK         0.0600 
    199 H199       -1.3466  -26.5279  -47.9584 H         1 UNK         0.0600 
    200 H200       -4.6954  -24.2209  -46.2303 H         1 UNK         0.3000 
    201 H201       -6.5286  -23.6336  -47.3024 H         1 UNK         0.0600 
    202 H202       -8.0426  -25.3963  -48.1404 H         1 UNK         0.0600 
    203 H203       -7.2941  -25.9195  -46.6403 H         1 UNK         0.0600 
    204 H204       -6.7312  -26.5656  -48.1808 H         1 UNK         0.0600 
    205 H205       -4.2907  -22.8703  -48.5781 H         1 UNK         0.3000 
    206 H206       -3.4170  -22.0617  -50.4289 H         1 UNK         0.0600 
    207 H207       -5.6216  -21.0558  -50.9002 H         1 UNK         0.0600 
    208 H208       -6.1632  -22.5150  -51.7212 H         1 UNK         0.0600 
    209 H209       -4.8684  -21.5522  -52.4061 H         1 UNK         0.0600 
    210 H210       -2.7997  -24.6116  -49.7900 H         1 UNK         0.3000 
    211 H211       -1.8541  -26.5183  -50.4200 H         1 UNK         0.0600 
    212 H212       -0.4181  -25.0245  -51.8391 H         1 UNK         0.0600 
    213 H213       -0.6156  -26.6186  -52.5492 H         1 UNK         0.0600 
    214 H214       -1.5183  -25.2579  -53.1969 H         1 UNK         0.0600 
    215 H215       -4.4986  -26.6495  -50.2292 H         1 UNK         0.3000 
    216 H216       -6.4258  -27.6049  -50.7293 H         1 UNK         0.0600 
    217 H217       -6.4469  -29.8192  -51.8180 H         1 UNK         0.0600 
    218 H218       -4.8275  -29.5722  -52.4542 H         1 UNK         0.0600 
    219 H219       -5.0841  -29.7110  -50.7153 H         1 UNK         0.0600 
    220 H220       -6.1923  -25.3446  -51.9293 H         1 UNK         0.3000 
    221 H221       -6.8297  -23.9298  -53.4973 H         1 UNK         0.0600 
    222 H222       -8.7489  -26.1547  -54.3602 H         1 UNK         0.0600 
    223 H223       -9.0193  -25.0204  -53.0378 H         1 UNK         0.0600 
    224 H224       -8.9336  -24.4372  -54.6915 H         1 UNK         0.0600 
    225 H225       -4.4631  -24.8592  -54.1931 H         1 UNK         0.3000 
    226 H226       -4.5431  -25.0208  -57.1836 H         1 UNK         0.0600 
    227 H227       -4.0389  -27.2887  -56.2013 H         1 UNK         0.0600 
    228 H228       -2.6911  -26.6355  -57.1221 H         1 UNK         0.0600 
    229 H229       -2.6499  -26.5957  -55.3650 H         1 UNK         0.0600 
    230 H230       -3.2658  -23.4615  -54.3513 H         1 UNK         0.3000 
    231 H231       -0.7895  -22.5410  -55.4534 H         1 UNK         0.0600 
    232 H232       -0.8148  -21.0481  -53.4431 H         1 UNK         0.0600 
    233 H233       -1.2184  -22.6984  -53.0121 H         1 UNK         0.0600 
    234 H234       -2.4925  -21.4853  -53.1384 H         1 UNK         0.0600 
    235 H235       -0.2088  -20.3140  -55.8053 H         1 UNK         0.3000 
    236 H236       -1.6081  -19.1098  -57.9008 H         1 UNK         0.0600 
    237 H237        0.8466  -18.9739  -57.5845 H         1 UNK         0.0600 
    238 H238        0.1700  -17.3589  -57.7019 H         1 UNK         0.0600 
    239 H239        0.6341  -17.9979  -56.1298 H         1 UNK         0.0600 
    240 H240       -2.1904  -18.6532  -54.5292 H         1 UNK         0.3000 
    241 H241       -3.3976  -16.0285  -54.7080 H         1 UNK         0.0600 
    242 H242       -4.5667  -19.1570  -55.7867 H         1 UNK         0.3800 
    243 H243       -6.2332  -18.6513  -55.9216 H         1 UNK         0.3800 
    244 H244       -2.5037  -16.7480  -52.5624 H         1 UNK         0.0800 
    245 H245       -4.2039  -16.4285  -52.4238 H         1 UNK         0.0800 
    246 H246       -1.3711  -18.9631  -52.0388 H         1 UNK         0.0800 
    247 H247       -2.1594  -20.1851  -51.0745 H         1 UNK         0.0800 
@<TRIPOS>BOND
     1    1    2 1    
     2    1  127 1    
     3    1  128 1    
     4    1  129 1    
     5    2    3 2    
     6    2    4 am   BACKBONE|DICT|INTERRES
     7    4    5 1    
     8    4  130 1    
     9    5    6 1    
    10    5   65 1    
    11    5  131 1    
    12    6    7 1    
    13    6  132 1    
    14    6  133 1    
    15    7    8 1    
    16    8    9 1    
    17    8  134 1    
    18    8  135 1    
    19    9   10 ar   
    20    9   14 ar   
    21   10   11 ar   
    22   10  136 1    
    23   11   12 ar   
    24   11  126 1    
    25   12   13 ar   
    26   12  137 1    
    27   13   14 ar   
    28   13   15 1    
    29   14  138 1    
    30   15   16 1    
    31   15  139 1    
    32   15  140 1    
    33   16   17 1    
    34   17   18 1    
    35   17  141 1    
    36   17  142 1    
    37   18   19 1    
    38   18   67 1    
    39   18  143 1    
    40   19   20 am   BACKBONE|DICT|INTERRES
    41   19  144 1    
    42   20   21 2    
    43   20   22 1    
    44   22   23 1    
    45   22   24 1    
    46   22  145 1    
    47   23  146 1    
    48   23  147 1    
    49   23  148 1    
    50   24   25 am   BACKBONE|DICT|INTERRES
    51   24  149 1    
    52   25   26 2    
    53   25   27 1    
    54   27   28 1    
    55   27   29 1    
    56   27  150 1    
    57   28  151 1    
    58   28  152 1    
    59   28  153 1    
    60   29   30 am   BACKBONE|DICT|INTERRES
    61   29  154 1    
    62   30   31 2    
    63   30   32 1    
    64   32   33 1    
    65   32   34 1    
    66   32  155 1    
    67   33  156 1    
    68   33  157 1    
    69   33  158 1    
    70   34   35 am   BACKBONE|DICT|INTERRES
    71   34  159 1    
    72   35   36 2    
    73   35   37 1    
    74   37   38 1    
    75   37   39 1    
    76   37  160 1    
    77   38  161 1    
    78   38  162 1    
    79   38  163 1    
    80   39   40 am   BACKBONE|DICT|INTERRES
    81   39  164 1    
    82   40   41 2    
    83   40   42 1    
    84   42   43 1    
    85   42   44 1    
    86   42  165 1    
    87   43  166 1    
    88   43  167 1    
    89   43  168 1    
    90   44   45 am   BACKBONE|DICT|INTERRES
    91   44  169 1    
    92   45   46 2    
    93   45   47 1    
    94   47   48 1    
    95   47   49 1    
    96   47  170 1    
    97   48  171 1    
    98   48  172 1    
    99   48  173 1    
   100   49   50 am   BACKBONE|DICT|INTERRES
   101   49  174 1    
   102   50   51 2    
   103   50   52 1    
   104   52   53 1    
   105   52   54 1    
   106   52  175 1    
   107   53  176 1    
   108   53  177 1    
   109   53  178 1    
   110   54   55 am   BACKBONE|DICT|INTERRES
   111   54  179 1    
   112   55   56 2    
   113   55   57 1    
   114   57   58 1    
   115   57   59 1    
   116   57  180 1    
   117   58  181 1    
   118   58  182 1    
   119   58  183 1    
   120   59   60 am   BACKBONE|DICT|INTERRES
   121   59  184 1    
   122   60   61 2    
   123   60   62 1    
   124   62   63 1    
   125   62   64 1    
   126   62  185 1    
   127   63  186 1    
   128   63  187 1    
   129   63  188 1    
   130   64   65 am   BACKBONE|DICT|INTERRES
   131   64  189 1    
   132   65   66 2    
   133   67   68 2    
   134   67   69 am   BACKBONE|DICT|INTERRES
   135   69   70 1    
   136   69  190 1    
   137   70   71 1    
   138   70   72 1    
   139   70  191 1    
   140   71  192 1    
   141   71  193 1    
   142   71  194 1    
   143   72   73 2    
   144   72   74 am   BACKBONE|DICT|INTERRES
   145   74   75 1    
   146   74  195 1    
   147   75   76 1    
   148   75   77 1    
   149   75  196 1    
   150   76  197 1    
   151   76  198 1    
   152   76  199 1    
   153   77   78 2    
   154   77   79 am   BACKBONE|DICT|INTERRES
   155   79   80 1    
   156   79  200 1    
   157   80   81 1    
   158   80   82 1    
   159   80  201 1    
   160   81  202 1    
   161   81  203 1    
   162   81  204 1    
   163   82   83 2    
   164   82   84 am   BACKBONE|DICT|INTERRES
   165   84   85 1    
   166   84  205 1    
   167   85   86 1    
   168   85   87 1    
   169   85  206 1    
   170   86  207 1    
   171   86  208 1    
   172   86  209 1    
   173   87   88 2    
   174   87   89 am   BACKBONE|DICT|INTERRES
   175   89   90 1    
   176   89  210 1    
   177   90   91 1    
   178   90   92 1    
   179   90  211 1    
   180   91  212 1    
   181   91  213 1    
   182   91  214 1    
   183   92   93 2    
   184   92   94 am   BACKBONE|DICT|INTERRES
   185   94   95 1    
   186   94  215 1    
   187   95   96 1    
   188   95   97 1    
   189   95  216 1    
   190   96  217 1    
   191   96  218 1    
   192   96  219 1    
   193   97   98 2    
   194   97   99 am   BACKBONE|DICT|INTERRES
   195   99  100 1    
   196   99  220 1    
   197  100  101 1    
   198  100  102 1    
   199  100  221 1    
   200  101  222 1    
   201  101  223 1    
   202  101  224 1    
   203  102  103 2    
   204  102  104 am   BACKBONE|DICT|INTERRES
   205  104  105 1    
   206  104  225 1    
   207  105  106 1    
   208  105  107 1    
   209  105  226 1    
   210  106  227 1    
   211  106  228 1    
   212  106  229 1    
   213  107  108 2    
   214  107  109 am   BACKBONE|DICT|INTERRES
   215  109  110 1    
   216  109  230 1    
   217  110  111 1    
   218  110  112 1    
   219  110  231 1    
   220  111  232 1    
   221  111  233 1    
   222  111  234 1    
   223  112  113 2    
   224  112  114 am   BACKBONE|DICT|INTERRES
   225  114  115 1    
   226  114  235 1    
   227  115  116 1    
   228  115  117 1    
   229  115  236 1    
   230  116  237 1    
   231  116  238 1    
   232  116  239 1    
   233  117  118 2    
   234  117  119 am   BACKBONE|DICT|INTERRES
   235  119  120 1    
   236  119  240 1    
   237  120  121 1    
   238  120  124 1    
   239  120  241 1    
   240  121  122 am   BACKBONE|DICT|INTERRES
   241  121  123 2    
   242  122  242 1    
   243  122  243 1    
   244  124  125 1    
   245  124  244 1    
   246  124  245 1    
   247  125  126 1    
   248  126  246 1    
   249  126  247 1    
@<TRIPOS>SUBSTRUCTURE
     1 UNK         1 GROUP             0       ****    0 ROOT    
