@<TRIPOS>MOLECULE
3R540
247   249    1
SMALL
USER_CHARGES


@<TRIPOS>ATOM
      1 CA          0.2456  -10.9506  -44.9364 C.3       0 UNK        -0.1800 
      2 C           0.6679  -10.3890  -46.2876 C.2       0 UNK         0.5000 
      3 O           0.7568   -9.1695  -46.4319 O.2       0 UNK        -0.5000 
      4 N           0.9335  -11.2582  -47.2732 N.am      1 UNK        -0.5000 
      5 CA          1.4556  -10.8715  -48.5912 C.3       1 UNK         0.1400 
      6 C6          1.0739  -11.8764  -49.7152 C.3       23 UNK        -0.0398 
      7 S7          1.9707  -13.4683  -49.6839 S.3       23 UNK        -0.2404 
      8 C8          1.2347  -14.3735  -51.0808 C.3       23 UNK        -0.0205 
      9 C9          0.2265  -15.4147  -50.6158 C.ar      23 UNK        -0.0193 
     10 C10        -1.1420  -15.2260  -50.8291 C.ar      23 UNK        -0.1150 
     11 C11        -2.0624  -16.1956  -50.4190 C.ar      23 UNK        -0.0193 
     12 C12        -1.6068  -17.3545  -49.7851 C.ar      23 UNK        -0.1150 
     13 C13        -0.2415  -17.5610  -49.5727 C.ar      23 UNK        -0.0193 
     14 C14         0.6693  -16.5865  -49.9929 C.ar      23 UNK        -0.1150 
     15 C15         0.2531  -18.8381  -48.9069 C.3       23 UNK        -0.0205 
     16 S16        -0.1813  -18.9009  -47.1386 S.3       23 UNK        -0.2404 
     17 C17        -1.6474  -19.9914  -47.1332 C.3       23 UNK        -0.0398 
     18 CA         -1.2655  -21.3791  -46.5766 C.3       11 UNK         0.1400 
     19 N          -0.9325  -21.3383  -45.1534 N.am      11 UNK        -0.5000 
     20 C          -0.2293  -22.2878  -44.5254 C.2       10 UNK         0.5000 
     21 O           0.1947  -23.3025  -45.0778 O.2       10 UNK        -0.5000 
     22 CA          0.0047  -22.0841  -43.0215 C.3       10 UNK         0.1400 
     23 CB          1.1070  -21.0427  -42.7753 C.3       10 UNK        -0.1800 
     24 N          -1.2192  -21.6779  -42.3332 N.am      10 UNK        -0.5000 
     25 C          -2.2821  -22.4731  -42.1513 C.2       9 UNK         0.5000 
     26 O          -2.3432  -23.6390  -42.5445 O.2       9 UNK        -0.5000 
     27 CA         -3.4906  -21.8466  -41.4320 C.3       9 UNK         0.1400 
     28 CB         -3.2983  -21.8923  -39.9087 C.3       9 UNK        -0.1800 
     29 N          -3.7556  -20.4669  -41.8472 N.am      9 UNK        -0.5000 
     30 C          -4.1586  -20.1204  -43.0768 C.2       8 UNK         0.5000 
     31 O          -4.3042  -20.9183  -44.0003 O.2       8 UNK        -0.5000 
     32 CA         -4.4070  -18.6254  -43.3340 C.3       8 UNK         0.1400 
     33 CB         -5.7268  -18.1732  -42.6904 C.3       8 UNK        -0.1800 
     34 N          -3.3238  -17.7381  -42.9034 N.am      8 UNK        -0.5000 
     35 C          -2.0382  -17.8519  -43.2607 C.2       7 UNK         0.5000 
     36 O          -1.5618  -18.8292  -43.8430 O.2       7 UNK        -0.5000 
     37 CA         -1.1361  -16.6422  -42.9638 C.3       7 UNK         0.1400 
     38 CB         -0.0073  -17.0194  -41.9940 C.3       7 UNK        -0.1800 
     39 N          -0.5755  -16.1548  -44.2242 N.am      7 UNK        -0.5000 
     40 C          -1.2969  -15.5135  -45.1573 C.2       6 UNK         0.5000 
     41 O          -2.4251  -15.0670  -44.9421 O.2       6 UNK        -0.5000 
     42 CA         -0.7060  -15.4052  -46.5768 C.3       6 UNK         0.1400 
     43 CB         -1.0679  -14.0831  -47.2791 C.3       6 UNK        -0.1800 
     44 N           0.7229  -15.7396  -46.6448 N.am      6 UNK        -0.5000 
     45 C           1.7739  -14.9730  -46.3333 C.2       5 UNK         0.5000 
     46 O           1.7122  -13.7688  -46.0808 O.2       5 UNK        -0.5000 
     47 CA          3.1399  -15.6831  -46.2969 C.3       5 UNK         0.1400 
     48 CB          3.9768  -15.3648  -47.5406 C.3       5 UNK        -0.1800 
     49 N           3.8802  -15.2818  -45.1031 N.am      5 UNK        -0.5000 
     50 C           3.5705  -15.7036  -43.8697 C.2       4 UNK         0.5000 
     51 O           2.7095  -16.5549  -43.6479 O.2       4 UNK        -0.5000 
     52 CA          4.3398  -15.0889  -42.6846 C.3       4 UNK         0.1400 
     53 CB          5.4567  -16.0361  -42.2202 C.3       4 UNK        -0.1800 
     54 N           4.9221  -13.7801  -42.9818 N.am      4 UNK        -0.5000 
     55 C           4.2291  -12.6416  -43.1153 C.2       3 UNK         0.5000 
     56 O           3.0095  -12.5603  -42.9687 O.2       3 UNK        -0.5000 
     57 CA          5.0298  -11.3719  -43.4702 C.3       3 UNK         0.1400 
     58 CB          6.5065  -11.4197  -43.0161 C.3       3 UNK        -0.1800 
     59 N           4.9381  -11.0399  -44.8954 N.am      3 UNK        -0.5000 
     60 C           5.3129  -11.8009  -45.9332 C.2       2 UNK         0.5000 
     61 O           5.7617  -12.9444  -45.8285 O.2       2 UNK        -0.5000 
     62 CA          5.0832  -11.1849  -47.3192 C.3       2 UNK         0.1400 
     63 CB          5.9239  -11.8490  -48.4289 C.3       2 UNK        -0.1800 
     64 N           3.6607  -11.2954  -47.6072 N.am      2 UNK        -0.5000 
     65 C           2.9745  -10.5927  -48.5175 C.2       1 UNK         0.5000 
     66 O           3.4785   -9.7453  -49.2561 O.2       1 UNK        -0.5000 
     67 C          -2.3139  -22.4622  -46.8960 C.2       11 UNK         0.5000 
     68 O          -2.2096  -23.0890  -47.9493 O.2       11 UNK        -0.5000 
     69 N          -3.2587  -22.7249  -45.9794 N.am      12 UNK        -0.5000 
     70 CA         -4.1950  -23.8489  -46.0706 C.3       12 UNK         0.1400 
     71 CB         -5.2242  -23.7876  -44.9323 C.3       12 UNK        -0.1800 
     72 C          -3.4728  -25.2075  -46.0807 C.2       12 UNK         0.5000 
     73 O          -3.7572  -26.0368  -46.9472 O.2       12 UNK        -0.5000 
     74 N          -2.5167  -25.3792  -45.1542 N.am      13 UNK        -0.5000 
     75 CA         -1.6492  -26.5550  -45.0583 C.3       13 UNK         0.1400 
     76 CB         -0.8132  -26.4762  -43.7723 C.3       13 UNK        -0.1800 
     77 C          -0.7466  -26.7419  -46.2931 C.2       13 UNK         0.5000 
     78 O          -0.5299  -27.8778  -46.7172 O.2       13 UNK        -0.5000 
     79 N          -0.2902  -25.6328  -46.8914 N.am      14 UNK        -0.5000 
     80 CA          0.4575  -25.5775  -48.1510 C.3       14 UNK         0.1400 
     81 CB          1.2411  -24.2547  -48.2119 C.3       14 UNK        -0.1800 
     82 C          -0.4443  -25.7857  -49.3907 C.2       14 UNK         0.5000 
     83 O          -0.3880  -24.9995  -50.3392 O.2       14 UNK        -0.5000 
     84 N          -1.2570  -26.8513  -49.3580 N.am      15 UNK        -0.5000 
     85 CA         -2.1512  -27.3373  -50.4122 C.3       15 UNK         0.1400 
     86 CB         -1.3225  -27.9704  -51.5497 C.3       15 UNK        -0.1800 
     87 C          -3.1405  -26.2691  -50.9211 C.2       15 UNK         0.5000 
     88 O          -3.2892  -26.1038  -52.1326 O.2       15 UNK        -0.5000 
     89 N          -3.7799  -25.5474  -49.9874 N.am      16 UNK        -0.5000 
     90 CA         -4.7206  -24.4475  -50.2372 C.3       16 UNK         0.1400 
     91 CB         -6.0361  -24.9818  -50.8415 C.3       16 UNK        -0.1800 
     92 C          -4.0876  -23.3212  -51.0799 C.2       16 UNK         0.5000 
     93 O          -4.6052  -22.9676  -52.1410 O.2       16 UNK        -0.5000 
     94 N          -2.9493  -22.8090  -50.5955 N.am      17 UNK        -0.5000 
     95 CA         -2.1023  -21.7848  -51.2087 C.3       17 UNK         0.1400 
     96 CB         -2.8402  -20.4303  -51.2334 C.3       17 UNK        -0.1800 
     97 C          -1.5819  -22.2162  -52.5941 C.2       17 UNK         0.5000 
     98 O          -1.6699  -21.4484  -53.5517 O.2       17 UNK        -0.5000 
     99 N          -1.0950  -23.4634  -52.6834 N.am      18 UNK        -0.5000 
    100 CA        -0.6789  -24.1552  -53.9097 C.3       18 UNK         0.1400 
    101 CB         0.6377  -23.5591  -54.4486 C.3       18 UNK        -0.1800 
    102 C         -1.8059  -24.2010  -54.9670 C.2       18 UNK         0.5000 
    103 O         -1.5826  -23.8884  -56.1379 O.2       18 UNK        -0.5000 
    104 N         -3.0083  -24.5650  -54.5026 N.am      19 UNK        -0.5000 
    105 CA        -4.2791  -24.6574  -55.2240 C.3       19 UNK         0.1400 
    106 CB        -4.1985  -25.7060  -56.3530 C.3       19 UNK        -0.1800 
    107 C         -4.8612  -23.3098  -55.7064 C.2       19 UNK         0.5000 
    108 O         -5.8094  -23.3215  -56.4937 O.2       19 UNK        -0.5000 
    109 N         -4.3348  -22.1735  -55.2228 N.am      20 UNK        -0.5000 
    110 CA        -4.8878  -20.8423  -55.4970 C.3       20 UNK         0.1400 
    111 CB        -3.8349  -19.7638  -55.2036 C.3       20 UNK        -0.1800 
    112 C         -6.1788  -20.5617  -54.7033 C.2       20 UNK         0.5000 
    113 O         -7.0052  -19.7719  -55.1612 O.2       20 UNK        -0.5000 
    114 N         -6.3269  -21.2135  -53.5389 N.am      21 UNK        -0.5000 
    115 CA        -7.4795  -21.1874  -52.6316 C.3       21 UNK         0.1400 
    116 CB        -8.7128  -21.8236  -53.3052 C.3       21 UNK        -0.1800 
    117 C         -7.7824  -19.8049  -52.0125 C.2       21 UNK         0.5000 
    118 O         -8.9060  -19.5728  -51.5625 O.2       21 UNK        -0.5000 
    119 N         -6.7805  -18.9169  -51.9765 N.am      22 UNK        -0.5000 
    120 CA        -6.8739  -17.5685  -51.3922 C.3       22 UNK         0.1400 
    121 C         -6.7697  -17.5157  -49.8387 C.2       22 UNK         0.5000 
    122 N         -6.4499  -18.6066  -49.1528 N.am      22 UNK        -0.7600 
    123 O         -6.9961  -16.4658  -49.2437 O.2       22 UNK        -0.5000 
    124 C124       -5.9063  -16.5720  -52.0829 C.3       23 UNK        -0.0398 
    125 S125       -4.1456  -17.0547  -52.0167 S.3       23 UNK        -0.2404 
    126 C126       -3.5499  -15.9988  -50.6578 C.3       23 UNK        -0.0205 
    127 H127        0.9727  -10.6715  -44.1737 H         1 UNK         0.0600 
    128 H128        0.1695  -12.0364  -44.9416 H         1 UNK         0.0600 
    129 H129       -0.7246  -10.5463  -44.6485 H         1 UNK         0.0600 
    130 H130        0.9288  -12.2535  -47.0660 H         1 UNK         0.3000 
    131 H131        0.9846   -9.9246  -48.8644 H         1 UNK         0.0600 
    132 H132        0.0022  -12.0763  -49.6841 H         1 UNK         0.0800 
    133 H133        1.2589  -11.4140  -50.6861 H         1 UNK         0.0800 
    134 H134        2.0336  -14.8764  -51.6273 H         1 UNK         0.0800 
    135 H135        0.7806  -13.6752  -51.7853 H         1 UNK         0.0800 
    136 H136       -1.4902  -14.3275  -51.3186 H         1 UNK         0.1150 
    137 H137       -2.3207  -18.0977  -49.4635 H         1 UNK         0.1150 
    138 H138        1.7281  -16.7355  -49.8367 H         1 UNK         0.1150 
    139 H139       -0.1420  -19.7069  -49.4339 H         1 UNK         0.0800 
    140 H140        1.3385  -18.9093  -48.9915 H         1 UNK         0.0800 
    141 H141       -2.0476  -20.0709  -48.1438 H         1 UNK         0.0800 
    142 H142       -2.4307  -19.5330  -46.5270 H         1 UNK         0.0800 
    143 H143       -0.3609  -21.6875  -47.1035 H         1 UNK         0.0600 
    144 H144       -1.2213  -20.5087  -44.6392 H         1 UNK         0.3000 
    145 H145        0.3342  -23.0362  -42.5998 H         1 UNK         0.0600 
    146 H146        1.2972  -20.9110  -41.7101 H         1 UNK         0.0600 
    147 H147        0.8450  -20.0704  -43.1933 H         1 UNK         0.0600 
    148 H148        2.0446  -21.3537  -43.2377 H         1 UNK         0.0600 
    149 H149       -1.2799  -20.7136  -42.0410 H         1 UNK         0.3000 
    150 H150       -4.3685  -22.4469  -41.6805 H         1 UNK         0.0600 
    151 H151       -3.1151  -22.9127  -39.5692 H         1 UNK         0.0600 
    152 H152       -4.1862  -21.5328  -39.3883 H         1 UNK         0.0600 
    153 H153       -2.4517  -21.2831  -39.5897 H         1 UNK         0.0600 
    154 H154       -3.6402  -19.7444  -41.1518 H         1 UNK         0.3000 
    155 H155       -4.5038  -18.5008  -44.4145 H         1 UNK         0.0600 
    156 H156       -6.5536  -18.8134  -43.0015 H         1 UNK         0.0600 
    157 H157       -5.9801  -17.1544  -42.9843 H         1 UNK         0.0600 
    158 H158       -5.6778  -18.2059  -41.6014 H         1 UNK         0.0600 
    159 H159       -3.6129  -16.8948  -42.4292 H         1 UNK         0.3000 
    160 H160       -1.7264  -15.8458  -42.5057 H         1 UNK         0.0600 
    161 H161        0.6295  -17.8053  -42.4005 H         1 UNK         0.0600 
    162 H162       -0.4102  -17.3802  -41.0471 H         1 UNK         0.0600 
    163 H163        0.6245  -16.1589  -41.7730 H         1 UNK         0.0600 
    164 H164        0.3415  -16.5024  -44.4679 H         1 UNK         0.3000 
    165 H165       -1.2049  -16.1879  -47.1466 H         1 UNK         0.0600 
    166 H166       -0.8385  -13.2210  -46.6582 H         1 UNK         0.0600 
    167 H167       -0.5450  -13.9787  -48.2265 H         1 UNK         0.0600 
    168 H168       -2.1358  -14.0435  -47.4957 H         1 UNK         0.0600 
    169 H169        0.8966  -16.7109  -46.8684 H         1 UNK         0.3000 
    170 H170        2.9852  -16.7640  -46.2627 H         1 UNK         0.0600 
    171 H171        4.0961  -14.2905  -47.6705 H         1 UNK         0.0600 
    172 H172        4.9704  -15.8086  -47.4776 H         1 UNK         0.0600 
    173 H173        3.5014  -15.7559  -48.4399 H         1 UNK         0.0600 
    174 H174        4.5675  -14.5447  -45.2167 H         1 UNK         0.3000 
    175 H175        3.6305  -14.9697  -41.8629 H         1 UNK         0.0600 
    176 H176        6.2073  -16.1841  -42.9976 H         1 UNK         0.0600 
    177 H177        5.9605  -15.6485  -41.3346 H         1 UNK         0.0600 
    178 H178        5.0546  -17.0165  -41.9610 H         1 UNK         0.0600 
    179 H179        5.9158  -13.7565  -43.1595 H         1 UNK         0.3000 
    180 H180        4.5525  -10.5522  -42.9310 H         1 UNK         0.0600 
    181 H181        7.0895  -12.1611  -43.5630 H         1 UNK         0.0600 
    182 H182        6.5822  -11.6558  -41.9539 H         1 UNK         0.0600 
    183 H183        6.9876  -10.4529  -43.1639 H         1 UNK         0.0600 
    184 H184        4.5235  -10.1409  -45.0979 H         1 UNK         0.3000 
    185 H185        5.3568  -10.1291  -47.2660 H         1 UNK         0.0600 
    186 H186        5.6526  -12.8930  -48.5804 H         1 UNK         0.0600 
    187 H187        5.8006  -11.3341  -49.3814 H         1 UNK         0.0600 
    188 H188        6.9855  -11.8189  -48.1812 H         1 UNK         0.0600 
    189 H189        3.1514  -11.9602  -47.0375 H         1 UNK         0.3000 
    190 H190       -3.3410  -22.1333  -45.1573 H         1 UNK         0.3000 
    191 H191       -4.7381  -23.7530  -47.0108 H         1 UNK         0.0600 
    192 H192       -5.8346  -22.8875  -45.0030 H         1 UNK         0.0600 
    193 H193       -4.7458  -23.7931  -43.9527 H         1 UNK         0.0600 
    194 H194       -5.9030  -24.6405  -44.9716 H         1 UNK         0.0600 
    195 H195       -2.3614  -24.6473  -44.4701 H         1 UNK         0.3000 
    196 H196       -2.2935  -27.4337  -44.9883 H         1 UNK         0.0600 
    197 H197       -1.4517  -26.4217  -42.8904 H         1 UNK         0.0600 
    198 H198       -0.1614  -25.6026  -43.7659 H         1 UNK         0.0600 
    199 H199       -0.1811  -27.3583  -43.6627 H         1 UNK         0.0600 
    200 H200       -0.4848  -24.7415  -46.4496 H         1 UNK         0.3000 
    201 H201        1.1873  -26.3895  -48.1504 H         1 UNK         0.0600 
    202 H202        1.8553  -24.1142  -47.3223 H         1 UNK         0.0600 
    203 H203        0.5731  -23.3990  -48.2993 H         1 UNK         0.0600 
    204 H204        1.9084  -24.2360  -49.0743 H         1 UNK         0.0600 
    205 H205       -1.2236  -27.4165  -48.5154 H         1 UNK         0.3000 
    206 H206       -2.7579  -28.1256  -49.9648 H         1 UNK         0.0600 
    207 H207       -0.6653  -28.7526  -51.1698 H         1 UNK         0.0600 
    208 H208       -0.7031  -27.2306  -52.0578 H         1 UNK         0.0600 
    209 H209       -1.9691  -28.4280  -52.2994 H         1 UNK         0.0600 
    210 H210       -3.5811  -25.7436  -49.0115 H         1 UNK         0.3000 
    211 H211       -4.9586  -24.0098  -49.2688 H         1 UNK         0.0600 
    212 H212       -5.8868  -25.4059  -51.8349 H         1 UNK         0.0600 
    213 H213       -6.7738  -24.1845  -50.9361 H         1 UNK         0.0600 
    214 H214       -6.4735  -25.7548  -50.2097 H         1 UNK         0.0600 
    215 H215       -2.6123  -23.1588  -49.6995 H         1 UNK         0.3000 
    216 H216       -1.2274  -21.6814  -50.5657 H         1 UNK         0.0600 
    217 H217       -2.1818  -19.6330  -51.5799 H         1 UNK         0.0600 
    218 H218       -3.1974  -20.1561  -50.2421 H         1 UNK         0.0600 
    219 H219       -3.7042  -20.4498  -51.8967 H         1 UNK         0.0600 
    220 H220       -1.0373  -24.0167  -51.8305 H         1 UNK         0.3000 
    221 H221       -0.4822  -25.1898  -53.6256 H         1 UNK         0.0600 
    222 H222        0.5095  -22.5299  -54.7854 H         1 UNK         0.0600 
    223 H223        1.4146  -23.5676  -53.6842 H         1 UNK         0.0600 
    224 H224        1.0094  -24.1367  -55.2956 H         1 UNK         0.0600 
    225 H225       -3.0694  -24.8407  -53.5247 H         1 UNK         0.3000 
    226 H226       -4.9929  -25.0306  -54.4881 H         1 UNK         0.0600 
    227 H227       -3.8073  -26.6539  -55.9831 H         1 UNK         0.0600 
    228 H228       -5.1846  -25.9071  -56.7730 H         1 UNK         0.0600 
    229 H229       -3.5588  -25.3736  -57.1708 H         1 UNK         0.0600 
    230 H230       -3.5546  -22.2251  -54.5790 H         1 UNK         0.3000 
    231 H231       -5.1332  -20.7844  -56.5596 H         1 UNK         0.0600 
    232 H232       -4.1941  -18.7784  -55.5027 H         1 UNK         0.0600 
    233 H233       -2.9101  -19.9535  -55.7488 H         1 UNK         0.0600 
    234 H234       -3.5942  -19.7101  -54.1424 H         1 UNK         0.0600 
    235 H235       -5.5768  -21.8352  -53.2406 H         1 UNK         0.3000 
    236 H236       -7.2049  -21.8269  -51.7921 H         1 UNK         0.0600 
    237 H237       -9.0919  -21.2065  -54.1202 H         1 UNK         0.0600 
    238 H238       -8.4750  -22.8070  -53.7113 H         1 UNK         0.0600 
    239 H239       -9.5260  -21.9582  -52.5912 H         1 UNK         0.0600 
    240 H240       -5.8837  -19.1747  -52.3608 H         1 UNK         0.3000 
    241 H241       -7.8787  -17.2002  -51.6083 H         1 UNK         0.0600 
    242 H242       -6.3989  -18.5607  -48.1480 H         1 UNK         0.3800 
    243 H243       -6.2685  -19.4745  -49.6280 H         1 UNK         0.3800 
    244 H244       -6.0313  -15.5667  -51.6769 H         1 UNK         0.0800 
    245 H245       -6.1777  -16.4896  -53.1361 H         1 UNK         0.0800 
    246 H246       -3.7637  -14.9540  -50.8886 H         1 UNK         0.0800 
    247 H247       -4.0946  -16.2325  -49.7423 H         1 UNK         0.0800 
@<TRIPOS>BOND
     1    1    2 1    
     2    1  127 1    
     3    1  128 1    
     4    1  129 1    
     5    2    3 2    
     6    2    4 am   BACKBONE|DICT|INTERRES
     7    4    5 1    
     8    4  130 1    
     9    5    6 1    
    10    5   65 1    
    11    5  131 1    
    12    6    7 1    
    13    6  132 1    
    14    6  133 1    
    15    7    8 1    
    16    8    9 1    
    17    8  134 1    
    18    8  135 1    
    19    9   10 ar   
    20    9   14 ar   
    21   10   11 ar   
    22   10  136 1    
    23   11   12 ar   
    24   11  126 1    
    25   12   13 ar   
    26   12  137 1    
    27   13   14 ar   
    28   13   15 1    
    29   14  138 1    
    30   15   16 1    
    31   15  139 1    
    32   15  140 1    
    33   16   17 1    
    34   17   18 1    
    35   17  141 1    
    36   17  142 1    
    37   18   19 1    
    38   18   67 1    
    39   18  143 1    
    40   19   20 am   BACKBONE|DICT|INTERRES
    41   19  144 1    
    42   20   21 2    
    43   20   22 1    
    44   22   23 1    
    45   22   24 1    
    46   22  145 1    
    47   23  146 1    
    48   23  147 1    
    49   23  148 1    
    50   24   25 am   BACKBONE|DICT|INTERRES
    51   24  149 1    
    52   25   26 2    
    53   25   27 1    
    54   27   28 1    
    55   27   29 1    
    56   27  150 1    
    57   28  151 1    
    58   28  152 1    
    59   28  153 1    
    60   29   30 am   BACKBONE|DICT|INTERRES
    61   29  154 1    
    62   30   31 2    
    63   30   32 1    
    64   32   33 1    
    65   32   34 1    
    66   32  155 1    
    67   33  156 1    
    68   33  157 1    
    69   33  158 1    
    70   34   35 am   BACKBONE|DICT|INTERRES
    71   34  159 1    
    72   35   36 2    
    73   35   37 1    
    74   37   38 1    
    75   37   39 1    
    76   37  160 1    
    77   38  161 1    
    78   38  162 1    
    79   38  163 1    
    80   39   40 am   BACKBONE|DICT|INTERRES
    81   39  164 1    
    82   40   41 2    
    83   40   42 1    
    84   42   43 1    
    85   42   44 1    
    86   42  165 1    
    87   43  166 1    
    88   43  167 1    
    89   43  168 1    
    90   44   45 am   BACKBONE|DICT|INTERRES
    91   44  169 1    
    92   45   46 2    
    93   45   47 1    
    94   47   48 1    
    95   47   49 1    
    96   47  170 1    
    97   48  171 1    
    98   48  172 1    
    99   48  173 1    
   100   49   50 am   BACKBONE|DICT|INTERRES
   101   49  174 1    
   102   50   51 2    
   103   50   52 1    
   104   52   53 1    
   105   52   54 1    
   106   52  175 1    
   107   53  176 1    
   108   53  177 1    
   109   53  178 1    
   110   54   55 am   BACKBONE|DICT|INTERRES
   111   54  179 1    
   112   55   56 2    
   113   55   57 1    
   114   57   58 1    
   115   57   59 1    
   116   57  180 1    
   117   58  181 1    
   118   58  182 1    
   119   58  183 1    
   120   59   60 am   BACKBONE|DICT|INTERRES
   121   59  184 1    
   122   60   61 2    
   123   60   62 1    
   124   62   63 1    
   125   62   64 1    
   126   62  185 1    
   127   63  186 1    
   128   63  187 1    
   129   63  188 1    
   130   64   65 am   BACKBONE|DICT|INTERRES
   131   64  189 1    
   132   65   66 2    
   133   67   68 2    
   134   67   69 am   BACKBONE|DICT|INTERRES
   135   69   70 1    
   136   69  190 1    
   137   70   71 1    
   138   70   72 1    
   139   70  191 1    
   140   71  192 1    
   141   71  193 1    
   142   71  194 1    
   143   72   73 2    
   144   72   74 am   BACKBONE|DICT|INTERRES
   145   74   75 1    
   146   74  195 1    
   147   75   76 1    
   148   75   77 1    
   149   75  196 1    
   150   76  197 1    
   151   76  198 1    
   152   76  199 1    
   153   77   78 2    
   154   77   79 am   BACKBONE|DICT|INTERRES
   155   79   80 1    
   156   79  200 1    
   157   80   81 1    
   158   80   82 1    
   159   80  201 1    
   160   81  202 1    
   161   81  203 1    
   162   81  204 1    
   163   82   83 2    
   164   82   84 am   BACKBONE|DICT|INTERRES
   165   84   85 1    
   166   84  205 1    
   167   85   86 1    
   168   85   87 1    
   169   85  206 1    
   170   86  207 1    
   171   86  208 1    
   172   86  209 1    
   173   87   88 2    
   174   87   89 am   BACKBONE|DICT|INTERRES
   175   89   90 1    
   176   89  210 1    
   177   90   91 1    
   178   90   92 1    
   179   90  211 1    
   180   91  212 1    
   181   91  213 1    
   182   91  214 1    
   183   92   93 2    
   184   92   94 am   BACKBONE|DICT|INTERRES
   185   94   95 1    
   186   94  215 1    
   187   95   96 1    
   188   95   97 1    
   189   95  216 1    
   190   96  217 1    
   191   96  218 1    
   192   96  219 1    
   193   97   98 2    
   194   97   99 am   BACKBONE|DICT|INTERRES
   195   99  100 1    
   196   99  220 1    
   197  100  101 1    
   198  100  102 1    
   199  100  221 1    
   200  101  222 1    
   201  101  223 1    
   202  101  224 1    
   203  102  103 2    
   204  102  104 am   BACKBONE|DICT|INTERRES
   205  104  105 1    
   206  104  225 1    
   207  105  106 1    
   208  105  107 1    
   209  105  226 1    
   210  106  227 1    
   211  106  228 1    
   212  106  229 1    
   213  107  108 2    
   214  107  109 am   BACKBONE|DICT|INTERRES
   215  109  110 1    
   216  109  230 1    
   217  110  111 1    
   218  110  112 1    
   219  110  231 1    
   220  111  232 1    
   221  111  233 1    
   222  111  234 1    
   223  112  113 2    
   224  112  114 am   BACKBONE|DICT|INTERRES
   225  114  115 1    
   226  114  235 1    
   227  115  116 1    
   228  115  117 1    
   229  115  236 1    
   230  116  237 1    
   231  116  238 1    
   232  116  239 1    
   233  117  118 2    
   234  117  119 am   BACKBONE|DICT|INTERRES
   235  119  120 1    
   236  119  240 1    
   237  120  121 1    
   238  120  124 1    
   239  120  241 1    
   240  121  122 am   BACKBONE|DICT|INTERRES
   241  121  123 2    
   242  122  242 1    
   243  122  243 1    
   244  124  125 1    
   245  124  244 1    
   246  124  245 1    
   247  125  126 1    
   248  126  246 1    
   249  126  247 1    
@<TRIPOS>SUBSTRUCTURE
     1 UNK         1 GROUP             0       ****    0 ROOT    
