@<TRIPOS>MOLECULE
3R540
247   249    1
SMALL
USER_CHARGES


@<TRIPOS>ATOM
      1 CA         10.3009  -12.4338  -46.7133 C.3       0 UNK        -0.1800 
      2 C           8.8364  -12.7865  -46.9335 C.2       0 UNK         0.5000 
      3 O           7.9613  -12.1890  -46.3060 O.2       0 UNK        -0.5000 
      4 N           8.5674  -13.7584  -47.8143 N.am      1 UNK        -0.5000 
      5 CA          7.2202  -14.1815  -48.2072 C.3       1 UNK         0.1400 
      6 C6          7.2497  -15.5577  -48.9180 C.3       23 UNK        -0.0398 
      7 S7          5.6911  -16.4798  -48.7101 S.3       23 UNK        -0.2404 
      8 C8          4.9678  -16.3533  -50.3751 C.3       23 UNK        -0.0205 
      9 C9          3.6475  -17.1038  -50.4539 C.ar      23 UNK        -0.0193 
     10 C10         2.4348  -16.4153  -50.5544 C.ar      23 UNK        -0.1150 
     11 C11         1.2194  -17.1058  -50.6311 C.ar      23 UNK        -0.0193 
     12 C12         1.2337  -18.5076  -50.5867 C.ar      23 UNK        -0.1150 
     13 C13         2.4398  -19.2066  -50.4813 C.ar      23 UNK        -0.0193 
     14 C14         3.6422  -18.4992  -50.4312 C.ar      23 UNK        -0.1150 
     15 C15         2.4504  -20.7271  -50.4194 C.3       23 UNK        -0.0205 
     16 S16         3.0749  -21.3396  -48.8207 S.3       23 UNK        -0.2404 
     17 C17         1.7797  -20.7594  -47.6725 C.3       23 UNK        -0.0398 
     18 CA          0.8584  -21.8997  -47.1856 C.3       11 UNK         0.1400 
     19 N           0.1149  -21.5197  -45.9845 N.am      11 UNK        -0.5000 
     20 C          -0.5955  -22.3671  -45.2288 C.2       10 UNK         0.5000 
     21 O          -0.6692  -23.5769  -45.4439 O.2       10 UNK        -0.5000 
     22 CA         -1.3934  -21.7549  -44.0639 C.3       10 UNK         0.1400 
     23 CB         -0.4816  -21.4895  -42.8571 C.3       10 UNK        -0.1800 
     24 N          -2.0914  -20.5242  -44.4408 N.am      10 UNK        -0.5000 
     25 C          -3.0579  -20.4626  -45.3689 C.2       9 UNK         0.5000 
     26 O          -3.4793  -21.4419  -45.9824 O.2       9 UNK        -0.5000 
     27 CA         -3.6248  -19.0729  -45.7016 C.3       9 UNK         0.1400 
     28 CB         -4.6287  -18.6296  -44.6273 C.3       9 UNK        -0.1800 
     29 N          -2.5866  -18.0548  -45.8630 N.am      9 UNK        -0.5000 
     30 C          -1.6097  -18.1001  -46.7822 C.2       8 UNK         0.5000 
     31 O          -1.4809  -19.0082  -47.6026 O.2       8 UNK        -0.5000 
     32 CA         -0.5523  -16.9842  -46.7229 C.3       8 UNK         0.1400 
     33 CB         -1.1261  -15.6399  -47.1921 C.3       8 UNK        -0.1800 
     34 N          -0.0055  -16.8178  -45.3803 N.am      8 UNK        -0.5000 
     35 C           0.6297  -17.7578  -44.6701 C.2       7 UNK         0.5000 
     36 O           0.8817  -18.8876  -45.0866 O.2       7 UNK        -0.5000 
     37 CA          1.0020  -17.3773  -43.2287 C.3       7 UNK         0.1400 
     38 CB          2.2806  -16.5251  -43.1998 C.3       7 UNK        -0.1800 
     39 N          -0.0825  -16.6582  -42.5594 N.am      7 UNK        -0.5000 
     40 C          -1.2488  -17.2094  -42.1962 C.2       6 UNK         0.5000 
     41 O          -1.5317  -18.3945  -42.3730 O.2       6 UNK        -0.5000 
     42 CA         -2.2827  -16.2677  -41.5518 C.3       6 UNK         0.1400 
     43 CB         -1.9492  -16.0233  -40.0723 C.3       6 UNK        -0.1800 
     44 N          -2.3906  -14.9828  -42.2454 N.am      6 UNK        -0.5000 
     45 C          -2.8831  -14.8402  -43.4832 C.2       5 UNK         0.5000 
     46 O          -3.2964  -15.7761  -44.1660 O.2       5 UNK        -0.5000 
     47 CA         -2.8821  -13.4192  -44.0771 C.3       5 UNK         0.1400 
     48 CB         -4.0951  -12.6245  -43.5696 C.3       5 UNK        -0.1800 
     49 N          -1.6603  -12.6373  -43.8490 N.am      5 UNK        -0.5000 
     50 C          -0.4111  -13.0485  -44.1037 C.2       4 UNK         0.5000 
     51 O          -0.1068  -14.2129  -44.3660 O.2       4 UNK        -0.5000 
     52 CA          0.6979  -11.9808  -44.0606 C.3       4 UNK         0.1400 
     53 CB          1.3394  -11.9358  -42.6657 C.3       4 UNK        -0.1800 
     54 N           1.7370  -12.2649  -45.0550 N.am      4 UNK        -0.5000 
     55 C           1.5265  -12.3152  -46.3778 C.2       3 UNK         0.5000 
     56 O           0.4752  -11.9580  -46.9180 O.2       3 UNK        -0.5000 
     57 CA          2.6727  -12.8889  -47.2290 C.3       3 UNK         0.1400 
     58 CB          2.9581  -14.3517  -46.8369 C.3       3 UNK        -0.1800 
     59 N           2.2748  -12.8535  -48.6366 N.am      3 UNK        -0.5000 
     60 C           2.9247  -12.4090  -49.7226 C.2       2 UNK         0.5000 
     61 O           2.3517  -12.3518  -50.8088 O.2       2 UNK        -0.5000 
     62 CA          4.4067  -11.9905  -49.6673 C.3       2 UNK         0.1400 
     63 CB          4.5847  -10.5511  -49.1448 C.3       2 UNK        -0.1800 
     64 N           5.2286  -12.9407  -48.9224 N.am      2 UNK        -0.5000 
     65 C           6.5453  -13.1054  -49.0850 C.2       1 UNK         0.5000 
     66 O           7.2208  -12.4691  -49.8986 O.2       1 UNK        -0.5000 
     67 C          -0.0804  -22.4026  -48.3008 C.2       11 UNK         0.5000 
     68 O           0.1858  -23.4499  -48.8876 O.2       11 UNK        -0.5000 
     69 N          -1.1825  -21.6822  -48.5476 N.am      12 UNK        -0.5000 
     70 CA         -2.2136  -22.0643  -49.5112 C.3       12 UNK         0.1400 
     71 CB         -3.1908  -20.8963  -49.7006 C.3       12 UNK        -0.1800 
     72 C          -2.9405  -23.3711  -49.1345 C.2       12 UNK         0.5000 
     73 O          -3.2411  -24.1743  -50.0175 O.2       12 UNK        -0.5000 
     74 N          -3.1833  -23.5921  -47.8354 N.am      13 UNK        -0.5000 
     75 CA         -3.7046  -24.8498  -47.2983 C.3       13 UNK         0.1400 
     76 CB         -4.0882  -24.6755  -45.8224 C.3       13 UNK        -0.1800 
     77 C          -2.7222  -26.0198  -47.4881 C.2       13 UNK         0.5000 
     78 O          -3.1386  -27.0827  -47.9486 O.2       13 UNK        -0.5000 
     79 N          -1.4339  -25.7925  -47.1918 N.am      14 UNK        -0.5000 
     80 CA         -0.3457  -26.7541  -47.4035 C.3       14 UNK         0.1400 
     81 CB          0.9463  -26.2188  -46.7682 C.3       14 UNK        -0.1800 
     82 C          -0.1226  -27.1032  -48.8893 C.2       14 UNK         0.5000 
     83 O           0.1938  -28.2504  -49.2047 O.2       14 UNK        -0.5000 
     84 N          -0.3431  -26.1230  -49.7755 N.am      15 UNK        -0.5000 
     85 CA         -0.3389  -26.2653  -51.2336 C.3       15 UNK         0.1400 
     86 CB         -0.1640  -24.8742  -51.8651 C.3       15 UNK        -0.1800 
     87 C          -1.5949  -26.9676  -51.7981 C.2       15 UNK         0.5000 
     88 O          -1.6701  -27.1664  -53.0113 O.2       15 UNK        -0.5000 
     89 N          -2.5497  -27.3274  -50.9265 N.am      16 UNK        -0.5000 
     90 CA         -3.8098  -28.0205  -51.2078 C.3       16 UNK         0.1400 
     91 CB         -3.5651  -29.4049  -51.8453 C.3       16 UNK        -0.1800 
     92 C          -4.8310  -27.1642  -51.9843 C.2       16 UNK         0.5000 
     93 O          -5.7028  -27.7156  -52.6581 O.2       16 UNK        -0.5000 
     94 N          -4.7469  -25.8341  -51.8379 N.am      17 UNK        -0.5000 
     95 CA         -5.7222  -24.8750  -52.3648 C.3       17 UNK         0.1400 
     96 CB         -4.9899  -23.5946  -52.7998 C.3       17 UNK        -0.1800 
     97 C          -6.8331  -24.5550  -51.3426 C.2       17 UNK         0.5000 
     98 O          -7.6655  -23.6897  -51.6130 O.2       17 UNK        -0.5000 
     99 N          -6.8171  -25.2291  -50.1796 N.am      18 UNK        -0.5000 
    100 CA        -7.7703  -25.1116  -49.0667 C.3       18 UNK         0.1400 
    101 CB        -9.1524  -25.6585  -49.4801 C.3       18 UNK        -0.1800 
    102 C         -7.8393  -23.6844  -48.4824 C.2       18 UNK         0.5000 
    103 O         -8.9166  -23.2128  -48.1184 O.2       18 UNK        -0.5000 
    104 N         -6.6758  -23.0176  -48.4515 N.am      19 UNK        -0.5000 
    105 CA        -6.4165  -21.6335  -48.0349 C.3       19 UNK         0.1400 
    106 CB        -6.9030  -21.3639  -46.5979 C.3       19 UNK        -0.1800 
    107 C         -6.9290  -20.5529  -49.0112 C.2       19 UNK         0.5000 
    108 O         -6.5420  -19.3930  -48.8692 O.2       19 UNK        -0.5000 
    109 N         -7.7592  -20.9266  -49.9938 N.am      20 UNK        -0.5000 
    110 CA        -8.5055  -20.0118  -50.8611 C.3       20 UNK         0.1400 
    111 CB        -9.5747  -20.8126  -51.6203 C.3       20 UNK        -0.1800 
    112 C         -7.6475  -19.1937  -51.8446 C.2       20 UNK         0.5000 
    113 O         -8.1299  -18.1800  -52.3520 O.2       20 UNK        -0.5000 
    114 N         -6.4105  -19.6377  -52.1099 N.am      21 UNK        -0.5000 
    115 CA        -5.4825  -18.9753  -53.0288 C.3       21 UNK         0.1400 
    116 CB        -4.2903  -19.8975  -53.3258 C.3       21 UNK        -0.1800 
    117 C         -4.9965  -17.5988  -52.5357 C.2       21 UNK         0.5000 
    118 O         -4.8116  -16.7050  -53.3633 O.2       21 UNK        -0.5000 
    119 N         -4.8046  -17.4435  -51.2184 N.am      22 UNK        -0.5000 
    120 CA        -4.2994  -16.2025  -50.6053 C.3       22 UNK         0.1400 
    121 C         -4.5707  -16.0491  -49.0803 C.2       22 UNK         0.5000 
    122 N         -5.2447  -16.9653  -48.3972 N.am      22 UNK        -0.7600 
    123 O         -4.1951  -15.0374  -48.4956 O.2       22 UNK        -0.5000 
    124 C124       -2.8263  -15.8756  -50.9957 C.3       23 UNK        -0.0398 
    125 S125       -1.6336  -17.2119  -50.6435 S.3       23 UNK        -0.2404 
    126 C126       -0.0641  -16.2868  -50.7902 C.3       23 UNK        -0.0205 
    127 H127       10.9626  -13.0483  -47.3242 H         1 UNK         0.0600 
    128 H128       10.5694  -12.5816  -45.6673 H         1 UNK         0.0600 
    129 H129       10.4769  -11.3886  -46.9674 H         1 UNK         0.0600 
    130 H130        9.3285  -14.1859  -48.3223 H         1 UNK         0.3000 
    131 H131        6.6434  -14.2815  -47.2844 H         1 UNK         0.0600 
    132 H132        8.0274  -16.1843  -48.4787 H         1 UNK         0.0800 
    133 H133        7.5110  -15.4664  -49.9742 H         1 UNK         0.0800 
    134 H134        5.6619  -16.7691  -51.1070 H         1 UNK         0.0800 
    135 H135        4.8296  -15.3034  -50.6369 H         1 UNK         0.0800 
    136 H136        2.4360  -15.3347  -50.5840 H         1 UNK         0.1150 
    137 H137        0.3120  -19.0684  -50.6361 H         1 UNK         0.1150 
    138 H138        4.5767  -19.0369  -50.3497 H         1 UNK         0.1150 
    139 H139        1.4549  -21.1353  -50.6012 H         1 UNK         0.0800 
    140 H140        3.0881  -21.1101  -51.2171 H         1 UNK         0.0800 
    141 H141        1.2006  -19.9430  -48.1062 H         1 UNK         0.0800 
    142 H142        2.3034  -20.3248  -46.8203 H         1 UNK         0.0800 
    143 H143        1.4950  -22.7395  -46.8982 H         1 UNK         0.0600 
    144 H144        0.1538  -20.5386  -45.7198 H         1 UNK         0.3000 
    145 H145       -2.1481  -22.4842  -43.7626 H         1 UNK         0.0600 
    146 H146        0.2693  -20.7305  -43.0778 H         1 UNK         0.0600 
    147 H147       -1.0575  -21.1491  -41.9965 H         1 UNK         0.0600 
    148 H148        0.0449  -22.3966  -42.5576 H         1 UNK         0.0600 
    149 H149       -1.8174  -19.6771  -43.9539 H         1 UNK         0.3000 
    150 H150       -4.1572  -19.1545  -46.6514 H         1 UNK         0.0600 
    151 H151       -5.3875  -19.3932  -44.4546 H         1 UNK         0.0600 
    152 H152       -5.1464  -17.7181  -44.9256 H         1 UNK         0.0600 
    153 H153       -4.1365  -18.4381  -43.6731 H         1 UNK         0.0600 
    154 H154       -2.6336  -17.2614  -45.2298 H         1 UNK         0.3000 
    155 H155        0.2667  -17.2612  -47.3902 H         1 UNK         0.0600 
    156 H156       -1.5681  -15.7254  -48.1816 H         1 UNK         0.0600 
    157 H157       -0.3540  -14.8731  -47.2451 H         1 UNK         0.0600 
    158 H158       -1.9073  -15.2794  -46.5237 H         1 UNK         0.0600 
    159 H159       -0.1391  -15.9034  -44.9508 H         1 UNK         0.3000 
    160 H160        1.1937  -18.2997  -42.6764 H         1 UNK         0.0600 
    161 H161        2.1494  -15.5774  -43.7230 H         1 UNK         0.0600 
    162 H162        3.1087  -17.0502  -43.6776 H         1 UNK         0.0600 
    163 H163        2.5833  -16.3035  -42.1764 H         1 UNK         0.0600 
    164 H164        0.0301  -15.6593  -42.4632 H         1 UNK         0.3000 
    165 H165       -3.2555  -16.7619  -41.6020 H         1 UNK         0.0600 
    166 H166       -2.7236  -15.4290  -39.5870 H         1 UNK         0.0600 
    167 H167       -1.8759  -16.9661  -39.5285 H         1 UNK         0.0600 
    168 H168       -0.9997  -15.5002  -39.9525 H         1 UNK         0.0600 
    169 H169       -2.0555  -14.1641  -41.7597 H         1 UNK         0.3000 
    170 H170       -2.9857  -13.5281  -45.1585 H         1 UNK         0.0600 
    171 H171       -5.0221  -13.1737  -43.7409 H         1 UNK         0.0600 
    172 H172       -4.0255  -12.4227  -42.5001 H         1 UNK         0.0600 
    173 H173       -4.1864  -11.6693  -44.0869 H         1 UNK         0.0600 
    174 H174       -1.8028  -11.6663  -43.6119 H         1 UNK         0.3000 
    175 H175        0.2638  -11.0048  -44.2866 H         1 UNK         0.0600 
    176 H176        1.7935  -12.8918  -42.4005 H         1 UNK         0.0600 
    177 H177        2.1131  -11.1697  -42.6114 H         1 UNK         0.0600 
    178 H178        0.5976  -11.7017  -41.9010 H         1 UNK         0.0600 
    179 H179        2.6175  -12.5945  -44.6893 H         1 UNK         0.3000 
    180 H180        3.5507  -12.2738  -47.0401 H         1 UNK         0.0600 
    181 H181        2.0480  -14.9529  -46.8343 H         1 UNK         0.0600 
    182 H182        3.3946  -14.4194  -45.8400 H         1 UNK         0.0600 
    183 H183        3.6525  -14.8267  -47.5258 H         1 UNK         0.0600 
    184 H184        1.2864  -13.0322  -48.7485 H         1 UNK         0.3000 
    185 H185        4.7536  -12.0022  -50.7032 H         1 UNK         0.0600 
    186 H186        5.6079  -10.2041  -49.2890 H         1 UNK         0.0600 
    187 H187        3.9342   -9.8596  -49.6817 H         1 UNK         0.0600 
    188 H188        4.3532  -10.4600  -48.0847 H         1 UNK         0.0600 
    189 H189        4.7276  -13.5440  -48.2856 H         1 UNK         0.3000 
    190 H190       -1.3242  -20.8025  -48.0541 H         1 UNK         0.3000 
    191 H191       -1.7235  -22.2405  -50.4704 H         1 UNK         0.0600 
    192 H192       -2.7096  -20.0767  -50.2338 H         1 UNK         0.0600 
    193 H193       -4.0669  -21.1949  -50.2763 H         1 UNK         0.0600 
    194 H194       -3.5308  -20.4959  -48.7466 H         1 UNK         0.0600 
    195 H195       -2.9788  -22.8584  -47.1614 H         1 UNK         0.3000 
    196 H196       -4.6138  -25.0979  -47.8487 H         1 UNK         0.0600 
    197 H197       -4.4909  -25.6017  -45.4108 H         1 UNK         0.0600 
    198 H198       -4.8526  -23.9080  -45.7040 H         1 UNK         0.0600 
    199 H199       -3.2319  -24.3893  -45.2121 H         1 UNK         0.0600 
    200 H200       -1.1756  -24.9005  -46.7785 H         1 UNK         0.3000 
    201 H201       -0.6176  -27.6774  -46.8880 H         1 UNK         0.0600 
    202 H202        0.8154  -26.0383  -45.7011 H         1 UNK         0.0600 
    203 H203        1.2650  -25.2836  -47.2283 H         1 UNK         0.0600 
    204 H204        1.7620  -26.9341  -46.8798 H         1 UNK         0.0600 
    205 H205       -0.5029  -25.1853  -49.4179 H         1 UNK         0.3000 
    206 H206        0.5226  -26.8745  -51.5137 H         1 UNK         0.0600 
    207 H207        0.7338  -24.3801  -51.4932 H         1 UNK         0.0600 
    208 H208       -0.0692  -24.9432  -52.9494 H         1 UNK         0.0600 
    209 H209       -1.0157  -24.2288  -51.6521 H         1 UNK         0.0600 
    210 H210       -2.4034  -27.0993  -49.9503 H         1 UNK         0.3000 
    211 H211       -4.2650  -28.1984  -50.2329 H         1 UNK         0.0600 
    212 H212       -3.1985  -29.3239  -52.8687 H         1 UNK         0.0600 
    213 H213       -4.4857  -29.9886  -51.8765 H         1 UNK         0.0600 
    214 H214       -2.8383  -29.9802  -51.2717 H         1 UNK         0.0600 
    215 H215       -4.0145  -25.4412  -51.2513 H         1 UNK         0.3000 
    216 H216       -6.2088  -25.2929  -53.2482 H         1 UNK         0.0600 
    217 H217       -5.6719  -22.9208  -53.3194 H         1 UNK         0.0600 
    218 H218       -4.1720  -23.8190  -53.4846 H         1 UNK         0.0600 
    219 H219       -4.5778  -23.0496  -51.9515 H         1 UNK         0.0600 
    220 H220       -6.0809  -25.9085  -50.0579 H         1 UNK         0.3000 
    221 H221       -7.3905  -25.7477  -48.2659 H         1 UNK         0.0600 
    222 H222       -9.6232  -25.0363  -50.2420 H         1 UNK         0.0600 
    223 H223       -9.0729  -26.6707  -49.8767 H         1 UNK         0.0600 
    224 H224       -9.8297  -25.6984  -48.6263 H         1 UNK         0.0600 
    225 H225       -5.8718  -23.5039  -48.8202 H         1 UNK         0.3000 
    226 H226       -5.3342  -21.5400  -48.0145 H         1 UNK         0.0600 
    227 H227       -6.4847  -22.0850  -45.8963 H         1 UNK         0.0600 
    228 H228       -6.5911  -20.3735  -46.2670 H         1 UNK         0.0600 
    229 H229       -7.9890  -21.3996  -46.5153 H         1 UNK         0.0600 
    230 H230       -7.9902  -21.9077  -50.0816 H         1 UNK         0.3000 
    231 H231       -9.0177  -19.2958  -50.2150 H         1 UNK         0.0600 
    232 H232       -9.1256  -21.5329  -52.3048 H         1 UNK         0.0600 
    233 H233      -10.2118  -20.1534  -52.2113 H         1 UNK         0.0600 
    234 H234      -10.2219  -21.3597  -50.9342 H         1 UNK         0.0600 
    235 H235       -6.1011  -20.4871  -51.6638 H         1 UNK         0.3000 
    236 H236       -6.0125  -18.8106  -53.9695 H         1 UNK         0.0600 
    237 H237       -4.6154  -20.8242  -53.7964 H         1 UNK         0.0600 
    238 H238       -3.5909  -19.4188  -54.0126 H         1 UNK         0.0600 
    239 H239       -3.7353  -20.1499  -52.4240 H         1 UNK         0.0600 
    240 H240       -4.9869  -18.2142  -50.5934 H         1 UNK         0.3000 
    241 H241       -4.9084  -15.4026  -51.0307 H         1 UNK         0.0600 
    242 H242       -5.3993  -16.7861  -47.4195 H         1 UNK         0.3800 
    243 H243       -5.6565  -17.8011  -48.8020 H         1 UNK         0.3800 
    244 H244       -2.7671  -15.6585  -52.0623 H         1 UNK         0.0800 
    245 H245       -2.4935  -14.9601  -50.5037 H         1 UNK         0.0800 
    246 H246       -0.0621  -15.4851  -50.0510 H         1 UNK         0.0800 
    247 H247       -0.0395  -15.8056  -51.7688 H         1 UNK         0.0800 
@<TRIPOS>BOND
     1    1    2 1    
     2    1  127 1    
     3    1  128 1    
     4    1  129 1    
     5    2    3 2    
     6    2    4 am   BACKBONE|DICT|INTERRES
     7    4    5 1    
     8    4  130 1    
     9    5    6 1    
    10    5   65 1    
    11    5  131 1    
    12    6    7 1    
    13    6  132 1    
    14    6  133 1    
    15    7    8 1    
    16    8    9 1    
    17    8  134 1    
    18    8  135 1    
    19    9   10 ar   
    20    9   14 ar   
    21   10   11 ar   
    22   10  136 1    
    23   11   12 ar   
    24   11  126 1    
    25   12   13 ar   
    26   12  137 1    
    27   13   14 ar   
    28   13   15 1    
    29   14  138 1    
    30   15   16 1    
    31   15  139 1    
    32   15  140 1    
    33   16   17 1    
    34   17   18 1    
    35   17  141 1    
    36   17  142 1    
    37   18   19 1    
    38   18   67 1    
    39   18  143 1    
    40   19   20 am   BACKBONE|DICT|INTERRES
    41   19  144 1    
    42   20   21 2    
    43   20   22 1    
    44   22   23 1    
    45   22   24 1    
    46   22  145 1    
    47   23  146 1    
    48   23  147 1    
    49   23  148 1    
    50   24   25 am   BACKBONE|DICT|INTERRES
    51   24  149 1    
    52   25   26 2    
    53   25   27 1    
    54   27   28 1    
    55   27   29 1    
    56   27  150 1    
    57   28  151 1    
    58   28  152 1    
    59   28  153 1    
    60   29   30 am   BACKBONE|DICT|INTERRES
    61   29  154 1    
    62   30   31 2    
    63   30   32 1    
    64   32   33 1    
    65   32   34 1    
    66   32  155 1    
    67   33  156 1    
    68   33  157 1    
    69   33  158 1    
    70   34   35 am   BACKBONE|DICT|INTERRES
    71   34  159 1    
    72   35   36 2    
    73   35   37 1    
    74   37   38 1    
    75   37   39 1    
    76   37  160 1    
    77   38  161 1    
    78   38  162 1    
    79   38  163 1    
    80   39   40 am   BACKBONE|DICT|INTERRES
    81   39  164 1    
    82   40   41 2    
    83   40   42 1    
    84   42   43 1    
    85   42   44 1    
    86   42  165 1    
    87   43  166 1    
    88   43  167 1    
    89   43  168 1    
    90   44   45 am   BACKBONE|DICT|INTERRES
    91   44  169 1    
    92   45   46 2    
    93   45   47 1    
    94   47   48 1    
    95   47   49 1    
    96   47  170 1    
    97   48  171 1    
    98   48  172 1    
    99   48  173 1    
   100   49   50 am   BACKBONE|DICT|INTERRES
   101   49  174 1    
   102   50   51 2    
   103   50   52 1    
   104   52   53 1    
   105   52   54 1    
   106   52  175 1    
   107   53  176 1    
   108   53  177 1    
   109   53  178 1    
   110   54   55 am   BACKBONE|DICT|INTERRES
   111   54  179 1    
   112   55   56 2    
   113   55   57 1    
   114   57   58 1    
   115   57   59 1    
   116   57  180 1    
   117   58  181 1    
   118   58  182 1    
   119   58  183 1    
   120   59   60 am   BACKBONE|DICT|INTERRES
   121   59  184 1    
   122   60   61 2    
   123   60   62 1    
   124   62   63 1    
   125   62   64 1    
   126   62  185 1    
   127   63  186 1    
   128   63  187 1    
   129   63  188 1    
   130   64   65 am   BACKBONE|DICT|INTERRES
   131   64  189 1    
   132   65   66 2    
   133   67   68 2    
   134   67   69 am   BACKBONE|DICT|INTERRES
   135   69   70 1    
   136   69  190 1    
   137   70   71 1    
   138   70   72 1    
   139   70  191 1    
   140   71  192 1    
   141   71  193 1    
   142   71  194 1    
   143   72   73 2    
   144   72   74 am   BACKBONE|DICT|INTERRES
   145   74   75 1    
   146   74  195 1    
   147   75   76 1    
   148   75   77 1    
   149   75  196 1    
   150   76  197 1    
   151   76  198 1    
   152   76  199 1    
   153   77   78 2    
   154   77   79 am   BACKBONE|DICT|INTERRES
   155   79   80 1    
   156   79  200 1    
   157   80   81 1    
   158   80   82 1    
   159   80  201 1    
   160   81  202 1    
   161   81  203 1    
   162   81  204 1    
   163   82   83 2    
   164   82   84 am   BACKBONE|DICT|INTERRES
   165   84   85 1    
   166   84  205 1    
   167   85   86 1    
   168   85   87 1    
   169   85  206 1    
   170   86  207 1    
   171   86  208 1    
   172   86  209 1    
   173   87   88 2    
   174   87   89 am   BACKBONE|DICT|INTERRES
   175   89   90 1    
   176   89  210 1    
   177   90   91 1    
   178   90   92 1    
   179   90  211 1    
   180   91  212 1    
   181   91  213 1    
   182   91  214 1    
   183   92   93 2    
   184   92   94 am   BACKBONE|DICT|INTERRES
   185   94   95 1    
   186   94  215 1    
   187   95   96 1    
   188   95   97 1    
   189   95  216 1    
   190   96  217 1    
   191   96  218 1    
   192   96  219 1    
   193   97   98 2    
   194   97   99 am   BACKBONE|DICT|INTERRES
   195   99  100 1    
   196   99  220 1    
   197  100  101 1    
   198  100  102 1    
   199  100  221 1    
   200  101  222 1    
   201  101  223 1    
   202  101  224 1    
   203  102  103 2    
   204  102  104 am   BACKBONE|DICT|INTERRES
   205  104  105 1    
   206  104  225 1    
   207  105  106 1    
   208  105  107 1    
   209  105  226 1    
   210  106  227 1    
   211  106  228 1    
   212  106  229 1    
   213  107  108 2    
   214  107  109 am   BACKBONE|DICT|INTERRES
   215  109  110 1    
   216  109  230 1    
   217  110  111 1    
   218  110  112 1    
   219  110  231 1    
   220  111  232 1    
   221  111  233 1    
   222  111  234 1    
   223  112  113 2    
   224  112  114 am   BACKBONE|DICT|INTERRES
   225  114  115 1    
   226  114  235 1    
   227  115  116 1    
   228  115  117 1    
   229  115  236 1    
   230  116  237 1    
   231  116  238 1    
   232  116  239 1    
   233  117  118 2    
   234  117  119 am   BACKBONE|DICT|INTERRES
   235  119  120 1    
   236  119  240 1    
   237  120  121 1    
   238  120  124 1    
   239  120  241 1    
   240  121  122 am   BACKBONE|DICT|INTERRES
   241  121  123 2    
   242  122  242 1    
   243  122  243 1    
   244  124  125 1    
   245  124  244 1    
   246  124  245 1    
   247  125  126 1    
   248  126  246 1    
   249  126  247 1    
@<TRIPOS>SUBSTRUCTURE
     1 UNK         1 GROUP             0       ****    0 ROOT    
