@<TRIPOS>MOLECULE
3R540
247   249    1
SMALL
USER_CHARGES


@<TRIPOS>ATOM
      1 CA         -2.3523  -12.9858  -50.9970 C.3       0 UNK        -0.1800 
      2 C          -1.6596  -11.9469  -50.1269 C.2       0 UNK         0.5000 
      3 O          -2.1459  -10.8215  -50.0083 O.2       0 UNK        -0.5000 
      4 N          -0.5195  -12.3164  -49.5327 N.am      1 UNK        -0.5000 
      5 CA          0.2527  -11.4902  -48.6039 C.3       1 UNK         0.1400 
      6 C6          1.7275  -11.9631  -48.5072 C.3       23 UNK        -0.0398 
      7 S7          2.0272  -13.5062  -47.5709 S.3       23 UNK        -0.2404 
      8 C8          2.1192  -14.7603  -48.8949 C.3       23 UNK        -0.0205 
      9 C9          0.7776  -15.3316  -49.3573 C.ar      23 UNK        -0.0193 
     10 C10         0.7158  -15.9793  -50.5939 C.ar      23 UNK        -0.1150 
     11 C11        -0.4648  -16.5893  -51.0288 C.ar      23 UNK        -0.0193 
     12 C12        -1.6061  -16.5353  -50.2235 C.ar      23 UNK        -0.1150 
     13 C13        -1.5659  -15.8809  -48.9894 C.ar      23 UNK        -0.0193 
     14 C14        -0.3747  -15.2895  -48.5615 C.ar      23 UNK        -0.1150 
     15 C15        -2.8003  -15.8041  -48.1073 C.3       23 UNK        -0.0205 
     16 S16        -2.9128  -17.2414  -46.9981 S.3       23 UNK        -0.2404 
     17 C17        -4.1414  -18.2826  -47.8544 C.3       23 UNK        -0.0398 
     18 CA         -3.9319  -19.8030  -47.6678 C.3       11 UNK         0.1400 
     19 N          -2.6526  -20.2677  -48.2109 N.am      11 UNK        -0.5000 
     20 C          -2.3340  -21.5547  -48.4054 C.2       10 UNK         0.5000 
     21 O          -3.1211  -22.4833  -48.2172 O.2       10 UNK        -0.5000 
     22 CA         -0.8910  -21.8703  -48.8400 C.3       10 UNK         0.1400 
     23 CB         -0.8350  -22.0787  -50.3588 C.3       10 UNK        -0.1800 
     24 N           0.1017  -20.8609  -48.4544 N.am      10 UNK        -0.5000 
     25 C           0.3652  -20.4640  -47.2016 C.2       9 UNK         0.5000 
     26 O          -0.2684  -20.8433  -46.2144 O.2       9 UNK        -0.5000 
     27 CA          1.4732  -19.4143  -47.0404 C.3       9 UNK         0.1400 
     28 CB          0.8810  -18.0172  -47.2217 C.3       9 UNK        -0.1800 
     29 N           2.1152  -19.5011  -45.7303 N.am      9 UNK        -0.5000 
     30 C           3.0046  -20.4491  -45.4063 C.2       8 UNK         0.5000 
     31 O           3.3847  -21.3185  -46.1926 O.2       8 UNK        -0.5000 
     32 CA          3.5989  -20.4253  -43.9870 C.3       8 UNK         0.1400 
     33 CB          4.9979  -19.7896  -44.0005 C.3       8 UNK        -0.1800 
     34 N           2.7694  -19.7257  -43.0060 N.am      8 UNK        -0.5000 
     35 C           1.6913  -20.2691  -42.4178 C.2       7 UNK         0.5000 
     36 O           1.2537  -21.3786  -42.7234 O.2       7 UNK        -0.5000 
     37 CA          1.0096  -19.4934  -41.2709 C.3       7 UNK         0.1400 
     38 CB          0.7850  -20.4020  -40.0431 C.3       7 UNK        -0.1800 
     39 N           1.7663  -18.3017  -40.8913 N.am      7 UNK        -0.5000 
     40 C           1.3211  -17.2754  -40.1620 C.2       6 UNK         0.5000 
     41 O           0.2262  -17.2515  -39.5990 O.2       6 UNK        -0.5000 
     42 CA          2.2512  -16.0497  -40.0770 C.3       6 UNK         0.1400 
     43 CB          3.5323  -16.3409  -39.2702 C.3       6 UNK        -0.1800 
     44 N           2.5390  -15.4830  -41.4004 N.am      6 UNK        -0.5000 
     45 C           3.2561  -16.0050  -42.4070 C.2       5 UNK         0.5000 
     46 O           3.9155  -17.0437  -42.3170 O.2       5 UNK        -0.5000 
     47 CA          3.1007  -15.2891  -43.7678 C.3       5 UNK         0.1400 
     48 CB          3.8384  -16.0021  -44.9201 C.3       5 UNK        -0.1800 
     49 N           1.6851  -15.0899  -44.1038 N.am      5 UNK        -0.5000 
     50 C           0.7412  -16.0447  -44.1684 C.2       4 UNK         0.5000 
     51 O           0.9848  -17.2508  -44.0790 O.2       4 UNK        -0.5000 
     52 CA         -0.7208  -15.5690  -44.3256 C.3       4 UNK         0.1400 
     53 CB         -1.7216  -16.5960  -43.7555 C.3       4 UNK        -0.1800 
     54 N          -0.9827  -14.2351  -43.7625 N.am      4 UNK        -0.5000 
     55 C          -0.8020  -13.8452  -42.4893 C.2       3 UNK         0.5000 
     56 O          -0.3630  -14.5846  -41.6097 O.2       3 UNK        -0.5000 
     57 CA         -1.1600  -12.3869  -42.1260 C.3       3 UNK         0.1400 
     58 CB         -0.2279  -11.8148  -41.0362 C.3       3 UNK        -0.1800 
     59 N          -1.2358  -11.4622  -43.2638 N.am      3 UNK        -0.5000 
     60 C          -0.2550  -11.1378  -44.1171 C.2       2 UNK         0.5000 
     61 O           0.8710  -11.6423  -44.1086 O.2       2 UNK        -0.5000 
     62 CA         -0.6032  -10.0414  -45.1414 C.3       2 UNK         0.1400 
     63 CB         -0.0608   -8.6815  -44.6753 C.3       2 UNK        -0.1800 
     64 N          -0.0827  -10.3297  -46.4763 N.am      2 UNK        -0.5000 
     65 C          -0.4407  -11.3796  -47.2264 C.2       1 UNK         0.5000 
     66 O          -1.2649  -12.2275  -46.8674 O.2       1 UNK        -0.5000 
     67 C          -4.1916  -20.2797  -46.2182 C.2       11 UNK         0.5000 
     68 O          -5.3530  -20.4308  -45.8378 O.2       11 UNK        -0.5000 
     69 N          -3.1191  -20.5553  -45.4631 N.am      12 UNK        -0.5000 
     70 CA         -3.1631  -21.1650  -44.1381 C.3       12 UNK         0.1400 
     71 CB         -2.2730  -20.3588  -43.1783 C.3       12 UNK        -0.1800 
     72 C          -2.7076  -22.6311  -44.2080 C.2       12 UNK         0.5000 
     73 O          -3.4351  -23.5150  -43.7554 O.2       12 UNK        -0.5000 
     74 N          -1.5209  -22.8661  -44.7851 N.am      13 UNK        -0.5000 
     75 CA         -0.8126  -24.1486  -44.7853 C.3       13 UNK         0.1400 
     76 CB          0.6102  -23.9353  -45.3260 C.3       13 UNK        -0.1800 
     77 C          -1.5138  -25.2712  -45.5704 C.2       13 UNK         0.5000 
     78 O          -1.3590  -26.4395  -45.2126 O.2       13 UNK        -0.5000 
     79 N          -2.2651  -24.9041  -46.6149 N.am      14 UNK        -0.5000 
     80 CA         -3.0255  -25.8200  -47.4662 C.3       14 UNK         0.1400 
     81 CB         -2.4296  -25.7901  -48.8848 C.3       14 UNK        -0.1800 
     82 C          -4.5221  -25.4604  -47.4716 C.2       14 UNK         0.5000 
     83 O          -5.2411  -25.8903  -48.3739 O.2       14 UNK        -0.5000 
     84 N          -4.9640  -24.6477  -46.4970 N.am      15 UNK        -0.5000 
     85 CA         -6.3354  -24.1551  -46.3055 C.3       15 UNK         0.1400 
     86 CB         -7.2367  -25.2970  -45.7935 C.3       15 UNK        -0.1800 
     87 C          -6.9276  -23.4437  -47.5451 C.2       15 UNK         0.5000 
     88 O          -8.1379  -23.4996  -47.7683 O.2       15 UNK        -0.5000 
     89 N          -6.0511  -22.8109  -48.3385 N.am      16 UNK        -0.5000 
     90 CA         -6.3172  -22.1222  -49.6030 C.3       16 UNK         0.1400 
     91 CB         -7.3291  -20.9701  -49.4267 C.3       16 UNK        -0.1800 
     92 C          -6.6689  -23.0461  -50.7854 C.2       16 UNK         0.5000 
     93 O          -7.0572  -22.5369  -51.8372 O.2       16 UNK        -0.5000 
     94 N          -6.4798  -24.3669  -50.6427 N.am      17 UNK        -0.5000 
     95 CA         -6.6813  -25.3322  -51.7269 C.3       17 UNK         0.1400 
     96 CB         -6.7562  -26.7548  -51.1525 C.3       17 UNK        -0.1800 
     97 C          -5.5784  -25.2343  -52.7970 C.2       17 UNK         0.5000 
     98 O          -5.8770  -25.2967  -53.9898 O.2       17 UNK        -0.5000 
     99 N          -4.3279  -25.0563  -52.3479 N.am      18 UNK        -0.5000 
    100 CA        -3.1509  -24.9242  -53.2104 C.3       18 UNK         0.1400 
    101 CB        -1.9382  -25.5511  -52.5059 C.3       18 UNK        -0.1800 
    102 C         -2.8473  -23.4646  -53.5945 C.2       18 UNK         0.5000 
    103 O         -2.0287  -23.2418  -54.4865 O.2       18 UNK        -0.5000 
    104 N         -3.4969  -22.4917  -52.9356 N.am      19 UNK        -0.5000 
    105 CA        -3.2614  -21.0486  -53.0927 C.3       19 UNK         0.1400 
    106 CB        -3.9900  -20.2822  -51.9791 C.3       19 UNK        -0.1800 
    107 C         -3.6142  -20.4736  -54.4790 C.2       19 UNK         0.5000 
    108 O         -3.2098  -19.3512  -54.7818 O.2       19 UNK        -0.5000 
    109 N         -4.3193  -21.2542  -55.3099 N.am      20 UNK        -0.5000 
    110 CA        -4.5347  -20.9769  -56.7315 C.3       20 UNK         0.1400 
    111 CB        -5.5314  -22.0005  -57.2960 C.3       20 UNK        -0.1800 
    112 C         -3.2231  -20.9892  -57.5459 C.2       20 UNK         0.5000 
    113 O         -3.1101  -20.2426  -58.5189 O.2       20 UNK        -0.5000 
    114 N         -2.2565  -21.8136  -57.1180 N.am      21 UNK        -0.5000 
    115 CA        -0.8866  -21.8361  -57.6277 C.3       21 UNK         0.1400 
    116 CB        -0.4517  -23.2939  -57.8484 C.3       21 UNK        -0.1800 
    117 C          0.0570  -21.1301  -56.6394 C.2       21 UNK         0.5000 
    118 O          0.8728  -20.3080  -57.0568 O.2       21 UNK        -0.5000 
    119 N         -0.0907  -21.4522  -55.3464 N.am      22 UNK        -0.5000 
    120 CA         0.6736  -20.9123  -54.2107 C.3       22 UNK         0.1400 
    121 C          2.1810  -21.3191  -54.1815 C.2       22 UNK         0.5000 
    122 N          2.5897  -22.3704  -54.8820 N.am      22 UNK        -0.7600 
    123 O          2.9924  -20.6977  -53.5014 O.2       22 UNK        -0.5000 
    124 C124        0.4290  -19.3892  -54.0052 C.3       23 UNK        -0.0398 
    125 S125        0.3307  -18.9289  -52.2430 S.3       23 UNK        -0.2404 
    126 C126       -0.4913  -17.3122  -52.3654 C.3       23 UNK        -0.0205 
    127 H127       -1.6659  -13.7785  -51.2947 H         1 UNK         0.0600 
    128 H128       -2.7429  -12.5232  -51.9033 H         1 UNK         0.0600 
    129 H129       -3.1837  -13.4360  -50.4548 H         1 UNK         0.0600 
    130 H130       -0.2076  -13.2743  -49.6180 H         1 UNK         0.3000 
    131 H131        0.2747  -10.4826  -49.0254 H         1 UNK         0.0600 
    132 H132        2.1518  -12.0561  -49.5076 H         1 UNK         0.0800 
    133 H133        2.3201  -11.1847  -48.0243 H         1 UNK         0.0800 
    134 H134        2.7224  -15.5900  -48.5249 H         1 UNK         0.0800 
    135 H135        2.6652  -14.3478  -49.7445 H         1 UNK         0.0800 
    136 H136        1.6003  -16.0371  -51.2131 H         1 UNK         0.1150 
    137 H137       -2.5220  -17.0033  -50.5549 H         1 UNK         0.1150 
    138 H138       -0.3530  -14.8083  -47.5952 H         1 UNK         0.1150 
    139 H139       -2.7598  -14.8988  -47.4991 H         1 UNK         0.0800 
    140 H140       -3.7007  -15.7126  -48.7163 H         1 UNK         0.0800 
    141 H141       -4.1189  -18.0548  -48.9207 H         1 UNK         0.0800 
    142 H142       -5.1363  -17.9915  -47.5127 H         1 UNK         0.0800 
    143 H143       -4.7041  -20.2787  -48.2665 H         1 UNK         0.0600 
    144 H144       -1.9480  -19.5614  -48.3660 H         1 UNK         0.3000 
    145 H145       -0.6105  -22.8083  -48.3577 H         1 UNK         0.0600 
    146 H146        0.1483  -22.4241  -50.6783 H         1 UNK         0.0600 
    147 H147       -1.5622  -22.8242  -50.6794 H         1 UNK         0.0600 
    148 H148       -1.0579  -21.1557  -50.8919 H         1 UNK         0.0600 
    149 H149        0.6460  -20.4684  -49.2094 H         1 UNK         0.3000 
    150 H150        2.2292  -19.5721  -47.8126 H         1 UNK         0.0600 
    151 H151        0.4912  -17.9066  -48.2329 H         1 UNK         0.0600 
    152 H152        1.6295  -17.2408  -47.0661 H         1 UNK         0.0600 
    153 H153        0.0557  -17.8353  -46.5334 H         1 UNK         0.0600 
    154 H154        1.8029  -18.8413  -45.0242 H         1 UNK         0.3000 
    155 H155        3.7112  -21.4636  -43.6669 H         1 UNK         0.0600 
    156 H156        4.9652  -18.7483  -44.3205 H         1 UNK         0.0600 
    157 H157        5.6628  -20.3211  -44.6824 H         1 UNK         0.0600 
    158 H158        5.4551  -19.8204  -43.0113 H         1 UNK         0.0600 
    159 H159        3.0561  -18.7790  -42.7885 H         1 UNK         0.3000 
    160 H160        0.0397  -19.1670  -41.6504 H         1 UNK         0.0600 
    161 H161        1.7320  -20.7362  -39.6183 H         1 UNK         0.0600 
    162 H162        0.2110  -21.2907  -40.3084 H         1 UNK         0.0600 
    163 H163        0.2275  -19.8925  -39.2579 H         1 UNK         0.0600 
    164 H164        2.6818  -18.1910  -41.3113 H         1 UNK         0.3000 
    165 H165        1.7007  -15.2745  -39.5413 H         1 UNK         0.0600 
    166 H166        4.1345  -17.1332  -39.7147 H         1 UNK         0.0600 
    167 H167        4.1566  -15.4511  -39.1906 H         1 UNK         0.0600 
    168 H168        3.2842  -16.6558  -38.2561 H         1 UNK         0.0600 
    169 H169        1.9429  -14.6997  -41.6342 H         1 UNK         0.3000 
    170 H170        3.5412  -14.2978  -43.6526 H         1 UNK         0.0600 
    171 H171        4.9026  -16.0977  -44.7025 H         1 UNK         0.0600 
    172 H172        3.4487  -17.0039  -45.0964 H         1 UNK         0.0600 
    173 H173        3.7464  -15.4427  -45.8506 H         1 UNK         0.0600 
    174 H174        1.3859  -14.1271  -44.1943 H         1 UNK         0.3000 
    175 H175       -0.8994  -15.4901  -45.3978 H         1 UNK         0.0600 
    176 H176       -1.5569  -16.7774  -42.6929 H         1 UNK         0.0600 
    177 H177       -2.7506  -16.2617  -43.8867 H         1 UNK         0.0600 
    178 H178       -1.6270  -17.5547  -44.2663 H         1 UNK         0.0600 
    179 H179       -1.3146  -13.5424  -44.4202 H         1 UNK         0.3000 
    180 H180       -2.1658  -12.4284  -41.7059 H         1 UNK         0.0600 
    181 H181        0.8138  -11.8066  -41.3584 H         1 UNK         0.0600 
    182 H182       -0.2817  -12.4051  -40.1206 H         1 UNK         0.0600 
    183 H183       -0.5060  -10.7937  -40.7755 H         1 UNK         0.0600 
    184 H184       -2.1293  -11.0029  -43.3762 H         1 UNK         0.3000 
    185 H185       -1.6898   -9.9673  -45.2226 H         1 UNK         0.0600 
    186 H186       -0.4507   -8.4221  -43.6901 H         1 UNK         0.0600 
    187 H187        1.0279   -8.6854  -44.6059 H         1 UNK         0.0600 
    188 H188       -0.3518   -7.8836  -45.3588 H         1 UNK         0.0600 
    189 H189        0.6208   -9.6945  -46.8232 H         1 UNK         0.3000 
    190 H190       -2.1955  -20.4355  -45.8657 H         1 UNK         0.3000 
    191 H191       -4.1795  -21.1534  -43.7391 H         1 UNK         0.0600 
    192 H192       -2.1907  -20.8503  -42.2080 H         1 UNK         0.0600 
    193 H193       -2.6883  -19.3666  -43.0042 H         1 UNK         0.0600 
    194 H194       -1.2636  -20.2338  -43.5720 H         1 UNK         0.0600 
    195 H195       -1.0006  -22.0783  -45.1684 H         1 UNK         0.3000 
    196 H196       -0.7339  -24.4770  -43.7469 H         1 UNK         0.0600 
    197 H197        0.6019  -23.5984  -46.3627 H         1 UNK         0.0600 
    198 H198        1.1491  -23.1908  -44.7403 H         1 UNK         0.0600 
    199 H199        1.1879  -24.8595  -45.2855 H         1 UNK         0.0600 
    200 H200       -2.3573  -23.9208  -46.8391 H         1 UNK         0.3000 
    201 H201       -2.9589  -26.8429  -47.0915 H         1 UNK         0.0600 
    202 H202       -2.5476  -24.8110  -49.3477 H         1 UNK         0.0600 
    203 H203       -2.9148  -26.5218  -49.5318 H         1 UNK         0.0600 
    204 H204       -1.3659  -26.0278  -48.8709 H         1 UNK         0.0600 
    205 H205       -4.2977  -24.3577  -45.7932 H         1 UNK         0.3000 
    206 H206       -6.2799  -23.3973  -45.5225 H         1 UNK         0.0600 
    207 H207       -6.8107  -25.7676  -44.9074 H         1 UNK         0.0600 
    208 H208       -8.2245  -24.9261  -45.5177 H         1 UNK         0.0600 
    209 H209       -7.3755  -26.0701  -46.5502 H         1 UNK         0.0600 
    210 H210       -5.0695  -22.8550  -48.0802 H         1 UNK         0.3000 
    211 H211       -5.3647  -21.6779  -49.8816 H         1 UNK         0.0600 
    212 H212       -7.3400  -20.3231  -50.3045 H         1 UNK         0.0600 
    213 H213       -7.0816  -20.3463  -48.5681 H         1 UNK         0.0600 
    214 H214       -8.3445  -21.3413  -49.2870 H         1 UNK         0.0600 
    215 H215       -6.1538  -24.7377  -49.7551 H         1 UNK         0.3000 
    216 H216       -7.6376  -25.1145  -52.2075 H         1 UNK         0.0600 
    217 H217       -5.8109  -27.0620  -50.7041 H         1 UNK         0.0600 
    218 H218       -6.9959  -27.4768  -51.9340 H         1 UNK         0.0600 
    219 H219       -7.5299  -26.8322  -50.3884 H         1 UNK         0.0600 
    220 H220       -4.1729  -25.0322  -51.3508 H         1 UNK         0.3000 
    221 H221       -3.3156  -25.4749  -54.1390 H         1 UNK         0.0600 
    222 H222       -2.1297  -26.5907  -52.2395 H         1 UNK         0.0600 
    223 H223       -1.6730  -25.0144  -51.5961 H         1 UNK         0.0600 
    224 H224       -1.0619  -25.5405  -53.1555 H         1 UNK         0.0600 
    225 H225       -4.1944  -22.7653  -52.2615 H         1 UNK         0.3000 
    226 H226       -2.1915  -20.8797  -52.9631 H         1 UNK         0.0600 
    227 H227       -5.0687  -20.4336  -52.0265 H         1 UNK         0.0600 
    228 H228       -3.6393  -20.5919  -50.9962 H         1 UNK         0.0600 
    229 H229       -3.8064  -19.2095  -52.0563 H         1 UNK         0.0600 
    230 H230       -4.6328  -22.1510  -54.9692 H         1 UNK         0.3000 
    231 H231       -4.9740  -19.9812  -56.8209 H         1 UNK         0.0600 
    232 H232       -5.1529  -23.0201  -57.2121 H         1 UNK         0.0600 
    233 H233       -5.7310  -21.8097  -58.3513 H         1 UNK         0.0600 
    234 H234       -6.4860  -21.9523  -56.7716 H         1 UNK         0.0600 
    235 H235       -2.4313  -22.3709  -56.2900 H         1 UNK         0.3000 
    236 H236       -0.8234  -21.3156  -58.5856 H         1 UNK         0.0600 
    237 H237       -1.0844  -23.7822  -58.5898 H         1 UNK         0.0600 
    238 H238        0.5748  -23.3443  -58.2135 H         1 UNK         0.0600 
    239 H239       -0.5048  -23.8787  -56.9291 H         1 UNK         0.0600 
    240 H240       -0.7756  -22.1636  -55.0980 H         1 UNK         0.3000 
    241 H241        0.2464  -21.4329  -53.3530 H         1 UNK         0.0600 
    242 H242        3.5619  -22.6354  -54.8561 H         1 UNK         0.3800 
    243 H243        1.9395  -22.9012  -55.4385 H         1 UNK         0.3800 
    244 H244       -0.5151  -19.0959  -54.4659 H         1 UNK         0.0800 
    245 H245        1.1964  -18.7917  -54.5000 H         1 UNK         0.0800 
    246 H246       -1.5170  -17.4524  -52.7110 H         1 UNK         0.0800 
    247 H247        0.0111  -16.7016  -53.1173 H         1 UNK         0.0800 
@<TRIPOS>BOND
     1    1    2 1    
     2    1  127 1    
     3    1  128 1    
     4    1  129 1    
     5    2    3 2    
     6    2    4 am   BACKBONE|DICT|INTERRES
     7    4    5 1    
     8    4  130 1    
     9    5    6 1    
    10    5   65 1    
    11    5  131 1    
    12    6    7 1    
    13    6  132 1    
    14    6  133 1    
    15    7    8 1    
    16    8    9 1    
    17    8  134 1    
    18    8  135 1    
    19    9   10 ar   
    20    9   14 ar   
    21   10   11 ar   
    22   10  136 1    
    23   11   12 ar   
    24   11  126 1    
    25   12   13 ar   
    26   12  137 1    
    27   13   14 ar   
    28   13   15 1    
    29   14  138 1    
    30   15   16 1    
    31   15  139 1    
    32   15  140 1    
    33   16   17 1    
    34   17   18 1    
    35   17  141 1    
    36   17  142 1    
    37   18   19 1    
    38   18   67 1    
    39   18  143 1    
    40   19   20 am   BACKBONE|DICT|INTERRES
    41   19  144 1    
    42   20   21 2    
    43   20   22 1    
    44   22   23 1    
    45   22   24 1    
    46   22  145 1    
    47   23  146 1    
    48   23  147 1    
    49   23  148 1    
    50   24   25 am   BACKBONE|DICT|INTERRES
    51   24  149 1    
    52   25   26 2    
    53   25   27 1    
    54   27   28 1    
    55   27   29 1    
    56   27  150 1    
    57   28  151 1    
    58   28  152 1    
    59   28  153 1    
    60   29   30 am   BACKBONE|DICT|INTERRES
    61   29  154 1    
    62   30   31 2    
    63   30   32 1    
    64   32   33 1    
    65   32   34 1    
    66   32  155 1    
    67   33  156 1    
    68   33  157 1    
    69   33  158 1    
    70   34   35 am   BACKBONE|DICT|INTERRES
    71   34  159 1    
    72   35   36 2    
    73   35   37 1    
    74   37   38 1    
    75   37   39 1    
    76   37  160 1    
    77   38  161 1    
    78   38  162 1    
    79   38  163 1    
    80   39   40 am   BACKBONE|DICT|INTERRES
    81   39  164 1    
    82   40   41 2    
    83   40   42 1    
    84   42   43 1    
    85   42   44 1    
    86   42  165 1    
    87   43  166 1    
    88   43  167 1    
    89   43  168 1    
    90   44   45 am   BACKBONE|DICT|INTERRES
    91   44  169 1    
    92   45   46 2    
    93   45   47 1    
    94   47   48 1    
    95   47   49 1    
    96   47  170 1    
    97   48  171 1    
    98   48  172 1    
    99   48  173 1    
   100   49   50 am   BACKBONE|DICT|INTERRES
   101   49  174 1    
   102   50   51 2    
   103   50   52 1    
   104   52   53 1    
   105   52   54 1    
   106   52  175 1    
   107   53  176 1    
   108   53  177 1    
   109   53  178 1    
   110   54   55 am   BACKBONE|DICT|INTERRES
   111   54  179 1    
   112   55   56 2    
   113   55   57 1    
   114   57   58 1    
   115   57   59 1    
   116   57  180 1    
   117   58  181 1    
   118   58  182 1    
   119   58  183 1    
   120   59   60 am   BACKBONE|DICT|INTERRES
   121   59  184 1    
   122   60   61 2    
   123   60   62 1    
   124   62   63 1    
   125   62   64 1    
   126   62  185 1    
   127   63  186 1    
   128   63  187 1    
   129   63  188 1    
   130   64   65 am   BACKBONE|DICT|INTERRES
   131   64  189 1    
   132   65   66 2    
   133   67   68 2    
   134   67   69 am   BACKBONE|DICT|INTERRES
   135   69   70 1    
   136   69  190 1    
   137   70   71 1    
   138   70   72 1    
   139   70  191 1    
   140   71  192 1    
   141   71  193 1    
   142   71  194 1    
   143   72   73 2    
   144   72   74 am   BACKBONE|DICT|INTERRES
   145   74   75 1    
   146   74  195 1    
   147   75   76 1    
   148   75   77 1    
   149   75  196 1    
   150   76  197 1    
   151   76  198 1    
   152   76  199 1    
   153   77   78 2    
   154   77   79 am   BACKBONE|DICT|INTERRES
   155   79   80 1    
   156   79  200 1    
   157   80   81 1    
   158   80   82 1    
   159   80  201 1    
   160   81  202 1    
   161   81  203 1    
   162   81  204 1    
   163   82   83 2    
   164   82   84 am   BACKBONE|DICT|INTERRES
   165   84   85 1    
   166   84  205 1    
   167   85   86 1    
   168   85   87 1    
   169   85  206 1    
   170   86  207 1    
   171   86  208 1    
   172   86  209 1    
   173   87   88 2    
   174   87   89 am   BACKBONE|DICT|INTERRES
   175   89   90 1    
   176   89  210 1    
   177   90   91 1    
   178   90   92 1    
   179   90  211 1    
   180   91  212 1    
   181   91  213 1    
   182   91  214 1    
   183   92   93 2    
   184   92   94 am   BACKBONE|DICT|INTERRES
   185   94   95 1    
   186   94  215 1    
   187   95   96 1    
   188   95   97 1    
   189   95  216 1    
   190   96  217 1    
   191   96  218 1    
   192   96  219 1    
   193   97   98 2    
   194   97   99 am   BACKBONE|DICT|INTERRES
   195   99  100 1    
   196   99  220 1    
   197  100  101 1    
   198  100  102 1    
   199  100  221 1    
   200  101  222 1    
   201  101  223 1    
   202  101  224 1    
   203  102  103 2    
   204  102  104 am   BACKBONE|DICT|INTERRES
   205  104  105 1    
   206  104  225 1    
   207  105  106 1    
   208  105  107 1    
   209  105  226 1    
   210  106  227 1    
   211  106  228 1    
   212  106  229 1    
   213  107  108 2    
   214  107  109 am   BACKBONE|DICT|INTERRES
   215  109  110 1    
   216  109  230 1    
   217  110  111 1    
   218  110  112 1    
   219  110  231 1    
   220  111  232 1    
   221  111  233 1    
   222  111  234 1    
   223  112  113 2    
   224  112  114 am   BACKBONE|DICT|INTERRES
   225  114  115 1    
   226  114  235 1    
   227  115  116 1    
   228  115  117 1    
   229  115  236 1    
   230  116  237 1    
   231  116  238 1    
   232  116  239 1    
   233  117  118 2    
   234  117  119 am   BACKBONE|DICT|INTERRES
   235  119  120 1    
   236  119  240 1    
   237  120  121 1    
   238  120  124 1    
   239  120  241 1    
   240  121  122 am   BACKBONE|DICT|INTERRES
   241  121  123 2    
   242  122  242 1    
   243  122  243 1    
   244  124  125 1    
   245  124  244 1    
   246  124  245 1    
   247  125  126 1    
   248  126  246 1    
   249  126  247 1    
@<TRIPOS>SUBSTRUCTURE
     1 UNK         1 GROUP             0       ****    0 ROOT    
