@<TRIPOS>MOLECULE
3R540
247   249    1
SMALL
USER_CHARGES


@<TRIPOS>ATOM
      1 CA          1.0959  -14.4046  -47.7849 C.3       0 UNK        -0.1800 
      2 C           0.2898  -14.0079  -49.0173 C.2       0 UNK         0.5000 
      3 O           0.8638  -13.5000  -49.9770 O.2       0 UNK        -0.5000 
      4 N          -1.0348  -14.2048  -49.0439 N.am      1 UNK        -0.5000 
      5 CA         -1.8714  -14.7857  -47.9834 C.3       1 UNK         0.1400 
      6 C6         -2.9745  -15.7038  -48.5843 C.3       23 UNK        -0.0398 
      7 S7         -3.0533  -17.3473  -47.7907 S.3       23 UNK        -0.2404 
      8 C8         -4.8293  -17.4521  -47.4199 C.3       23 UNK        -0.0205 
      9 C9         -5.2550  -18.8608  -47.0328 C.ar      23 UNK        -0.0193 
     10 C10        -5.7441  -19.7403  -48.0047 C.ar      23 UNK        -0.1150 
     11 C11        -6.2129  -21.0081  -47.6457 C.ar      23 UNK        -0.0193 
     12 C12        -6.1826  -21.3962  -46.3043 C.ar      23 UNK        -0.1150 
     13 C13        -5.6900  -20.5300  -45.3242 C.ar      23 UNK        -0.0193 
     14 C14        -5.2194  -19.2662  -45.6956 C.ar      23 UNK        -0.1150 
     15 C15        -5.7072  -20.9464  -43.8600 C.3       23 UNK        -0.0205 
     16 S16        -4.6150  -22.3637  -43.5257 S.3       23 UNK        -0.2404 
     17 C17        -2.9873  -21.6751  -43.9743 C.3       23 UNK        -0.0398 
     18 CA         -2.4135  -22.2684  -45.2853 C.3       11 UNK         0.1400 
     19 N          -1.3037  -21.4645  -45.7970 N.am      11 UNK        -0.5000 
     20 C          -0.7102  -21.6134  -46.9873 C.2       10 UNK         0.5000 
     21 O          -1.0940  -22.3990  -47.8510 O.2       10 UNK        -0.5000 
     22 CA          0.5512  -20.7724  -47.2535 C.3       10 UNK         0.1400 
     23 CB          0.1795  -19.4053  -47.8447 C.3       10 UNK        -0.1800 
     24 N           1.3841  -20.5945  -46.0633 N.am      10 UNK        -0.5000 
     25 C           1.9994  -21.5920  -45.4120 C.2       9 UNK         0.5000 
     26 O           1.9487  -22.7701  -45.7642 O.2       9 UNK        -0.5000 
     27 CA          2.7551  -21.2207  -44.1242 C.3       9 UNK         0.1400 
     28 CB          4.1302  -20.6137  -44.4407 C.3       9 UNK        -0.1800 
     29 N           1.9890  -20.3014  -43.2837 N.am      9 UNK        -0.5000 
     30 C           0.8567  -20.6296  -42.6458 C.2       8 UNK         0.5000 
     31 O           0.3596  -21.7568  -42.6676 O.2       8 UNK        -0.5000 
     32 CA          0.1305  -19.4889  -41.9068 C.3       8 UNK         0.1400 
     33 CB          0.7956  -19.2034  -40.5523 C.3       8 UNK        -0.1800 
     34 N           0.0749  -18.2538  -42.6910 N.am      8 UNK        -0.5000 
     35 C          -0.5247  -18.1432  -43.8849 C.2       7 UNK         0.5000 
     36 O          -1.1386  -19.0569  -44.4253 O.2       7 UNK        -0.5000 
     37 CA         -0.3760  -16.8099  -44.6283 C.3       7 UNK         0.1400 
     38 CB         -1.4265  -15.8118  -44.1282 C.3       7 UNK        -0.1800 
     39 N           0.9621  -16.2380  -44.4959 N.am      7 UNK        -0.5000 
     40 C           2.0996  -16.8158  -44.9056 C.2       6 UNK         0.5000 
     41 O           2.1415  -17.8984  -45.4878 O.2       6 UNK        -0.5000 
     42 CA          3.4107  -16.0845  -44.5729 C.3       6 UNK         0.1400 
     43 CB          3.7723  -15.0640  -45.6593 C.3       6 UNK        -0.1800 
     44 N           3.3332  -15.4028  -43.2833 N.am      6 UNK        -0.5000 
     45 C           3.4983  -16.0068  -42.1003 C.2       5 UNK         0.5000 
     46 O           3.7831  -17.1982  -41.9725 O.2       5 UNK        -0.5000 
     47 CA          3.2817  -15.1325  -40.8509 C.3       5 UNK         0.1400 
     48 CB          4.5599  -14.3531  -40.5070 C.3       5 UNK        -0.1800 
     49 N           2.1658  -14.1936  -40.9956 N.am      5 UNK        -0.5000 
     50 C           0.8820  -14.5642  -41.0924 C.2       4 UNK         0.5000 
     51 O           0.5086  -15.7379  -41.0844 O.2       4 UNK        -0.5000 
     52 CA         -0.1603  -13.4390  -41.2482 C.3       4 UNK         0.1400 
     53 CB         -0.5206  -12.8536  -39.8743 C.3       4 UNK        -0.1800 
     54 N           0.2034  -12.3439  -42.1572 N.am      4 UNK        -0.5000 
     55 C           0.6376  -12.4724  -43.4181 C.2       3 UNK         0.5000 
     56 O           0.9751  -13.5394  -43.9283 O.2       3 UNK        -0.5000 
     57 CA          0.6825  -11.2006  -44.2770 C.3       3 UNK         0.1400 
     58 CB          2.0773  -11.0000  -44.8915 C.3       3 UNK        -0.1800 
     59 N          -0.3045  -11.2978  -45.3527 N.am      3 UNK        -0.5000 
     60 C          -1.6223  -11.1033  -45.2000 C.2       2 UNK         0.5000 
     61 O          -2.1451  -10.7844  -44.1315 O.2       2 UNK        -0.5000 
     62 CA         -2.5028  -11.2842  -46.4509 C.3       2 UNK         0.1400 
     63 CB         -2.4827  -10.0111  -47.3113 C.3       2 UNK        -0.1800 
     64 N          -2.0847  -12.4243  -47.2696 N.am      2 UNK        -0.5000 
     65 C          -2.4531  -13.6957  -47.0484 C.2       1 UNK         0.5000 
     66 O          -3.2298  -14.0219  -46.1519 O.2       1 UNK        -0.5000 
     67 C          -1.9900  -23.7388  -45.0997 C.2       11 UNK         0.5000 
     68 O          -2.6714  -24.6343  -45.5991 O.2       11 UNK        -0.5000 
     69 N          -0.8543  -23.9565  -44.4182 N.am      12 UNK        -0.5000 
     70 CA         -0.2817  -25.2787  -44.1533 C.3       12 UNK         0.1400 
     71 CB          0.9140  -25.1346  -43.1998 C.3       12 UNK        -0.1800 
     72 C           0.1262  -26.0306  -45.4344 C.2       12 UNK         0.5000 
     73 O          -0.0993  -27.2374  -45.5314 O.2       12 UNK        -0.5000 
     74 N           0.6912  -25.2979  -46.4021 N.am      13 UNK        -0.5000 
     75 CA          1.0605  -25.8035  -47.7242 C.3       13 UNK         0.1400 
     76 CB          2.0731  -24.8313  -48.3500 C.3       13 UNK        -0.1800 
     77 C          -0.1418  -25.9953  -48.6715 C.2       13 UNK         0.5000 
     78 O           0.0018  -26.6887  -49.6791 O.2       13 UNK        -0.5000 
     79 N          -1.2792  -25.3557  -48.3556 N.am      14 UNK        -0.5000 
     80 CA         -2.4789  -25.1952  -49.1868 C.3       14 UNK         0.1400 
     81 CB         -3.2154  -26.5375  -49.3683 C.3       14 UNK        -0.1800 
     82 C          -2.1530  -24.4869  -50.5198 C.2       14 UNK         0.5000 
     83 O          -2.5533  -24.9418  -51.5914 O.2       14 UNK        -0.5000 
     84 N          -1.3685  -23.4088  -50.4175 N.am      15 UNK        -0.5000 
     85 CA         -0.7822  -22.6841  -51.5392 C.3       15 UNK         0.1400 
     86 CB          0.6376  -22.2502  -51.1432 C.3       15 UNK        -0.1800 
     87 C          -1.6184  -21.4632  -51.9505 C.2       15 UNK         0.5000 
     88 O          -1.6537  -21.1443  -53.1396 O.2       15 UNK        -0.5000 
     89 N          -2.2513  -20.7968  -50.9695 N.am      16 UNK        -0.5000 
     90 CA         -3.0690  -19.5799  -51.0937 C.3       16 UNK         0.1400 
     91 CB         -4.4564  -19.9273  -51.6508 C.3       16 UNK        -0.1800 
     92 C          -2.3707  -18.4776  -51.9179 C.2       16 UNK         0.5000 
     93 O          -2.6757  -18.2945  -53.1009 O.2       16 UNK        -0.5000 
     94 N          -1.3702  -17.8426  -51.2885 N.am      17 UNK        -0.5000 
     95 CA         -0.4402  -16.8532  -51.8594 C.3       17 UNK         0.1400 
     96 CB         -1.1978  -15.6145  -52.3858 C.3       17 UNK        -0.1800 
     97 C           0.5063  -17.4344  -52.9347 C.2       17 UNK         0.5000 
     98 O           1.1433  -16.6675  -53.6578 O.2       17 UNK        -0.5000 
     99 N           0.5656  -18.7728  -53.0298 N.am      18 UNK        -0.5000 
    100 CA         1.2106  -19.5630  -54.0851 C.3       18 UNK         0.1400 
    101 CB         2.7456  -19.4213  -54.0265 C.3       18 UNK        -0.1800 
    102 C          0.6149  -19.2676  -55.4770 C.2       18 UNK         0.5000 
    103 O          1.3467  -19.2312  -56.4683 O.2       18 UNK        -0.5000 
    104 N         -0.7048  -19.0414  -55.5138 N.am      19 UNK        -0.5000 
    105 CA        -1.4412  -18.6282  -56.7016 C.3       19 UNK         0.1400 
    106 CB        -1.7054  -17.1136  -56.6387 C.3       19 UNK        -0.1800 
    107 C         -2.7455  -19.4198  -56.8420 C.2       19 UNK         0.5000 
    108 O         -2.9519  -20.0587  -57.8749 O.2       19 UNK        -0.5000 
    109 N         -3.6120  -19.3564  -55.8214 N.am      20 UNK        -0.5000 
    110 CA        -4.9649  -19.9159  -55.8920 C.3       20 UNK         0.1400 
    111 CB        -5.9132  -19.0561  -55.0414 C.3       20 UNK        -0.1800 
    112 C         -5.0494  -21.4050  -55.5075 C.2       20 UNK         0.5000 
    113 O         -6.0686  -22.0337  -55.7995 O.2       20 UNK        -0.5000 
    114 N         -4.0110  -21.9437  -54.8455 N.am      21 UNK        -0.5000 
    115 CA        -3.8705  -23.3436  -54.4084 C.3       21 UNK         0.1400 
    116 CB        -3.6548  -24.2591  -55.6307 C.3       21 UNK        -0.1800 
    117 C         -5.0154  -23.8388  -53.4924 C.2       21 UNK         0.5000 
    118 O         -5.3232  -25.0320  -53.4768 O.2       21 UNK        -0.5000 
    119 N         -5.6518  -22.8970  -52.7819 N.am      22 UNK        -0.5000 
    120 CA        -6.8791  -23.0742  -51.9890 C.3       22 UNK         0.1400 
    121 C         -8.1180  -23.5590  -52.8089 C.2       22 UNK         0.5000 
    122 N         -8.1569  -23.3706  -54.1239 N.am      22 UNK        -0.7600 
    123 O         -9.0787  -24.0793  -52.2480 O.2       22 UNK        -0.5000 
    124 C124       -6.6425  -23.8775  -50.6774 C.3       23 UNK        -0.0398 
    125 S125       -5.5697  -22.9834  -49.4990 S.3       23 UNK        -0.2404 
    126 C126       -6.8173  -21.9321  -48.6913 C.3       23 UNK        -0.0205 
    127 H127        0.6608  -13.9996  -46.8711 H         1 UNK         0.0600 
    128 H128        2.1116  -14.0189  -47.8674 H         1 UNK         0.0600 
    129 H129        1.1538  -15.4897  -47.6976 H         1 UNK         0.0600 
    130 H130       -1.5384  -13.9063  -49.8671 H         1 UNK         0.3000 
    131 H131       -1.2389  -15.4038  -47.3468 H         1 UNK         0.0600 
    132 H132       -3.9553  -15.2246  -48.5645 H         1 UNK         0.0800 
    133 H133       -2.7859  -15.8980  -49.6391 H         1 UNK         0.0800 
    134 H134       -5.4023  -17.1282  -48.2902 H         1 UNK         0.0800 
    135 H135       -5.0683  -16.7523  -46.6173 H         1 UNK         0.0800 
    136 H136       -5.7881  -19.4258  -49.0373 H         1 UNK         0.1150 
    137 H137       -6.5563  -22.3694  -46.0178 H         1 UNK         0.1150 
    138 H138       -4.8468  -18.5858  -44.9425 H         1 UNK         0.1150 
    139 H139       -5.4218  -20.1147  -43.2138 H         1 UNK         0.0800 
    140 H140       -6.7268  -21.2141  -43.5800 H         1 UNK         0.0800 
    141 H141       -2.3017  -21.8208  -43.1384 H         1 UNK         0.0800 
    142 H142       -3.0978  -20.5964  -44.0754 H         1 UNK         0.0800 
    143 H143       -3.1979  -22.2396  -46.0452 H         1 UNK         0.0600 
    144 H144       -0.9872  -20.7086  -45.1941 H         1 UNK         0.3000 
    145 H145        1.1521  -21.3079  -47.9905 H         1 UNK         0.0600 
    146 H146        1.0686  -18.8241  -48.0897 H         1 UNK         0.0600 
    147 H147       -0.3999  -19.5215  -48.7607 H         1 UNK         0.0600 
    148 H148       -0.4214  -18.8216  -47.1486 H         1 UNK         0.0600 
    149 H149        1.5171  -19.6407  -45.7352 H         1 UNK         0.3000 
    150 H150        2.9163  -22.1403  -43.5575 H         1 UNK         0.0600 
    151 H151        4.7320  -21.3041  -45.0329 H         1 UNK         0.0600 
    152 H152        4.6854  -20.3991  -43.5274 H         1 UNK         0.0600 
    153 H153        4.0465  -19.6857  -45.0061 H         1 UNK         0.0600 
    154 H154        2.3093  -19.3442  -43.2428 H         1 UNK         0.3000 
    155 H155       -0.8958  -19.8133  -41.7227 H         1 UNK         0.0600 
    156 H156        1.8144  -18.8332  -40.6734 H         1 UNK         0.0600 
    157 H157        0.8422  -20.1056  -39.9412 H         1 UNK         0.0600 
    158 H158        0.2352  -18.4569  -39.9890 H         1 UNK         0.0600 
    159 H159        0.5054  -17.4302  -42.2840 H         1 UNK         0.3000 
    160 H160       -0.5503  -16.9895  -45.6896 H         1 UNK         0.0600 
    161 H161       -1.4077  -15.7156  -43.0438 H         1 UNK         0.0600 
    162 H162       -2.4296  -16.1360  -44.4085 H         1 UNK         0.0600 
    163 H163       -1.2712  -14.8217  -44.5530 H         1 UNK         0.0600 
    164 H164        1.0144  -15.3049  -44.0915 H         1 UNK         0.3000 
    165 H165        4.2057  -16.8326  -44.5371 H         1 UNK         0.0600 
    166 H166        4.7624  -14.6424  -45.4858 H         1 UNK         0.0600 
    167 H167        3.7849  -15.5282  -46.6462 H         1 UNK         0.0600 
    168 H168        3.0610  -14.2388  -45.6843 H         1 UNK         0.0600 
    169 H169        3.0239  -14.4405  -43.2976 H         1 UNK         0.3000 
    170 H170        3.0556  -15.8001  -40.0165 H         1 UNK         0.0600 
    171 H171        5.4058  -15.0293  -40.3759 H         1 UNK         0.0600 
    172 H172        4.8246  -13.6445  -41.2928 H         1 UNK         0.0600 
    173 H173        4.4438  -13.7960  -39.5771 H         1 UNK         0.0600 
    174 H174        2.3895  -13.2096  -41.0218 H         1 UNK         0.3000 
    175 H175       -1.0635  -13.8939  -41.6568 H         1 UNK         0.0600 
    176 H176        0.3216  -12.3216  -39.4301 H         1 UNK         0.0600 
    177 H177       -1.3564  -12.1576  -39.9481 H         1 UNK         0.0600 
    178 H178       -0.8166  -13.6399  -39.1784 H         1 UNK         0.0600 
    179 H179       -0.0446  -11.4183  -41.8386 H         1 UNK         0.3000 
    180 H180        0.4550  -10.3326  -43.6546 H         1 UNK         0.0600 
    181 H181        2.3487  -11.8177  -45.5605 H         1 UNK         0.0600 
    182 H182        2.8415  -10.9436  -44.1152 H         1 UNK         0.0600 
    183 H183        2.1252  -10.0726  -45.4623 H         1 UNK         0.0600 
    184 H184        0.0428  -11.5850  -46.2541 H         1 UNK         0.3000 
    185 H185       -3.5301  -11.4424  -46.1149 H         1 UNK         0.0600 
    186 H186       -2.8046   -9.1442  -46.7326 H         1 UNK         0.0600 
    187 H187       -1.4849   -9.7967  -47.6960 H         1 UNK         0.0600 
    188 H188       -3.1581  -10.1008  -48.1623 H         1 UNK         0.0600 
    189 H189       -1.4720  -12.2295  -48.0480 H         1 UNK         0.3000 
    190 H190       -0.3549  -23.1635  -44.0289 H         1 UNK         0.3000 
    191 H191       -1.0464  -25.8745  -43.6508 H         1 UNK         0.0600 
    192 H192        1.7047  -24.5223  -43.6342 H         1 UNK         0.0600 
    193 H193        1.3445  -26.1082  -42.9625 H         1 UNK         0.0600 
    194 H194        0.6141  -24.6730  -42.2588 H         1 UNK         0.0600 
    195 H195        0.9150  -24.3249  -46.2086 H         1 UNK         0.3000 
    196 H196        1.5459  -26.7743  -47.6051 H         1 UNK         0.0600 
    197 H197        2.3936  -25.1744  -49.3345 H         1 UNK         0.0600 
    198 H198        2.9657  -24.7395  -47.7310 H         1 UNK         0.0600 
    199 H199        1.6469  -23.8347  -48.4703 H         1 UNK         0.0600 
    200 H200       -1.2820  -24.8116  -47.5026 H         1 UNK         0.3000 
    201 H201       -3.1401  -24.5270  -48.6341 H         1 UNK         0.0600 
    202 H202       -3.4428  -26.9935  -48.4048 H         1 UNK         0.0600 
    203 H203       -2.6279  -27.2498  -49.9481 H         1 UNK         0.0600 
    204 H204       -4.1615  -26.3916  -49.8908 H         1 UNK         0.0600 
    205 H205       -1.1251  -23.0918  -49.4799 H         1 UNK         0.3000 
    206 H206       -0.7038  -23.3456  -52.4047 H         1 UNK         0.0600 
    207 H207        1.2378  -23.1075  -50.8386 H         1 UNK         0.0600 
    208 H208        1.1576  -21.7811  -51.9763 H         1 UNK         0.0600 
    209 H209        0.6288  -21.5376  -50.3187 H         1 UNK         0.0600 
    210 H210       -2.1693  -21.1691  -50.0337 H         1 UNK         0.3000 
    211 H211       -3.2132  -19.1918  -50.0854 H         1 UNK         0.0600 
    212 H212       -4.3848  -20.3584  -52.6459 H         1 UNK         0.0600 
    213 H213       -5.0851  -19.0383  -51.7108 H         1 UNK         0.0600 
    214 H214       -4.9685  -20.6395  -51.0089 H         1 UNK         0.0600 
    215 H215       -1.1912  -18.0877  -50.3253 H         1 UNK         0.3000 
    216 H216        0.1970  -16.5268  -51.0363 H         1 UNK         0.0600 
    217 H217       -0.5061  -14.7979  -52.5963 H         1 UNK         0.0600 
    218 H218       -1.9211  -15.2435  -51.6630 H         1 UNK         0.0600 
    219 H219       -1.7338  -15.8298  -53.3106 H         1 UNK         0.0600 
    220 H220       -0.0258  -19.2965  -52.4027 H         1 UNK         0.3000 
    221 H221        0.9705  -20.6069  -53.8884 H         1 UNK         0.0600 
    222 H222        3.0721  -18.4147  -54.2882 H         1 UNK         0.0600 
    223 H223        3.1236  -19.6487  -53.0298 H         1 UNK         0.0600 
    224 H224        3.2277  -20.1109  -54.7203 H         1 UNK         0.0600 
    225 H225       -1.2363  -19.1201  -54.6545 H         1 UNK         0.3000 
    226 H226       -0.8540  -18.8298  -57.6001 H         1 UNK         0.0600 
    227 H227       -0.7700  -16.5537  -56.6400 H         1 UNK         0.0600 
    228 H228       -2.2863  -16.7805  -57.4996 H         1 UNK         0.0600 
    229 H229       -2.2560  -16.8349  -55.7393 H         1 UNK         0.0600 
    230 H230       -3.3705  -18.8381  -54.9824 H         1 UNK         0.3000 
    231 H231       -5.3238  -19.8501  -56.9217 H         1 UNK         0.0600 
    232 H232       -6.0119  -18.0564  -55.4644 H         1 UNK         0.0600 
    233 H233       -5.5596  -18.9426  -54.0197 H         1 UNK         0.0600 
    234 H234       -6.9140  -19.4883  -55.0004 H         1 UNK         0.0600 
    235 H235       -3.2274  -21.3440  -54.6118 H         1 UNK         0.3000 
    236 H236       -2.9640  -23.3916  -53.8068 H         1 UNK         0.0600 
    237 H237       -4.5472  -24.3164  -56.2546 H         1 UNK         0.0600 
    238 H238       -2.8336  -23.9001  -56.2511 H         1 UNK         0.0600 
    239 H239       -3.4049  -25.2744  -55.3209 H         1 UNK         0.0600 
    240 H240       -5.3241  -21.9482  -52.8714 H         1 UNK         0.3000 
    241 H241       -7.1661  -22.0647  -51.6958 H         1 UNK         0.0600 
    242 H242       -8.9660  -23.6764  -54.6406 H         1 UNK         0.3800 
    243 H243       -7.3836  -22.9377  -54.6196 H         1 UNK         0.3800 
    244 H244       -6.1912  -24.8455  -50.8978 H         1 UNK         0.0800 
    245 H245       -7.5827  -24.0976  -50.1697 H         1 UNK         0.0800 
    246 H246       -7.5766  -22.5657  -48.2300 H         1 UNK         0.0800 
    247 H247       -7.3356  -21.3357  -49.4429 H         1 UNK         0.0800 
@<TRIPOS>BOND
     1    1    2 1    
     2    1  127 1    
     3    1  128 1    
     4    1  129 1    
     5    2    3 2    
     6    2    4 am   BACKBONE|DICT|INTERRES
     7    4    5 1    
     8    4  130 1    
     9    5    6 1    
    10    5   65 1    
    11    5  131 1    
    12    6    7 1    
    13    6  132 1    
    14    6  133 1    
    15    7    8 1    
    16    8    9 1    
    17    8  134 1    
    18    8  135 1    
    19    9   10 ar   
    20    9   14 ar   
    21   10   11 ar   
    22   10  136 1    
    23   11   12 ar   
    24   11  126 1    
    25   12   13 ar   
    26   12  137 1    
    27   13   14 ar   
    28   13   15 1    
    29   14  138 1    
    30   15   16 1    
    31   15  139 1    
    32   15  140 1    
    33   16   17 1    
    34   17   18 1    
    35   17  141 1    
    36   17  142 1    
    37   18   19 1    
    38   18   67 1    
    39   18  143 1    
    40   19   20 am   BACKBONE|DICT|INTERRES
    41   19  144 1    
    42   20   21 2    
    43   20   22 1    
    44   22   23 1    
    45   22   24 1    
    46   22  145 1    
    47   23  146 1    
    48   23  147 1    
    49   23  148 1    
    50   24   25 am   BACKBONE|DICT|INTERRES
    51   24  149 1    
    52   25   26 2    
    53   25   27 1    
    54   27   28 1    
    55   27   29 1    
    56   27  150 1    
    57   28  151 1    
    58   28  152 1    
    59   28  153 1    
    60   29   30 am   BACKBONE|DICT|INTERRES
    61   29  154 1    
    62   30   31 2    
    63   30   32 1    
    64   32   33 1    
    65   32   34 1    
    66   32  155 1    
    67   33  156 1    
    68   33  157 1    
    69   33  158 1    
    70   34   35 am   BACKBONE|DICT|INTERRES
    71   34  159 1    
    72   35   36 2    
    73   35   37 1    
    74   37   38 1    
    75   37   39 1    
    76   37  160 1    
    77   38  161 1    
    78   38  162 1    
    79   38  163 1    
    80   39   40 am   BACKBONE|DICT|INTERRES
    81   39  164 1    
    82   40   41 2    
    83   40   42 1    
    84   42   43 1    
    85   42   44 1    
    86   42  165 1    
    87   43  166 1    
    88   43  167 1    
    89   43  168 1    
    90   44   45 am   BACKBONE|DICT|INTERRES
    91   44  169 1    
    92   45   46 2    
    93   45   47 1    
    94   47   48 1    
    95   47   49 1    
    96   47  170 1    
    97   48  171 1    
    98   48  172 1    
    99   48  173 1    
   100   49   50 am   BACKBONE|DICT|INTERRES
   101   49  174 1    
   102   50   51 2    
   103   50   52 1    
   104   52   53 1    
   105   52   54 1    
   106   52  175 1    
   107   53  176 1    
   108   53  177 1    
   109   53  178 1    
   110   54   55 am   BACKBONE|DICT|INTERRES
   111   54  179 1    
   112   55   56 2    
   113   55   57 1    
   114   57   58 1    
   115   57   59 1    
   116   57  180 1    
   117   58  181 1    
   118   58  182 1    
   119   58  183 1    
   120   59   60 am   BACKBONE|DICT|INTERRES
   121   59  184 1    
   122   60   61 2    
   123   60   62 1    
   124   62   63 1    
   125   62   64 1    
   126   62  185 1    
   127   63  186 1    
   128   63  187 1    
   129   63  188 1    
   130   64   65 am   BACKBONE|DICT|INTERRES
   131   64  189 1    
   132   65   66 2    
   133   67   68 2    
   134   67   69 am   BACKBONE|DICT|INTERRES
   135   69   70 1    
   136   69  190 1    
   137   70   71 1    
   138   70   72 1    
   139   70  191 1    
   140   71  192 1    
   141   71  193 1    
   142   71  194 1    
   143   72   73 2    
   144   72   74 am   BACKBONE|DICT|INTERRES
   145   74   75 1    
   146   74  195 1    
   147   75   76 1    
   148   75   77 1    
   149   75  196 1    
   150   76  197 1    
   151   76  198 1    
   152   76  199 1    
   153   77   78 2    
   154   77   79 am   BACKBONE|DICT|INTERRES
   155   79   80 1    
   156   79  200 1    
   157   80   81 1    
   158   80   82 1    
   159   80  201 1    
   160   81  202 1    
   161   81  203 1    
   162   81  204 1    
   163   82   83 2    
   164   82   84 am   BACKBONE|DICT|INTERRES
   165   84   85 1    
   166   84  205 1    
   167   85   86 1    
   168   85   87 1    
   169   85  206 1    
   170   86  207 1    
   171   86  208 1    
   172   86  209 1    
   173   87   88 2    
   174   87   89 am   BACKBONE|DICT|INTERRES
   175   89   90 1    
   176   89  210 1    
   177   90   91 1    
   178   90   92 1    
   179   90  211 1    
   180   91  212 1    
   181   91  213 1    
   182   91  214 1    
   183   92   93 2    
   184   92   94 am   BACKBONE|DICT|INTERRES
   185   94   95 1    
   186   94  215 1    
   187   95   96 1    
   188   95   97 1    
   189   95  216 1    
   190   96  217 1    
   191   96  218 1    
   192   96  219 1    
   193   97   98 2    
   194   97   99 am   BACKBONE|DICT|INTERRES
   195   99  100 1    
   196   99  220 1    
   197  100  101 1    
   198  100  102 1    
   199  100  221 1    
   200  101  222 1    
   201  101  223 1    
   202  101  224 1    
   203  102  103 2    
   204  102  104 am   BACKBONE|DICT|INTERRES
   205  104  105 1    
   206  104  225 1    
   207  105  106 1    
   208  105  107 1    
   209  105  226 1    
   210  106  227 1    
   211  106  228 1    
   212  106  229 1    
   213  107  108 2    
   214  107  109 am   BACKBONE|DICT|INTERRES
   215  109  110 1    
   216  109  230 1    
   217  110  111 1    
   218  110  112 1    
   219  110  231 1    
   220  111  232 1    
   221  111  233 1    
   222  111  234 1    
   223  112  113 2    
   224  112  114 am   BACKBONE|DICT|INTERRES
   225  114  115 1    
   226  114  235 1    
   227  115  116 1    
   228  115  117 1    
   229  115  236 1    
   230  116  237 1    
   231  116  238 1    
   232  116  239 1    
   233  117  118 2    
   234  117  119 am   BACKBONE|DICT|INTERRES
   235  119  120 1    
   236  119  240 1    
   237  120  121 1    
   238  120  124 1    
   239  120  241 1    
   240  121  122 am   BACKBONE|DICT|INTERRES
   241  121  123 2    
   242  122  242 1    
   243  122  243 1    
   244  124  125 1    
   245  124  244 1    
   246  124  245 1    
   247  125  126 1    
   248  126  246 1    
   249  126  247 1    
@<TRIPOS>SUBSTRUCTURE
     1 UNK         1 GROUP             0       ****    0 ROOT    
