@<TRIPOS>MOLECULE
3R540
247   249    1
SMALL
USER_CHARGES


@<TRIPOS>ATOM
      1 CA         -5.8262  -11.3962  -45.1309 C.3       0 UNK        -0.1800 
      2 C          -4.5540  -12.0856  -45.6027 C.2       0 UNK         0.5000 
      3 O          -4.0985  -13.0322  -44.9607 O.2       0 UNK        -0.5000 
      4 N          -3.9803  -11.6122  -46.7177 N.am      1 UNK        -0.5000 
      5 CA         -2.7451  -12.0821  -47.3589 C.3       1 UNK         0.1400 
      6 C6         -2.7843  -13.5844  -47.7476 C.3       23 UNK        -0.0398 
      7 S7         -1.4268  -14.0745  -48.8601 S.3       23 UNK        -0.2404 
      8 C8         -2.1153  -15.5971  -49.5701 C.3       23 UNK        -0.0205 
      9 C9         -1.0537  -16.3551  -50.3480 C.ar      23 UNK        -0.0193 
     10 C10        -0.8430  -16.0849  -51.7011 C.ar      23 UNK        -0.1150 
     11 C11         0.1491  -16.7640  -52.4122 C.ar      23 UNK        -0.0193 
     12 C12         0.9123  -17.7393  -51.7620 C.ar      23 UNK        -0.1150 
     13 C13         0.7002  -18.0423  -50.4129 C.ar      23 UNK        -0.0193 
     14 C14        -0.2749  -17.3222  -49.7089 C.ar      23 UNK        -0.1150 
     15 C15         1.5501  -19.1515  -49.7817 C.3       23 UNK        -0.0205 
     16 S16         1.2765  -19.4864  -48.0048 S.3       23 UNK        -0.2404 
     17 C17        -0.4174  -20.1572  -47.9931 C.3       23 UNK        -0.0398 
     18 CA         -0.5435  -21.5493  -47.3346 C.3       11 UNK         0.1400 
     19 N           0.0250  -21.6043  -45.9843 N.am      11 UNK        -0.5000 
     20 C           0.1987  -22.7279  -45.2733 C.2       10 UNK         0.5000 
     21 O          -0.0654  -23.8522  -45.6976 O.2       10 UNK        -0.5000 
     22 CA          0.6899  -22.5601  -43.8240 C.3       10 UNK         0.1400 
     23 CB          2.2193  -22.4661  -43.7647 C.3       10 UNK        -0.1800 
     24 N           0.0989  -21.3851  -43.1834 N.am      10 UNK        -0.5000 
     25 C          -1.1974  -21.2995  -42.8494 C.2       9 UNK         0.5000 
     26 O          -2.0009  -22.2201  -42.9967 O.2       9 UNK        -0.5000 
     27 CA         -1.6944  -19.9454  -42.3167 C.3       9 UNK         0.1400 
     28 CB         -1.5489  -19.8845  -40.7902 C.3       9 UNK        -0.1800 
     29 N          -1.0127  -18.8090  -42.9446 N.am      9 UNK        -0.5000 
     30 C          -1.1505  -18.4908  -44.2420 C.2       8 UNK         0.5000 
     31 O          -1.8592  -19.1430  -45.0096 O.2       8 UNK        -0.5000 
     32 CA         -0.3504  -17.3004  -44.8111 C.3       8 UNK         0.1400 
     33 CB         -1.2130  -16.4196  -45.7385 C.3       8 UNK        -0.1800 
     34 N           0.3546  -16.5035  -43.8036 N.am      8 UNK        -0.5000 
     35 C          -0.1591  -15.7004  -42.8609 C.2       7 UNK         0.5000 
     36 O          -1.3544  -15.4236  -42.7644 O.2       7 UNK        -0.5000 
     37 CA          0.8552  -15.1370  -41.8397 C.3       7 UNK         0.1400 
     38 CB          0.1914  -14.6551  -40.5326 C.3       7 UNK        -0.1800 
     39 N           1.9551  -16.0756  -41.5633 N.am      7 UNK        -0.5000 
     40 C           1.8346  -17.3021  -41.0336 C.2       6 UNK         0.5000 
     41 O           0.7574  -17.7787  -40.6798 O.2       6 UNK        -0.5000 
     42 CA          3.1220  -18.1446  -40.9258 C.3       6 UNK         0.1400 
     43 CB          2.8507  -19.5894  -40.4529 C.3       6 UNK        -0.1800 
     44 N           3.9110  -18.1582  -42.1622 N.am      6 UNK        -0.5000 
     45 C           3.5347  -18.5956  -43.3721 C.2       5 UNK         0.5000 
     46 O           2.3930  -18.9782  -43.6423 O.2       5 UNK        -0.5000 
     47 CA          4.6352  -18.5760  -44.4572 C.3       5 UNK         0.1400 
     48 CB          4.2261  -19.3175  -45.7382 C.3       5 UNK        -0.1800 
     49 N           4.9962  -17.2112  -44.8284 N.am      5 UNK        -0.5000 
     50 C           5.7360  -16.3604  -44.1070 C.2       4 UNK         0.5000 
     51 O           6.2846  -16.6656  -43.0468 O.2       4 UNK        -0.5000 
     52 CA          5.8538  -14.9174  -44.6429 C.3       4 UNK         0.1400 
     53 CB          7.1900  -14.7264  -45.3764 C.3       4 UNK        -0.1800 
     54 N           4.7578  -14.5049  -45.5316 N.am      4 UNK        -0.5000 
     55 C           3.4640  -14.4625  -45.1855 C.2       3 UNK         0.5000 
     56 O           3.0449  -14.8299  -44.0869 O.2       3 UNK        -0.5000 
     57 CA          2.4740  -13.9882  -46.2667 C.3       3 UNK         0.1400 
     58 CB          2.1380  -15.1488  -47.2190 C.3       3 UNK        -0.1800 
     59 N           1.2301  -13.4681  -45.6931 N.am      3 UNK        -0.5000 
     60 C           1.1323  -12.3704  -44.9292 C.2       2 UNK         0.5000 
     61 O           2.0861  -11.6334  -44.6710 O.2       2 UNK        -0.5000 
     62 CA         -0.2726  -12.0491  -44.3699 C.3       2 UNK         0.1400 
     63 CB         -0.3724  -10.6349  -43.7619 C.3       2 UNK        -0.1800 
     64 N          -1.3524  -12.2658  -45.3391 N.am      2 UNK        -0.5000 
     65 C          -1.4903  -11.6946  -46.5451 C.2       1 UNK         0.5000 
     66 O          -0.6973  -10.8781  -47.0162 O.2       1 UNK        -0.5000 
     67 C          -2.0236  -21.9766  -47.3370 C.2       11 UNK         0.5000 
     68 O          -2.4515  -22.6705  -48.2580 O.2       11 UNK        -0.5000 
     69 N          -2.7795  -21.5535  -46.3147 N.am      12 UNK        -0.5000 
     70 CA         -4.1744  -21.9331  -46.1015 C.3       12 UNK         0.1400 
     71 CB         -4.7928  -21.0434  -45.0140 C.3       12 UNK        -0.1800 
     72 C          -4.3219  -23.4241  -45.7538 C.2       12 UNK         0.5000 
     73 O          -5.1856  -24.0896  -46.3238 O.2       12 UNK        -0.5000 
     74 N          -3.4488  -23.9347  -44.8724 N.am      13 UNK        -0.5000 
     75 CA         -3.3820  -25.3471  -44.4839 C.3       13 UNK         0.1400 
     76 CB         -2.3878  -25.5156  -43.3253 C.3       13 UNK        -0.1800 
     77 C          -3.0152  -26.2794  -45.6547 C.2       13 UNK         0.5000 
     78 O          -3.5792  -27.3682  -45.7659 O.2       13 UNK        -0.5000 
     79 N          -2.1090  -25.8184  -46.5274 N.am      14 UNK        -0.5000 
     80 CA         -1.7233  -26.4894  -47.7712 C.3       14 UNK         0.1400 
     81 CB         -0.3852  -25.9009  -48.2479 C.3       14 UNK        -0.1800 
     82 C          -2.7801  -26.3728  -48.8906 C.2       14 UNK         0.5000 
     83 O          -2.6464  -27.0492  -49.9103 O.2       14 UNK        -0.5000 
     84 N          -3.7763  -25.4933  -48.7017 N.am      15 UNK        -0.5000 
     85 CA         -4.8264  -25.0836  -49.6427 C.3       15 UNK         0.1400 
     86 CB         -5.7036  -26.2758  -50.0732 C.3       15 UNK        -0.1800 
     87 C          -4.3065  -24.2708  -50.8480 C.2       15 UNK         0.5000 
     88 O          -5.0726  -23.9932  -51.7706 O.2       15 UNK        -0.5000 
     89 N          -3.0367  -23.8503  -50.7993 N.am      16 UNK        -0.5000 
     90 CA         -2.3618  -23.0311  -51.8014 C.3       16 UNK         0.1400 
     91 CB         -0.8650  -22.9640  -51.4656 C.3       16 UNK        -0.1800 
     92 C          -2.9551  -21.6177  -51.8950 C.2       16 UNK         0.5000 
     93 O          -3.1209  -21.1048  -53.0021 O.2       16 UNK        -0.5000 
     94 N          -3.2916  -21.0333  -50.7364 N.am      17 UNK        -0.5000 
     95 CA         -3.9799  -19.7438  -50.6472 C.3       17 UNK         0.1400 
     96 CB         -3.7621  -19.1272  -49.2572 C.3       17 UNK        -0.1800 
     97 C          -5.4842  -19.8690  -50.9441 C.2       17 UNK         0.5000 
     98 O          -6.0647  -18.9477  -51.5165 O.2       17 UNK        -0.5000 
     99 N          -6.0834  -21.0057  -50.5595 N.am      18 UNK        -0.5000 
    100 CA        -7.5083  -21.2976  -50.7318 C.3       18 UNK         0.1400 
    101 CB        -7.8874  -22.5277  -49.8922 C.3       18 UNK        -0.1800 
    102 C         -7.8905  -21.5004  -52.2081 C.2       18 UNK         0.5000 
    103 O         -8.8930  -20.9470  -52.6607 O.2       18 UNK        -0.5000 
    104 N         -7.0646  -22.2625  -52.9375 N.am      19 UNK        -0.5000 
    105 CA        -7.1972  -22.4821  -54.3786 C.3       19 UNK         0.1400 
    106 CB        -6.4495  -23.7734  -54.7485 C.3       19 UNK        -0.1800 
    107 C         -6.6622  -21.3046  -55.2175 C.2       19 UNK         0.5000 
    108 O         -6.9423  -21.2481  -56.4153 O.2       19 UNK        -0.5000 
    109 N         -5.8754  -20.4179  -54.5860 N.am      20 UNK        -0.5000 
    110 CA        -5.0996  -19.3234  -55.1836 C.3       20 UNK         0.1400 
    111 CB        -6.0254  -18.2448  -55.7822 C.3       20 UNK        -0.1800 
    112 C         -4.0343  -19.8365  -56.1782 C.2       20 UNK         0.5000 
    113 O         -3.7286  -19.1723  -57.1700 O.2       20 UNK        -0.5000 
    114 N         -3.4996  -21.0284  -55.8866 N.am      21 UNK        -0.5000 
    115 CA        -2.4562  -21.7026  -56.6520 C.3       21 UNK         0.1400 
    116 CB        -2.5738  -23.2163  -56.4147 C.3       21 UNK        -0.1800 
    117 C         -1.0523  -21.2041  -56.2702 C.2       21 UNK         0.5000 
    118 O         -0.1556  -21.2387  -57.1144 O.2       21 UNK        -0.5000 
    119 N         -0.8966  -20.7443  -55.0194 N.am      22 UNK        -0.5000 
    120 CA         0.3525  -20.2400  -54.4238 C.3       22 UNK         0.1400 
    121 C          1.4699  -21.3256  -54.2946 C.2       22 UNK         0.5000 
    122 N          2.6934  -20.9536  -53.9391 N.am      22 UNK        -0.7600 
    123 O          1.2369  -22.5210  -54.4605 O.2       22 UNK        -0.5000 
    124 C124        0.8448  -18.9288  -55.1039 C.3       23 UNK        -0.0398 
    125 S125       -0.3863  -17.5802  -55.0192 S.3       23 UNK        -0.2404 
    126 C126        0.4114  -16.4136  -53.8702 C.3       23 UNK        -0.0205 
    127 H127       -6.1159  -10.5801  -45.7933 H         1 UNK         0.0600 
    128 H128       -5.6818  -10.9877  -44.1307 H         1 UNK         0.0600 
    129 H129       -6.6478  -12.1114  -45.0929 H         1 UNK         0.0600 
    130 H130       -4.4067  -10.8154  -47.1706 H         1 UNK         0.3000 
    131 H131       -2.6893  -11.5179  -48.2916 H         1 UNK         0.0600 
    132 H132       -3.7282  -13.7985  -48.2508 H         1 UNK         0.0800 
    133 H133       -2.7619  -14.2265  -46.8675 H         1 UNK         0.0800 
    134 H134       -2.9561  -15.3503  -50.2202 H         1 UNK         0.0800 
    135 H135       -2.5142  -16.2256  -48.7728 H         1 UNK         0.0800 
    136 H136       -1.4380  -15.3290  -52.1940 H         1 UNK         0.1150 
    137 H137        1.6814  -18.2656  -52.3071 H         1 UNK         0.1150 
    138 H138       -0.4420  -17.4984  -48.6588 H         1 UNK         0.1150 
    139 H139        2.6017  -18.8909  -49.9091 H         1 UNK         0.0800 
    140 H140        1.3946  -20.0773  -50.3378 H         1 UNK         0.0800 
    141 H141       -0.7806  -20.2051  -49.0212 H         1 UNK         0.0800 
    142 H142       -1.0484  -19.4322  -47.4784 H         1 UNK         0.0800 
    143 H143        0.0057  -22.2648  -47.9501 H         1 UNK         0.0600 
    144 H144        0.2590  -20.7199  -45.5592 H         1 UNK         0.3000 
    145 H145        0.3855  -23.4461  -43.2630 H         1 UNK         0.0600 
    146 H146        2.5833  -21.5965  -44.3075 H         1 UNK         0.0600 
    147 H147        2.6829  -23.3488  -44.2069 H         1 UNK         0.0600 
    148 H148        2.5720  -22.3910  -42.7359 H         1 UNK         0.0600 
    149 H149        0.6933  -20.5739  -43.0666 H         1 UNK         0.3000 
    150 H150       -2.7573  -19.8645  -42.5533 H         1 UNK         0.0600 
    151 H151       -0.5180  -20.0509  -40.4762 H         1 UNK         0.0600 
    152 H152       -2.1605  -20.6507  -40.3126 H         1 UNK         0.0600 
    153 H153       -1.8705  -18.9193  -40.3985 H         1 UNK         0.0600 
    154 H154       -0.3980  -18.2616  -42.3523 H         1 UNK         0.3000 
    155 H155        0.4322  -17.7478  -45.4253 H         1 UNK         0.0600 
    156 H156       -2.0652  -15.9882  -45.2132 H         1 UNK         0.0600 
    157 H157       -1.6126  -17.0022  -46.5686 H         1 UNK         0.0600 
    158 H158       -0.6352  -15.6050  -46.1696 H         1 UNK         0.0600 
    159 H159        1.3535  -16.6603  -43.7625 H         1 UNK         0.3000 
    160 H160        1.3034  -14.2601  -42.3063 H         1 UNK         0.0600 
    161 H161       -0.3586  -15.4542  -40.0351 H         1 UNK         0.0600 
    162 H162       -0.5155  -13.8482  -40.7294 H         1 UNK         0.0600 
    163 H163        0.9330  -14.2711  -39.8323 H         1 UNK         0.0600 
    164 H164        2.8622  -15.7828  -41.9029 H         1 UNK         0.3000 
    165 H165        3.7402  -17.6603  -40.1688 H         1 UNK         0.0600 
    166 H166        2.3603  -19.5967  -39.4787 H         1 UNK         0.0600 
    167 H167        2.2057  -20.1302  -41.1462 H         1 UNK         0.0600 
    168 H168        3.7786  -20.1520  -40.3517 H         1 UNK         0.0600 
    169 H169        4.8536  -17.7893  -42.0864 H         1 UNK         0.3000 
    170 H170        5.5150  -19.0762  -44.0473 H         1 UNK         0.0600 
    171 H171        5.0277  -19.3033  -46.4767 H         1 UNK         0.0600 
    172 H172        3.9947  -20.3622  -45.5382 H         1 UNK         0.0600 
    173 H173        3.3483  -18.8594  -46.1908 H         1 UNK         0.0600 
    174 H174        4.5706  -16.8549  -45.6706 H         1 UNK         0.3000 
    175 H175        5.8413  -14.2526  -43.7768 H         1 UNK         0.0600 
    176 H176        8.0306  -14.9967  -44.7358 H         1 UNK         0.0600 
    177 H177        7.2483  -15.3451  -46.2729 H         1 UNK         0.0600 
    178 H178        7.3326  -13.6874  -45.6741 H         1 UNK         0.0600 
    179 H179        5.0254  -14.2055  -46.4583 H         1 UNK         0.3000 
    180 H180        2.9413  -13.1847  -46.8394 H         1 UNK         0.0600 
    181 H181        1.7156  -16.0013  -46.6869 H         1 UNK         0.0600 
    182 H182        3.0298  -15.5022  -47.7378 H         1 UNK         0.0600 
    183 H183        1.4243  -14.8431  -47.9840 H         1 UNK         0.0600 
    184 H184        0.3971  -14.0111  -45.8577 H         1 UNK         0.3000 
    185 H185       -0.4464  -12.7593  -43.5615 H         1 UNK         0.0600 
    186 H186        0.3420  -10.5072  -42.9477 H         1 UNK         0.0600 
    187 H187       -0.1679   -9.8605  -44.5018 H         1 UNK         0.0600 
    188 H188       -1.3655  -10.4522  -43.3513 H         1 UNK         0.0600 
    189 H189       -2.1140  -12.8623  -45.0281 H         1 UNK         0.3000 
    190 H190       -2.3762  -20.9043  -45.6453 H         1 UNK         0.3000 
    191 H191       -4.7184  -21.7544  -47.0314 H         1 UNK         0.0600 
    192 H192       -4.7226  -19.9888  -45.2818 H         1 UNK         0.0600 
    193 H193       -5.8493  -21.2755  -44.8748 H         1 UNK         0.0600 
    194 H194       -4.2981  -21.1768  -44.0521 H         1 UNK         0.0600 
    195 H195       -2.8015  -23.3065  -44.4045 H         1 UNK         0.3000 
    196 H196       -4.3716  -25.6393  -44.1269 H         1 UNK         0.0600 
    197 H197       -2.3383  -26.5556  -43.0005 H         1 UNK         0.0600 
    198 H198       -2.6837  -24.9193  -42.4620 H         1 UNK         0.0600 
    199 H199       -1.3808  -25.2125  -43.6123 H         1 UNK         0.0600 
    200 H200       -1.6305  -24.9476  -46.3177 H         1 UNK         0.3000 
    201 H201       -1.5781  -27.5517  -47.5650 H         1 UNK         0.0600 
    202 H202       -0.0391  -26.3928  -49.1578 H         1 UNK         0.0600 
    203 H203        0.3923  -26.0301  -47.4947 H         1 UNK         0.0600 
    204 H204       -0.4691  -24.8347  -48.4619 H         1 UNK         0.0600 
    205 H205       -3.7891  -24.9959  -47.8202 H         1 UNK         0.3000 
    206 H206       -5.4631  -24.3997  -49.0810 H         1 UNK         0.0600 
    207 H207       -6.0676  -26.8297  -49.2079 H         1 UNK         0.0600 
    208 H208       -6.5773  -25.9363  -50.6308 H         1 UNK         0.0600 
    209 H209       -5.1615  -26.9704  -50.7150 H         1 UNK         0.0600 
    210 H210       -2.5258  -24.0258  -49.9442 H         1 UNK         0.3000 
    211 H211       -2.4810  -23.5124  -52.7741 H         1 UNK         0.0600 
    212 H212       -0.4117  -23.9552  -51.4877 H         1 UNK         0.0600 
    213 H213       -0.3314  -22.3472  -52.1872 H         1 UNK         0.0600 
    214 H214       -0.6881  -22.5368  -50.4782 H         1 UNK         0.0600 
    215 H215       -3.1182  -21.5393  -49.8755 H         1 UNK         0.3000 
    216 H216       -3.5520  -19.0623  -51.3864 H         1 UNK         0.0600 
    217 H217       -4.0675  -19.8020  -48.4577 H         1 UNK         0.0600 
    218 H218       -4.3348  -18.2057  -49.1439 H         1 UNK         0.0600 
    219 H219       -2.7174  -18.8672  -49.1053 H         1 UNK         0.0600 
    220 H220       -5.5229  -21.7189  -50.1212 H         1 UNK         0.3000 
    221 H221       -8.0741  -20.4434  -50.3535 H         1 UNK         0.0600 
    222 H222       -7.3933  -23.4308  -50.2498 H         1 UNK         0.0600 
    223 H223       -7.6233  -22.3905  -48.8434 H         1 UNK         0.0600 
    224 H224       -8.9621  -22.7083  -49.9353 H         1 UNK         0.0600 
    225 H225       -6.2906  -22.7387  -52.4796 H         1 UNK         0.3000 
    226 H226       -8.2530  -22.6143  -54.6238 H         1 UNK         0.0600 
    227 H227       -6.8320  -24.6256  -54.1864 H         1 UNK         0.0600 
    228 H228       -6.5645  -24.0043  -55.8083 H         1 UNK         0.0600 
    229 H229       -5.3809  -23.6915  -54.5447 H         1 UNK         0.0600 
    230 H230       -5.7217  -20.5637  -53.5987 H         1 UNK         0.3000 
    231 H231       -4.5470  -18.8629  -54.3630 H         1 UNK         0.0600 
    232 H232       -6.5610  -18.6087  -56.6592 H         1 UNK         0.0600 
    233 H233       -5.4541  -17.3683  -56.0897 H         1 UNK         0.0600 
    234 H234       -6.7626  -17.9109  -55.0520 H         1 UNK         0.0600 
    235 H235       -3.7598  -21.4500  -55.0042 H         1 UNK         0.3000 
    236 H236       -2.6084  -21.5076  -57.7157 H         1 UNK         0.0600 
    237 H237       -2.4314  -23.4718  -55.3640 H         1 UNK         0.0600 
    238 H238       -3.5516  -23.5886  -56.7212 H         1 UNK         0.0600 
    239 H239       -1.8232  -23.7603  -56.9895 H         1 UNK         0.0600 
    240 H240       -1.6992  -20.7665  -54.4006 H         1 UNK         0.3000 
    241 H241        0.0878  -19.9997  -53.3939 H         1 UNK         0.0600 
    242 H242        3.4004  -21.6659  -53.8418 H         1 UNK         0.3800 
    243 H243        2.9427  -19.9926  -53.7737 H         1 UNK         0.3800 
    244 H244        1.0805  -19.1079  -56.1534 H         1 UNK         0.0800 
    245 H245        1.7743  -18.5774  -54.6584 H         1 UNK         0.0800 
    246 H246        0.0294  -15.4139  -54.0826 H         1 UNK         0.0800 
    247 H247        1.4845  -16.3627  -54.0595 H         1 UNK         0.0800 
@<TRIPOS>BOND
     1    1    2 1    
     2    1  127 1    
     3    1  128 1    
     4    1  129 1    
     5    2    3 2    
     6    2    4 am   BACKBONE|DICT|INTERRES
     7    4    5 1    
     8    4  130 1    
     9    5    6 1    
    10    5   65 1    
    11    5  131 1    
    12    6    7 1    
    13    6  132 1    
    14    6  133 1    
    15    7    8 1    
    16    8    9 1    
    17    8  134 1    
    18    8  135 1    
    19    9   10 ar   
    20    9   14 ar   
    21   10   11 ar   
    22   10  136 1    
    23   11   12 ar   
    24   11  126 1    
    25   12   13 ar   
    26   12  137 1    
    27   13   14 ar   
    28   13   15 1    
    29   14  138 1    
    30   15   16 1    
    31   15  139 1    
    32   15  140 1    
    33   16   17 1    
    34   17   18 1    
    35   17  141 1    
    36   17  142 1    
    37   18   19 1    
    38   18   67 1    
    39   18  143 1    
    40   19   20 am   BACKBONE|DICT|INTERRES
    41   19  144 1    
    42   20   21 2    
    43   20   22 1    
    44   22   23 1    
    45   22   24 1    
    46   22  145 1    
    47   23  146 1    
    48   23  147 1    
    49   23  148 1    
    50   24   25 am   BACKBONE|DICT|INTERRES
    51   24  149 1    
    52   25   26 2    
    53   25   27 1    
    54   27   28 1    
    55   27   29 1    
    56   27  150 1    
    57   28  151 1    
    58   28  152 1    
    59   28  153 1    
    60   29   30 am   BACKBONE|DICT|INTERRES
    61   29  154 1    
    62   30   31 2    
    63   30   32 1    
    64   32   33 1    
    65   32   34 1    
    66   32  155 1    
    67   33  156 1    
    68   33  157 1    
    69   33  158 1    
    70   34   35 am   BACKBONE|DICT|INTERRES
    71   34  159 1    
    72   35   36 2    
    73   35   37 1    
    74   37   38 1    
    75   37   39 1    
    76   37  160 1    
    77   38  161 1    
    78   38  162 1    
    79   38  163 1    
    80   39   40 am   BACKBONE|DICT|INTERRES
    81   39  164 1    
    82   40   41 2    
    83   40   42 1    
    84   42   43 1    
    85   42   44 1    
    86   42  165 1    
    87   43  166 1    
    88   43  167 1    
    89   43  168 1    
    90   44   45 am   BACKBONE|DICT|INTERRES
    91   44  169 1    
    92   45   46 2    
    93   45   47 1    
    94   47   48 1    
    95   47   49 1    
    96   47  170 1    
    97   48  171 1    
    98   48  172 1    
    99   48  173 1    
   100   49   50 am   BACKBONE|DICT|INTERRES
   101   49  174 1    
   102   50   51 2    
   103   50   52 1    
   104   52   53 1    
   105   52   54 1    
   106   52  175 1    
   107   53  176 1    
   108   53  177 1    
   109   53  178 1    
   110   54   55 am   BACKBONE|DICT|INTERRES
   111   54  179 1    
   112   55   56 2    
   113   55   57 1    
   114   57   58 1    
   115   57   59 1    
   116   57  180 1    
   117   58  181 1    
   118   58  182 1    
   119   58  183 1    
   120   59   60 am   BACKBONE|DICT|INTERRES
   121   59  184 1    
   122   60   61 2    
   123   60   62 1    
   124   62   63 1    
   125   62   64 1    
   126   62  185 1    
   127   63  186 1    
   128   63  187 1    
   129   63  188 1    
   130   64   65 am   BACKBONE|DICT|INTERRES
   131   64  189 1    
   132   65   66 2    
   133   67   68 2    
   134   67   69 am   BACKBONE|DICT|INTERRES
   135   69   70 1    
   136   69  190 1    
   137   70   71 1    
   138   70   72 1    
   139   70  191 1    
   140   71  192 1    
   141   71  193 1    
   142   71  194 1    
   143   72   73 2    
   144   72   74 am   BACKBONE|DICT|INTERRES
   145   74   75 1    
   146   74  195 1    
   147   75   76 1    
   148   75   77 1    
   149   75  196 1    
   150   76  197 1    
   151   76  198 1    
   152   76  199 1    
   153   77   78 2    
   154   77   79 am   BACKBONE|DICT|INTERRES
   155   79   80 1    
   156   79  200 1    
   157   80   81 1    
   158   80   82 1    
   159   80  201 1    
   160   81  202 1    
   161   81  203 1    
   162   81  204 1    
   163   82   83 2    
   164   82   84 am   BACKBONE|DICT|INTERRES
   165   84   85 1    
   166   84  205 1    
   167   85   86 1    
   168   85   87 1    
   169   85  206 1    
   170   86  207 1    
   171   86  208 1    
   172   86  209 1    
   173   87   88 2    
   174   87   89 am   BACKBONE|DICT|INTERRES
   175   89   90 1    
   176   89  210 1    
   177   90   91 1    
   178   90   92 1    
   179   90  211 1    
   180   91  212 1    
   181   91  213 1    
   182   91  214 1    
   183   92   93 2    
   184   92   94 am   BACKBONE|DICT|INTERRES
   185   94   95 1    
   186   94  215 1    
   187   95   96 1    
   188   95   97 1    
   189   95  216 1    
   190   96  217 1    
   191   96  218 1    
   192   96  219 1    
   193   97   98 2    
   194   97   99 am   BACKBONE|DICT|INTERRES
   195   99  100 1    
   196   99  220 1    
   197  100  101 1    
   198  100  102 1    
   199  100  221 1    
   200  101  222 1    
   201  101  223 1    
   202  101  224 1    
   203  102  103 2    
   204  102  104 am   BACKBONE|DICT|INTERRES
   205  104  105 1    
   206  104  225 1    
   207  105  106 1    
   208  105  107 1    
   209  105  226 1    
   210  106  227 1    
   211  106  228 1    
   212  106  229 1    
   213  107  108 2    
   214  107  109 am   BACKBONE|DICT|INTERRES
   215  109  110 1    
   216  109  230 1    
   217  110  111 1    
   218  110  112 1    
   219  110  231 1    
   220  111  232 1    
   221  111  233 1    
   222  111  234 1    
   223  112  113 2    
   224  112  114 am   BACKBONE|DICT|INTERRES
   225  114  115 1    
   226  114  235 1    
   227  115  116 1    
   228  115  117 1    
   229  115  236 1    
   230  116  237 1    
   231  116  238 1    
   232  116  239 1    
   233  117  118 2    
   234  117  119 am   BACKBONE|DICT|INTERRES
   235  119  120 1    
   236  119  240 1    
   237  120  121 1    
   238  120  124 1    
   239  120  241 1    
   240  121  122 am   BACKBONE|DICT|INTERRES
   241  121  123 2    
   242  122  242 1    
   243  122  243 1    
   244  124  125 1    
   245  124  244 1    
   246  124  245 1    
   247  125  126 1    
   248  126  246 1    
   249  126  247 1    
@<TRIPOS>SUBSTRUCTURE
     1 UNK         1 GROUP             0       ****    0 ROOT    
