@<TRIPOS>MOLECULE
3R540
247   249    1
SMALL
USER_CHARGES


@<TRIPOS>ATOM
      1 CA          7.8189  -15.8242  -50.2426 C.3       0 UNK        -0.1800 
      2 C           7.9332  -14.3004  -50.2243 C.2       0 UNK         0.5000 
      3 O           8.9691  -13.7689  -50.6197 O.2       0 UNK        -0.5000 
      4 N           6.9050  -13.5553  -49.7955 N.am      1 UNK        -0.5000 
      5 CA          5.6500  -14.0377  -49.2104 C.3       1 UNK         0.1400 
      6 C6          4.5491  -12.9487  -49.2918 C.3       23 UNK        -0.0398 
      7 S7          2.8668  -13.6476  -49.2006 S.3       23 UNK        -0.2404 
      8 C8          2.5801  -14.0958  -50.9420 C.3       23 UNK        -0.0205 
      9 C9          1.6973  -15.3285  -51.0429 C.ar      23 UNK        -0.0193 
     10 C10         0.3685  -15.2280  -51.4640 C.ar      23 UNK        -0.1150 
     11 C11        -0.4413  -16.3651  -51.5458 C.ar      23 UNK        -0.0193 
     12 C12         0.0948  -17.6055  -51.1792 C.ar      23 UNK        -0.1150 
     13 C13         1.4263  -17.7269  -50.7588 C.ar      23 UNK        -0.0193 
     14 C14         2.2191  -16.5790  -50.7046 C.ar      23 UNK        -0.1150 
     15 C15         2.0517  -19.0528  -50.3194 C.3       23 UNK        -0.0205 
     16 S16         1.1473  -20.5632  -50.7994 S.3       23 UNK        -0.2404 
     17 C17        -0.2212  -20.5752  -49.5932 C.3       23 UNK        -0.0398 
     18 CA         -0.0167  -21.6609  -48.5184 C.3       11 UNK         0.1400 
     19 N           1.0797  -21.3346  -47.6073 N.am      11 UNK        -0.5000 
     20 C           1.8005  -22.2410  -46.9382 C.2       10 UNK         0.5000 
     21 O           1.6054  -23.4549  -47.0026 O.2       10 UNK        -0.5000 
     22 CA          2.8980  -21.6847  -46.0125 C.3       10 UNK         0.1400 
     23 CB          4.1460  -21.3022  -46.8228 C.3       10 UNK        -0.1800 
     24 N           2.4523  -20.5250  -45.2366 N.am      10 UNK        -0.5000 
     25 C           1.4811  -20.5670  -44.3156 C.2       9 UNK         0.5000 
     26 O           0.8529  -21.5862  -44.0306 O.2       9 UNK        -0.5000 
     27 CA          1.1220  -19.2449  -43.6164 C.3       9 UNK         0.1400 
     28 CB          2.1028  -18.9652  -42.4673 C.3       9 UNK        -0.1800 
     29 N           1.0234  -18.0576  -44.4743 N.am      9 UNK        -0.5000 
     30 C           0.3623  -17.9563  -45.6350 C.2       8 UNK         0.5000 
     31 O          -0.0756  -18.9171  -46.2696 O.2       8 UNK        -0.5000 
     32 CA          0.0788  -16.5363  -46.1578 C.3       8 UNK         0.1400 
     33 CB          0.5961  -16.3552  -47.5916 C.3       8 UNK        -0.1800 
     34 N          -1.3678  -16.3185  -46.1501 N.am      8 UNK        -0.5000 
     35 C          -2.0887  -16.1495  -45.0360 C.2       7 UNK         0.5000 
     36 O          -1.5808  -15.9528  -43.9292 O.2       7 UNK        -0.5000 
     37 CA         -3.6201  -16.2724  -45.1392 C.3       7 UNK         0.1400 
     38 CB         -4.1111  -17.0624  -46.3691 C.3       7 UNK        -0.1800 
     39 N          -4.0493  -16.9281  -43.9122 N.am      7 UNK        -0.5000 
     40 C          -5.2334  -16.8320  -43.3012 C.2       6 UNK         0.5000 
     41 O          -6.2161  -16.2672  -43.7821 O.2       6 UNK        -0.5000 
     42 CA         -5.3117  -17.4570  -41.8902 C.3       6 UNK         0.1400 
     43 CB         -5.8990  -18.8748  -41.9615 C.3       6 UNK        -0.1800 
     44 N          -4.0001  -17.5138  -41.2292 N.am      6 UNK        -0.5000 
     45 C          -3.3286  -16.4378  -40.7924 C.2       5 UNK         0.5000 
     46 O          -3.8180  -15.3067  -40.7590 O.2       5 UNK        -0.5000 
     47 CA         -1.8580  -16.6270  -40.3760 C.3       5 UNK         0.1400 
     48 CB         -1.3131  -18.0558  -40.5784 C.3       5 UNK        -0.1800 
     49 N          -1.0737  -15.6981  -41.1807 N.am      5 UNK        -0.5000 
     50 C          -0.1326  -14.8642  -40.7379 C.2       4 UNK         0.5000 
     51 O           0.3037  -14.8575  -39.5843 O.2       4 UNK        -0.5000 
     52 CA          0.3852  -13.8335  -41.7579 C.3       4 UNK         0.1400 
     53 CB         -0.0231  -12.4085  -41.3522 C.3       4 UNK        -0.1800 
     54 N           1.8377  -13.8983  -41.8906 N.am      4 UNK        -0.5000 
     55 C           2.4799  -14.8668  -42.5512 C.2       3 UNK         0.5000 
     56 O           1.9073  -15.7924  -43.1294 O.2       3 UNK        -0.5000 
     57 CA          4.0195  -14.7945  -42.5494 C.3       3 UNK         0.1400 
     58 CB          4.5764  -15.4103  -41.2561 C.3       3 UNK        -0.1800 
     59 N           4.6230  -15.4864  -43.6913 N.am      3 UNK        -0.5000 
     60 C           4.4317  -15.1696  -44.9787 C.2       2 UNK         0.5000 
     61 O           3.7549  -14.2096  -45.3566 O.2       2 UNK        -0.5000 
     62 CA          5.1024  -16.1061  -46.0048 C.3       2 UNK         0.1400 
     63 CB          4.4013  -17.4756  -46.0408 C.3       2 UNK        -0.1800 
     64 N           5.0986  -15.5429  -47.3555 N.am      2 UNK        -0.5000 
     65 C           5.8733  -14.5302  -47.7627 C.2       1 UNK         0.5000 
     66 O           6.7355  -13.9994  -47.0570 O.2       1 UNK        -0.5000 
     67 C          -1.3220  -21.9377  -47.7532 C.2       11 UNK         0.5000 
     68 O          -2.1482  -22.7015  -48.2502 O.2       11 UNK        -0.5000 
     69 N          -1.4917  -21.3434  -46.5647 N.am      12 UNK        -0.5000 
     70 CA         -2.5867  -21.6392  -45.6419 C.3       12 UNK         0.1400 
     71 CB         -2.6091  -20.6032  -44.5069 C.3       12 UNK        -0.1800 
     72 C          -2.4834  -23.0718  -45.0887 C.2       12 UNK         0.5000 
     73 O          -3.4790  -23.7949  -45.0946 O.2       12 UNK        -0.5000 
     74 N          -1.2706  -23.4722  -44.6777 N.am      13 UNK        -0.5000 
     75 CA         -0.9505  -24.8199  -44.2017 C.3       13 UNK         0.1400 
     76 CB          0.4679  -24.8303  -43.6122 C.3       13 UNK        -0.1800 
     77 C          -1.0898  -25.8943  -45.2963 C.2       13 UNK         0.5000 
     78 O          -1.5834  -26.9869  -45.0156 O.2       13 UNK        -0.5000 
     79 N          -0.6800  -25.5574  -46.5274 N.am      14 UNK        -0.5000 
     80 CA         -0.8083  -26.4156  -47.7089 C.3       14 UNK         0.1400 
     81 CB          0.1573  -25.9103  -48.7925 C.3       14 UNK        -0.1800 
     82 C          -2.2435  -26.4863  -48.2724 C.2       14 UNK         0.5000 
     83 O          -2.5111  -27.3405  -49.1174 O.2       14 UNK        -0.5000 
     84 N          -3.1180  -25.5685  -47.8323 N.am      15 UNK        -0.5000 
     85 CA         -4.4901  -25.3206  -48.2950 C.3       15 UNK         0.1400 
     86 CB         -5.3897  -26.5583  -48.1057 C.3       15 UNK        -0.1800 
     87 C          -4.5735  -24.7426  -49.7250 C.2       15 UNK         0.5000 
     88 O          -5.6673  -24.6403  -50.2804 O.2       15 UNK        -0.5000 
     89 N          -3.4334  -24.3105  -50.2781 N.am      16 UNK        -0.5000 
     90 CA         -3.3177  -23.6289  -51.5651 C.3       16 UNK         0.1400 
     91 CB         -1.8350  -23.5345  -51.9541 C.3       16 UNK        -0.1800 
     92 C          -3.9644  -22.2343  -51.5414 C.2       16 UNK         0.5000 
     93 O          -4.5786  -21.8358  -52.5303 O.2       16 UNK        -0.5000 
     94 N          -3.8569  -21.5364  -50.4011 N.am      17 UNK        -0.5000 
     95 CA         -4.5075  -20.2436  -50.1789 C.3       17 UNK         0.1400 
     96 CB         -3.8635  -19.5265  -48.9850 C.3       17 UNK        -0.1800 
     97 C          -6.0260  -20.3845  -49.9719 C.2       17 UNK         0.5000 
     98 O          -6.7760  -19.5089  -50.4007 O.2       17 UNK        -0.5000 
     99 N          -6.4553  -21.4979  -49.3587 N.am      18 UNK        -0.5000 
    100 CA        -7.8655  -21.8513  -49.1720 C.3       18 UNK         0.1400 
    101 CB        -7.9826  -22.9871  -48.1438 C.3       18 UNK        -0.1800 
    102 C         -8.5439  -22.2320  -50.5015 C.2       18 UNK         0.5000 
    103 O         -9.6888  -21.8451  -50.7362 O.2       18 UNK        -0.5000 
    104 N         -7.8026  -22.9384  -51.3666 N.am      19 UNK        -0.5000 
    105 CA        -8.1827  -23.2489  -52.7468 C.3       19 UNK         0.1400 
    106 CB        -7.2715  -24.3743  -53.2625 C.3       19 UNK        -0.1800 
    107 C         -8.1094  -22.0303  -53.6925 C.2       19 UNK         0.5000 
    108 O         -8.6487  -22.0959  -54.7976 O.2       19 UNK        -0.5000 
    109 N         -7.4314  -20.9600  -53.2502 N.am      20 UNK        -0.5000 
    110 CA        -7.1316  -19.7163  -53.9664 C.3       20 UNK         0.1400 
    111 CB        -8.4219  -18.9346  -54.2873 C.3       20 UNK        -0.1800 
    112 C         -6.2314  -19.9361  -55.2003 C.2       20 UNK         0.5000 
    113 O         -6.3314  -19.1972  -56.1819 O.2       20 UNK        -0.5000 
    114 N         -5.3408  -20.9350  -55.1198 N.am      21 UNK        -0.5000 
    115 CA        -4.4042  -21.3251  -56.1764 C.3       21 UNK         0.1400 
    116 CB        -3.7357  -22.6517  -55.7847 C.3       21 UNK        -0.1800 
    117 C         -3.3444  -20.2470  -56.4726 C.2       21 UNK         0.5000 
    118 O         -2.8577  -20.1634  -57.6008 O.2       21 UNK        -0.5000 
    119 N         -3.0330  -19.4290  -55.4609 N.am      22 UNK        -0.5000 
    120 CA        -2.1903  -18.2303  -55.5603 C.3       22 UNK         0.1400 
    121 C         -2.9079  -16.9756  -56.1461 C.2       22 UNK         0.5000 
    122 N         -4.1971  -17.0201  -56.4662 N.am      22 UNK        -0.7600 
    123 O         -2.2750  -15.9400  -56.3332 O.2       22 UNK        -0.5000 
    124 C124       -1.4784  -17.9356  -54.2156 C.3       23 UNK        -0.0398 
    125 S125       -2.6150  -17.6983  -52.8009 S.3       23 UNK        -0.2404 
    126 C126       -1.8936  -16.2160  -52.0077 C.3       23 UNK        -0.0205 
    127 H127        6.9656  -16.1464  -50.8389 H         1 UNK         0.0600 
    128 H128        7.7175  -16.2223  -49.2334 H         1 UNK         0.0600 
    129 H129        8.7125  -16.2671  -50.6831 H         1 UNK         0.0600 
    130 H130        7.0271  -12.5532  -49.7704 H         1 UNK         0.3000 
    131 H131        5.3199  -14.8881  -49.8094 H         1 UNK         0.0600 
    132 H132        4.6690  -12.2054  -48.5012 H         1 UNK         0.0800 
    133 H133        4.6276  -12.3960  -50.2295 H         1 UNK         0.0800 
    134 H134        2.1320  -13.2481  -51.4626 H         1 UNK         0.0800 
    135 H135        3.5267  -14.3005  -51.4441 H         1 UNK         0.0800 
    136 H136       -0.0373  -14.2609  -51.7262 H         1 UNK         0.1150 
    137 H137       -0.5383  -18.4758  -51.2241 H         1 UNK         0.1150 
    138 H138        3.2460  -16.6539  -50.3759 H         1 UNK         0.1150 
    139 H139        3.0523  -19.1252  -50.7480 H         1 UNK         0.0800 
    140 H140        2.1835  -19.0411  -49.2369 H         1 UNK         0.0800 
    141 H141       -1.1336  -20.7547  -50.1631 H         1 UNK         0.0800 
    142 H142       -0.3355  -19.5942  -49.1287 H         1 UNK         0.0800 
    143 H143        0.2337  -22.5884  -49.0365 H         1 UNK         0.0600 
    144 H144        1.2282  -20.3538  -47.4135 H         1 UNK         0.3000 
    145 H145        3.1731  -22.4752  -45.3110 H         1 UNK         0.0600 
    146 H146        4.9549  -20.9729  -46.1703 H         1 UNK         0.0600 
    147 H147        4.5164  -22.1551  -47.3931 H         1 UNK         0.0600 
    148 H148        3.9383  -20.4997  -47.5318 H         1 UNK         0.0600 
    149 H149        2.9041  -19.6429  -45.4209 H         1 UNK         0.3000 
    150 H150        0.1346  -19.3853  -43.1763 H         1 UNK         0.0600 
    151 H151        3.0908  -18.6919  -42.8394 H         1 UNK         0.0600 
    152 H152        2.2203  -19.8396  -41.8256 H         1 UNK         0.0600 
    153 H153        1.7469  -18.1510  -41.8362 H         1 UNK         0.0600 
    154 H154        1.3288  -17.1909  -44.0294 H         1 UNK         0.3000 
    155 H155        0.5644  -15.7986  -45.5154 H         1 UNK         0.0600 
    156 H156        0.1331  -17.0649  -48.2772 H         1 UNK         0.0600 
    157 H157        1.6744  -16.4985  -47.6469 H         1 UNK         0.0600 
    158 H158        0.3869  -15.3518  -47.9631 H         1 UNK         0.0600 
    159 H159       -1.8502  -16.5141  -47.0143 H         1 UNK         0.3000 
    160 H160       -4.0306  -15.2614  -45.1689 H         1 UNK         0.0600 
    161 H161       -3.6618  -18.0545  -46.4148 H         1 UNK         0.0600 
    162 H162       -3.8724  -16.5407  -47.2963 H         1 UNK         0.0600 
    163 H163       -5.1933  -17.1915  -46.3487 H         1 UNK         0.0600 
    164 H164       -3.2910  -17.3502  -43.3954 H         1 UNK         0.3000 
    165 H165       -5.9792  -16.8377  -41.2873 H         1 UNK         0.0600 
    166 H166       -6.0116  -19.3059  -40.9665 H         1 UNK         0.0600 
    167 H167       -6.8871  -18.8644  -42.4237 H         1 UNK         0.0600 
    168 H168       -5.2695  -19.5436  -42.5492 H         1 UNK         0.0600 
    169 H169       -3.5467  -18.4153  -41.1985 H         1 UNK         0.3000 
    170 H170       -1.7894  -16.3680  -39.3176 H         1 UNK         0.0600 
    171 H171       -1.3721  -18.3683  -41.6213 H         1 UNK         0.0600 
    172 H172       -0.2671  -18.1161  -40.2772 H         1 UNK         0.0600 
    173 H173       -1.8599  -18.7799  -39.9735 H         1 UNK         0.0600 
    174 H174       -1.3392  -15.6495  -42.1640 H         1 UNK         0.3000 
    175 H175       -0.0594  -14.0398  -42.7342 H         1 UNK         0.0600 
    176 H176        0.4107  -12.1208  -40.3937 H         1 UNK         0.0600 
    177 H177        0.2950  -11.6795  -42.0977 H         1 UNK         0.0600 
    178 H178       -1.1069  -12.3268  -41.2598 H         1 UNK         0.0600 
    179 H179        2.3679  -13.1940  -41.3990 H         1 UNK         0.3000 
    180 H180        4.3160  -13.7448  -42.5987 H         1 UNK         0.0600 
    181 H181        4.3153  -16.4661  -41.1703 H         1 UNK         0.0600 
    182 H182        4.1792  -14.9031  -40.3758 H         1 UNK         0.0600 
    183 H183        5.6625  -15.3272  -41.2136 H         1 UNK         0.0600 
    184 H184        5.1738  -16.3022  -43.4697 H         1 UNK         0.3000 
    185 H185        6.1399  -16.2566  -45.6983 H         1 UNK         0.0600 
    186 H186        3.3513  -17.3825  -46.3134 H         1 UNK         0.0600 
    187 H187        4.8777  -18.1429  -46.7594 H         1 UNK         0.0600 
    188 H188        4.4448  -17.9664  -45.0680 H         1 UNK         0.0600 
    189 H189        4.3737  -15.8767  -47.9726 H         1 UNK         0.3000 
    190 H190       -0.8161  -20.6431  -46.2713 H         1 UNK         0.3000 
    191 H191       -3.5260  -21.5588  -46.1923 H         1 UNK         0.0600 
    192 H192       -2.6465  -19.5868  -44.8970 H         1 UNK         0.0600 
    193 H193       -3.4848  -20.7436  -43.8729 H         1 UNK         0.0600 
    194 H194       -1.7297  -20.6832  -43.8695 H         1 UNK         0.0600 
    195 H195       -0.5101  -22.7976  -44.6613 H         1 UNK         0.3000 
    196 H196       -1.6525  -25.0679  -43.4029 H         1 UNK         0.0600 
    197 H197        0.7323  -25.8220  -43.2430 H         1 UNK         0.0600 
    198 H198        0.5503  -24.1386  -42.7737 H         1 UNK         0.0600 
    199 H199        1.2142  -24.5445  -44.3546 H         1 UNK         0.0600 
    200 H200       -0.2183  -24.6655  -46.6597 H         1 UNK         0.3000 
    201 H201       -0.5124  -27.4305  -47.4353 H         1 UNK         0.0600 
    202 H202        0.1415  -26.5618  -49.6672 H         1 UNK         0.0600 
    203 H203        1.1841  -25.8846  -48.4271 H         1 UNK         0.0600 
    204 H204       -0.1055  -24.9074  -49.1278 H         1 UNK         0.0600 
    205 H205       -2.7805  -24.9057  -47.1467 H         1 UNK         0.3000 
    206 H206       -4.8769  -24.5378  -47.6411 H         1 UNK         0.0600 
    207 H207       -5.3179  -26.9459  -47.0895 H         1 UNK         0.0600 
    208 H208       -6.4366  -26.3103  -48.2840 H         1 UNK         0.0600 
    209 H209       -5.1275  -27.3625  -48.7932 H         1 UNK         0.0600 
    210 H210       -2.6025  -24.3423  -49.7040 H         1 UNK         0.3000 
    211 H211       -3.8362  -24.2255  -52.3184 H         1 UNK         0.0600 
    212 H212       -1.2530  -22.9976  -51.2050 H         1 UNK         0.0600 
    213 H213       -1.7091  -23.0121  -52.9031 H         1 UNK         0.0600 
    214 H214       -1.3959  -24.5258  -52.0684 H         1 UNK         0.0600 
    215 H215       -3.3471  -21.9476  -49.6259 H         1 UNK         0.3000 
    216 H216       -4.3530  -19.6229  -51.0642 H         1 UNK         0.0600 
    217 H217       -4.3533  -18.5687  -48.8085 H         1 UNK         0.0600 
    218 H218       -2.8110  -19.3154  -49.1658 H         1 UNK         0.0600 
    219 H219       -3.9431  -20.1112  -48.0690 H         1 UNK         0.0600 
    220 H220       -5.7729  -22.1771  -49.0606 H         1 UNK         0.3000 
    221 H221       -8.3844  -20.9780  -48.7707 H         1 UNK         0.0600 
    222 H222       -7.5032  -23.9023  -48.4900 H         1 UNK         0.0600 
    223 H223       -7.5279  -22.7083  -47.1930 H         1 UNK         0.0600 
    224 H224       -9.0289  -23.2235  -47.9461 H         1 UNK         0.0600 
    225 H225       -6.9061  -23.3001  -51.0563 H         1 UNK         0.3000 
    226 H226       -9.2132  -23.6096  -52.7503 H         1 UNK         0.0600 
    227 H227       -7.5482  -24.6713  -54.2748 H         1 UNK         0.0600 
    228 H228       -6.2260  -24.0648  -53.2854 H         1 UNK         0.0600 
    229 H229       -7.3438  -25.2609  -52.6323 H         1 UNK         0.0600 
    230 H230       -7.0151  -21.0337  -52.3328 H         1 UNK         0.3000 
    231 H231       -6.5451  -19.1085  -53.2759 H         1 UNK         0.0600 
    232 H232       -9.0316  -19.4447  -55.0334 H         1 UNK         0.0600 
    233 H233       -8.1907  -17.9430  -54.6779 H         1 UNK         0.0600 
    234 H234       -9.0299  -18.7961  -53.3932 H         1 UNK         0.0600 
    235 H235       -5.2594  -21.4339  -54.2370 H         1 UNK         0.3000 
    236 H236       -4.9785  -21.4855  -57.0911 H         1 UNK         0.0600 
    237 H237       -4.4771  -23.4329  -55.6157 H         1 UNK         0.0600 
    238 H238       -3.0678  -23.0006  -56.5732 H         1 UNK         0.0600 
    239 H239       -3.1443  -22.5487  -54.8747 H         1 UNK         0.0600 
    240 H240       -3.4866  -19.5726  -54.5704 H         1 UNK         0.3000 
    241 H241       -1.3993  -18.4536  -56.2787 H         1 UNK         0.0600 
    242 H242       -4.7470  -17.8619  -56.3454 H         1 UNK         0.3800 
    243 H243       -4.6338  -16.1973  -56.8503 H         1 UNK         0.3800 
    244 H244       -0.8169  -18.7669  -53.9681 H         1 UNK         0.0800 
    245 H245       -0.8241  -17.0680  -54.3174 H         1 UNK         0.0800 
    246 H246       -2.5040  -15.9561  -51.1422 H         1 UNK         0.0800 
    247 H247       -1.9770  -15.3824  -52.7071 H         1 UNK         0.0800 
@<TRIPOS>BOND
     1    1    2 1    
     2    1  127 1    
     3    1  128 1    
     4    1  129 1    
     5    2    3 2    
     6    2    4 am   BACKBONE|DICT|INTERRES
     7    4    5 1    
     8    4  130 1    
     9    5    6 1    
    10    5   65 1    
    11    5  131 1    
    12    6    7 1    
    13    6  132 1    
    14    6  133 1    
    15    7    8 1    
    16    8    9 1    
    17    8  134 1    
    18    8  135 1    
    19    9   10 ar   
    20    9   14 ar   
    21   10   11 ar   
    22   10  136 1    
    23   11   12 ar   
    24   11  126 1    
    25   12   13 ar   
    26   12  137 1    
    27   13   14 ar   
    28   13   15 1    
    29   14  138 1    
    30   15   16 1    
    31   15  139 1    
    32   15  140 1    
    33   16   17 1    
    34   17   18 1    
    35   17  141 1    
    36   17  142 1    
    37   18   19 1    
    38   18   67 1    
    39   18  143 1    
    40   19   20 am   BACKBONE|DICT|INTERRES
    41   19  144 1    
    42   20   21 2    
    43   20   22 1    
    44   22   23 1    
    45   22   24 1    
    46   22  145 1    
    47   23  146 1    
    48   23  147 1    
    49   23  148 1    
    50   24   25 am   BACKBONE|DICT|INTERRES
    51   24  149 1    
    52   25   26 2    
    53   25   27 1    
    54   27   28 1    
    55   27   29 1    
    56   27  150 1    
    57   28  151 1    
    58   28  152 1    
    59   28  153 1    
    60   29   30 am   BACKBONE|DICT|INTERRES
    61   29  154 1    
    62   30   31 2    
    63   30   32 1    
    64   32   33 1    
    65   32   34 1    
    66   32  155 1    
    67   33  156 1    
    68   33  157 1    
    69   33  158 1    
    70   34   35 am   BACKBONE|DICT|INTERRES
    71   34  159 1    
    72   35   36 2    
    73   35   37 1    
    74   37   38 1    
    75   37   39 1    
    76   37  160 1    
    77   38  161 1    
    78   38  162 1    
    79   38  163 1    
    80   39   40 am   BACKBONE|DICT|INTERRES
    81   39  164 1    
    82   40   41 2    
    83   40   42 1    
    84   42   43 1    
    85   42   44 1    
    86   42  165 1    
    87   43  166 1    
    88   43  167 1    
    89   43  168 1    
    90   44   45 am   BACKBONE|DICT|INTERRES
    91   44  169 1    
    92   45   46 2    
    93   45   47 1    
    94   47   48 1    
    95   47   49 1    
    96   47  170 1    
    97   48  171 1    
    98   48  172 1    
    99   48  173 1    
   100   49   50 am   BACKBONE|DICT|INTERRES
   101   49  174 1    
   102   50   51 2    
   103   50   52 1    
   104   52   53 1    
   105   52   54 1    
   106   52  175 1    
   107   53  176 1    
   108   53  177 1    
   109   53  178 1    
   110   54   55 am   BACKBONE|DICT|INTERRES
   111   54  179 1    
   112   55   56 2    
   113   55   57 1    
   114   57   58 1    
   115   57   59 1    
   116   57  180 1    
   117   58  181 1    
   118   58  182 1    
   119   58  183 1    
   120   59   60 am   BACKBONE|DICT|INTERRES
   121   59  184 1    
   122   60   61 2    
   123   60   62 1    
   124   62   63 1    
   125   62   64 1    
   126   62  185 1    
   127   63  186 1    
   128   63  187 1    
   129   63  188 1    
   130   64   65 am   BACKBONE|DICT|INTERRES
   131   64  189 1    
   132   65   66 2    
   133   67   68 2    
   134   67   69 am   BACKBONE|DICT|INTERRES
   135   69   70 1    
   136   69  190 1    
   137   70   71 1    
   138   70   72 1    
   139   70  191 1    
   140   71  192 1    
   141   71  193 1    
   142   71  194 1    
   143   72   73 2    
   144   72   74 am   BACKBONE|DICT|INTERRES
   145   74   75 1    
   146   74  195 1    
   147   75   76 1    
   148   75   77 1    
   149   75  196 1    
   150   76  197 1    
   151   76  198 1    
   152   76  199 1    
   153   77   78 2    
   154   77   79 am   BACKBONE|DICT|INTERRES
   155   79   80 1    
   156   79  200 1    
   157   80   81 1    
   158   80   82 1    
   159   80  201 1    
   160   81  202 1    
   161   81  203 1    
   162   81  204 1    
   163   82   83 2    
   164   82   84 am   BACKBONE|DICT|INTERRES
   165   84   85 1    
   166   84  205 1    
   167   85   86 1    
   168   85   87 1    
   169   85  206 1    
   170   86  207 1    
   171   86  208 1    
   172   86  209 1    
   173   87   88 2    
   174   87   89 am   BACKBONE|DICT|INTERRES
   175   89   90 1    
   176   89  210 1    
   177   90   91 1    
   178   90   92 1    
   179   90  211 1    
   180   91  212 1    
   181   91  213 1    
   182   91  214 1    
   183   92   93 2    
   184   92   94 am   BACKBONE|DICT|INTERRES
   185   94   95 1    
   186   94  215 1    
   187   95   96 1    
   188   95   97 1    
   189   95  216 1    
   190   96  217 1    
   191   96  218 1    
   192   96  219 1    
   193   97   98 2    
   194   97   99 am   BACKBONE|DICT|INTERRES
   195   99  100 1    
   196   99  220 1    
   197  100  101 1    
   198  100  102 1    
   199  100  221 1    
   200  101  222 1    
   201  101  223 1    
   202  101  224 1    
   203  102  103 2    
   204  102  104 am   BACKBONE|DICT|INTERRES
   205  104  105 1    
   206  104  225 1    
   207  105  106 1    
   208  105  107 1    
   209  105  226 1    
   210  106  227 1    
   211  106  228 1    
   212  106  229 1    
   213  107  108 2    
   214  107  109 am   BACKBONE|DICT|INTERRES
   215  109  110 1    
   216  109  230 1    
   217  110  111 1    
   218  110  112 1    
   219  110  231 1    
   220  111  232 1    
   221  111  233 1    
   222  111  234 1    
   223  112  113 2    
   224  112  114 am   BACKBONE|DICT|INTERRES
   225  114  115 1    
   226  114  235 1    
   227  115  116 1    
   228  115  117 1    
   229  115  236 1    
   230  116  237 1    
   231  116  238 1    
   232  116  239 1    
   233  117  118 2    
   234  117  119 am   BACKBONE|DICT|INTERRES
   235  119  120 1    
   236  119  240 1    
   237  120  121 1    
   238  120  124 1    
   239  120  241 1    
   240  121  122 am   BACKBONE|DICT|INTERRES
   241  121  123 2    
   242  122  242 1    
   243  122  243 1    
   244  124  125 1    
   245  124  244 1    
   246  124  245 1    
   247  125  126 1    
   248  126  246 1    
   249  126  247 1    
@<TRIPOS>SUBSTRUCTURE
     1 UNK         1 GROUP             0       ****    0 ROOT    
