@<TRIPOS>MOLECULE
3R540
247   249    1
SMALL
USER_CHARGES


@<TRIPOS>ATOM
      1 CA          1.3488   -9.7661  -51.5886 C.3       0 UNK        -0.1800 
      2 C           1.0712  -11.0667  -50.8470 C.2       0 UNK         0.5000 
      3 O           0.2694  -11.8720  -51.3185 O.2       0 UNK        -0.5000 
      4 N           1.7456  -11.2657  -49.7059 N.am      1 UNK        -0.5000 
      5 CA          1.6164  -12.3896  -48.7712 C.3       1 UNK         0.1400 
      6 C6          1.7600  -13.7851  -49.4320 C.3       23 UNK        -0.0398 
      7 S7          2.3252  -15.0632  -48.2574 S.3       23 UNK        -0.2404 
      8 C8          3.1223  -16.2452  -49.3889 C.3       23 UNK        -0.0205 
      9 C9          2.1015  -16.9891  -50.2372 C.ar      23 UNK        -0.0193 
     10 C10         1.6987  -16.4781  -51.4755 C.ar      23 UNK        -0.1150 
     11 C11         0.7472  -17.1509  -52.2481 C.ar      23 UNK        -0.0193 
     12 C12         0.2181  -18.3566  -51.7813 C.ar      23 UNK        -0.1150 
     13 C13         0.6395  -18.8981  -50.5651 C.ar      23 UNK        -0.0193 
     14 C14         1.5654  -18.1979  -49.7857 C.ar      23 UNK        -0.1150 
     15 C15         0.0752  -20.2320  -50.1036 C.3       23 UNK        -0.0205 
     16 S16         1.3740  -21.4517  -49.7330 S.3       23 UNK        -0.2404 
     17 C17         1.3415  -21.4369  -47.9081 C.3       23 UNK        -0.0398 
     18 CA          0.6942  -22.7054  -47.3026 C.3       11 UNK         0.1400 
     19 N           1.0109  -22.7897  -45.8833 N.am      11 UNK        -0.5000 
     20 C           1.1787  -23.9135  -45.1798 C.2       10 UNK         0.5000 
     21 O           1.0147  -25.0431  -45.6448 O.2       10 UNK        -0.5000 
     22 CA          1.6483  -23.7205  -43.7206 C.3       10 UNK         0.1400 
     23 CB          2.2012  -25.0105  -43.0813 C.3       10 UNK        -0.1800 
     24 N           2.6068  -22.6148  -43.5872 N.am      10 UNK        -0.5000 
     25 C           3.8017  -22.4837  -44.1867 C.2       9 UNK         0.5000 
     26 O           4.3284  -23.3660  -44.8657 O.2       9 UNK        -0.5000 
     27 CA          4.5258  -21.1275  -44.0394 C.3       9 UNK         0.1400 
     28 CB          4.5008  -20.3617  -45.3725 C.3       9 UNK        -0.1800 
     29 N           3.9553  -20.2678  -43.0017 N.am      9 UNK        -0.5000 
     30 C           4.1378  -20.4300  -41.6849 C.2       8 UNK         0.5000 
     31 O           4.8778  -21.2842  -41.1958 O.2       8 UNK        -0.5000 
     32 CA          3.3208  -19.5079  -40.7593 C.3       8 UNK         0.1400 
     33 CB          4.0626  -18.1849  -40.5168 C.3       8 UNK        -0.1800 
     34 N           1.9759  -19.2306  -41.2729 N.am      8 UNK        -0.5000 
     35 C           1.0239  -20.1584  -41.4504 C.2       7 UNK         0.5000 
     36 O           1.1668  -21.3470  -41.1653 O.2       7 UNK        -0.5000 
     37 CA         -0.2907  -19.6989  -42.1010 C.3       7 UNK         0.1400 
     38 CB         -1.2047  -19.0297  -41.0640 C.3       7 UNK        -0.1800 
     39 N          -0.0766  -18.8016  -43.2379 N.am      7 UNK        -0.5000 
     40 C           0.5170  -19.1554  -44.3874 C.2       6 UNK         0.5000 
     41 O           0.9164  -20.2940  -44.6250 O.2       6 UNK        -0.5000 
     42 CA          0.7491  -18.0488  -45.4332 C.3       6 UNK         0.1400 
     43 CB         -0.5082  -17.8109  -46.2823 C.3       6 UNK        -0.1800 
     44 N           1.1903  -16.7929  -44.8288 N.am      6 UNK        -0.5000 
     45 C           2.3362  -16.6466  -44.1480 C.2       5 UNK         0.5000 
     46 O           3.1734  -17.5396  -44.0133 O.2       5 UNK        -0.5000 
     47 CA          2.5471  -15.2981  -43.4410 C.3       5 UNK         0.1400 
     48 CB          3.0464  -14.2252  -44.4214 C.3       5 UNK        -0.1800 
     49 N           1.3238  -14.8427  -42.7784 N.am      5 UNK        -0.5000 
     50 C           0.8034  -15.4158  -41.6833 C.2       4 UNK         0.5000 
     51 O           1.3239  -16.3652  -41.0988 O.2       4 UNK        -0.5000 
     52 CA         -0.5388  -14.8580  -41.1730 C.3       4 UNK         0.1400 
     53 CB         -0.3058  -13.6474  -40.2572 C.3       4 UNK        -0.1800 
     54 N          -1.4449  -14.4763  -42.2565 N.am      4 UNK        -0.5000 
     55 C          -2.0068  -15.3366  -43.1181 C.2       3 UNK         0.5000 
     56 O          -1.8558  -16.5550  -43.0632 O.2       3 UNK        -0.5000 
     57 CA         -2.8221  -14.7251  -44.2735 C.3       3 UNK         0.1400 
     58 CB         -4.2817  -14.5059  -43.8502 C.3       3 UNK        -0.1800 
     59 N          -2.2578  -13.4640  -44.7659 N.am      3 UNK        -0.5000 
     60 C          -1.0308  -13.3457  -45.2895 C.2       2 UNK         0.5000 
     61 O          -0.2533  -14.2949  -45.4181 O.2       2 UNK        -0.5000 
     62 CA         -0.5712  -11.9211  -45.6488 C.3       2 UNK         0.1400 
     63 CB         -0.0572  -11.2004  -44.3919 C.3       2 UNK        -0.1800 
     64 N           0.4996  -11.9409  -46.6435 N.am      2 UNK        -0.5000 
     65 C           0.3287  -12.2642  -47.9308 C.2       1 UNK         0.5000 
     66 O          -0.7770  -12.4490  -48.4442 O.2       1 UNK        -0.5000 
     67 C          -0.8331  -22.7597  -47.5198 C.2       11 UNK         0.5000 
     68 O          -1.6064  -22.3439  -46.6505 O.2       11 UNK        -0.5000 
     69 N          -1.2314  -23.2516  -48.7020 N.am      12 UNK        -0.5000 
     70 CA         -2.6055  -23.5206  -49.1349 C.3       12 UNK         0.1400 
     71 CB         -2.5839  -24.0020  -50.5931 C.3       12 UNK        -0.1800 
     72 C          -3.5855  -22.3458  -48.9720 C.2       12 UNK         0.5000 
     73 O          -4.7281  -22.5765  -48.5866 O.2       12 UNK        -0.5000 
     74 N          -3.1152  -21.1100  -49.1940 N.am      13 UNK        -0.5000 
     75 CA         -3.9009  -19.8787  -49.0425 C.3       13 UNK         0.1400 
     76 CB         -3.0714  -18.6741  -49.5153 C.3       13 UNK        -0.1800 
     77 C          -4.4303  -19.6385  -47.6122 C.2       13 UNK         0.5000 
     78 O          -5.4219  -18.9277  -47.4526 O.2       13 UNK        -0.5000 
     79 N          -3.7821  -20.2437  -46.6084 N.am      14 UNK        -0.5000 
     80 CA         -4.2552  -20.2822  -45.2280 C.3       14 UNK         0.1400 
     81 CB         -3.0963  -19.9337  -44.2865 C.3       14 UNK        -0.1800 
     82 C          -4.8255  -21.6676  -44.8867 C.2       14 UNK         0.5000 
     83 O          -5.9001  -21.7485  -44.2921 O.2       14 UNK        -0.5000 
     84 N          -4.0981  -22.7310  -45.2588 N.am      15 UNK        -0.5000 
     85 CA         -4.3940  -24.1137  -44.8771 C.3       15 UNK         0.1400 
     86 CB         -3.1655  -24.9866  -45.1786 C.3       15 UNK        -0.1800 
     87 C          -5.6560  -24.7088  -45.5328 C.2       15 UNK         0.5000 
     88 O          -6.3075  -25.5533  -44.9167 O.2       15 UNK        -0.5000 
     89 N          -5.9728  -24.2770  -46.7589 N.am      16 UNK        -0.5000 
     90 CA         -7.0860  -24.7723  -47.5724 C.3       16 UNK         0.1400 
     91 CB         -6.5158  -25.6856  -48.6729 C.3       16 UNK        -0.1800 
     92 C          -7.9204  -23.6258  -48.1775 C.2       16 UNK         0.5000 
     93 O          -8.7826  -23.8888  -49.0172 O.2       16 UNK        -0.5000 
     94 N          -7.6393  -22.3789  -47.7702 N.am      17 UNK        -0.5000 
     95 CA         -8.1977  -21.0971  -48.2239 C.3       17 UNK         0.1400 
     96 CB         -9.7155  -21.0218  -47.9719 C.3       17 UNK        -0.1800 
     97 C          -7.8549  -20.7157  -49.6808 C.2       17 UNK         0.5000 
     98 O          -7.5426  -19.5534  -49.9408 O.2       17 UNK        -0.5000 
     99 N          -7.9188  -21.6769  -50.6079 N.am      18 UNK        -0.5000 
    100 CA        -7.5540  -21.5141  -52.0120 C.3       18 UNK         0.1400 
    101 CB        -8.1751  -22.6589  -52.8273 C.3       18 UNK        -0.1800 
    102 C         -6.0252  -21.4948  -52.1770 C.2       18 UNK         0.5000 
    103 O         -5.3568  -22.4302  -51.7392 O.2       18 UNK        -0.5000 
    104 N         -5.5006  -20.4524  -52.8334 N.am      19 UNK        -0.5000 
    105 CA        -4.0669  -20.2530  -53.0789 C.3       19 UNK         0.1400 
    106 CB        -3.8256  -18.7684  -53.3956 C.3       19 UNK        -0.1800 
    107 C         -3.4775  -21.1543  -54.1862 C.2       19 UNK         0.5000 
    108 O         -2.2615  -21.1376  -54.3872 O.2       19 UNK        -0.5000 
    109 N         -4.3372  -21.9130  -54.8838 N.am      20 UNK        -0.5000 
    110 CA        -4.0218  -22.8528  -55.9628 C.3       20 UNK         0.1400 
    111 CB        -3.2432  -24.0679  -55.4083 C.3       20 UNK        -0.1800 
    112 C         -3.3367  -22.1377  -57.1455 C.2       20 UNK         0.5000 
    113 O         -3.8822  -21.1501  -57.6426 O.2       20 UNK        -0.5000 
    114 N         -2.1538  -22.6122  -57.5600 N.am      21 UNK        -0.5000 
    115 CA        -1.3432  -22.0463  -58.6441 C.3       21 UNK         0.1400 
    116 CB        -0.1373  -22.9650  -58.8937 C.3       21 UNK        -0.1800 
    117 C         -0.8751  -20.5966  -58.3955 C.2       21 UNK         0.5000 
    118 O         -0.5943  -19.8808  -59.3577 O.2       21 UNK        -0.5000 
    119 N         -0.8185  -20.1871  -57.1220 N.am      22 UNK        -0.5000 
    120 CA        -0.5619  -18.8061  -56.6911 C.3       22 UNK         0.1400 
    121 C         -1.8285  -17.8924  -56.7318 C.2       22 UNK         0.5000 
    122 N         -3.0213  -18.3996  -57.0254 N.am      22 UNK        -0.7600 
    123 O         -1.7313  -16.6884  -56.5158 O.2       22 UNK        -0.5000 
    124 C124        0.1335  -18.8028  -55.3053 C.3       23 UNK        -0.0398 
    125 S125        1.1541  -17.3200  -54.9900 S.3       23 UNK        -0.2404 
    126 C126        0.2857  -16.5668  -53.5765 C.3       23 UNK        -0.0205 
    127 H127        2.0864   -9.1517  -51.0717 H         1 UNK         0.0600 
    128 H128        0.4309   -9.1860  -51.6842 H         1 UNK         0.0600 
    129 H129        1.7249   -9.9778  -52.5895 H         1 UNK         0.0600 
    130 H130        2.3787  -10.5402  -49.3986 H         1 UNK         0.3000 
    131 H131        2.4657  -12.2683  -48.0963 H         1 UNK         0.0600 
    132 H132        0.8272  -14.1101  -49.8964 H         1 UNK         0.0800 
    133 H133        2.4930  -13.7242  -50.2369 H         1 UNK         0.0800 
    134 H134        3.7003  -16.9575  -48.7982 H         1 UNK         0.0800 
    135 H135        3.8419  -15.7267  -50.0242 H         1 UNK         0.0800 
    136 H136        2.1165  -15.5481  -51.8338 H         1 UNK         0.1150 
    137 H137       -0.5217  -18.8827  -52.3641 H         1 UNK         0.1150 
    138 H138        1.8809  -18.5997  -48.8336 H         1 UNK         0.1150 
    139 H139       -0.5476  -20.0624  -49.2278 H         1 UNK         0.0800 
    140 H140       -0.5719  -20.6578  -50.8723 H         1 UNK         0.0800 
    141 H141        0.8673  -20.5317  -47.5265 H         1 UNK         0.0800 
    142 H142        2.3822  -21.3749  -47.5864 H         1 UNK         0.0800 
    143 H143        1.1351  -23.5752  -47.7950 H         1 UNK         0.0600 
    144 H144        1.0760  -21.9001  -45.3906 H         1 UNK         0.3000 
    145 H145        0.7634  -23.4249  -43.1552 H         1 UNK         0.0600 
    146 H146        2.5133  -24.8357  -42.0517 H         1 UNK         0.0600 
    147 H147        1.4413  -25.7924  -43.0614 H         1 UNK         0.0600 
    148 H148        3.0580  -25.4017  -43.6304 H         1 UNK         0.0600 
    149 H149        2.2691  -21.8248  -43.0525 H         1 UNK         0.3000 
    150 H150        5.5668  -21.3378  -43.7861 H         1 UNK         0.0600 
    151 H151        4.9395  -20.9539  -46.1765 H         1 UNK         0.0600 
    152 H152        5.0697  -19.4342  -45.3045 H         1 UNK         0.0600 
    153 H153        3.4833  -20.1063  -45.6692 H         1 UNK         0.0600 
    154 H154        3.3807  -19.4943  -43.3198 H         1 UNK         0.3000 
    155 H155        3.2117  -20.0167  -39.7994 H         1 UNK         0.0600 
    156 H156        5.0623  -18.3640  -40.1192 H         1 UNK         0.0600 
    157 H157        3.5326  -17.5629  -39.7954 H         1 UNK         0.0600 
    158 H158        4.1724  -17.6102  -41.4367 H         1 UNK         0.0600 
    159 H159        1.7622  -18.2604  -41.4842 H         1 UNK         0.3000 
    160 H160       -0.7995  -20.5908  -42.4715 H         1 UNK         0.0600 
    161 H161       -0.7624  -18.1166  -40.6663 H         1 UNK         0.0600 
    162 H162       -1.3935  -19.6966  -40.2220 H         1 UNK         0.0600 
    163 H163       -2.1715  -18.7716  -41.4954 H         1 UNK         0.0600 
    164 H164       -0.4520  -17.8618  -43.1482 H         1 UNK         0.3000 
    165 H165        1.5434  -18.3903  -46.1001 H         1 UNK         0.0600 
    166 H166       -0.3005  -17.1268  -47.1058 H         1 UNK         0.0600 
    167 H167       -0.8721  -18.7437  -46.7149 H         1 UNK         0.0600 
    168 H168       -1.3184  -17.3843  -45.6916 H         1 UNK         0.0600 
    169 H169        0.5780  -15.9883  -44.9317 H         1 UNK         0.3000 
    170 H170        3.3156  -15.4382  -42.6777 H         1 UNK         0.0600 
    171 H171        3.2273  -13.2785  -43.9124 H         1 UNK         0.0600 
    172 H172        3.9856  -14.5312  -44.8838 H         1 UNK         0.0600 
    173 H173        2.3350  -14.0436  -45.2262 H         1 UNK         0.0600 
    174 H174        0.7998  -14.1172  -43.2437 H         1 UNK         0.3000 
    175 H175       -1.0236  -15.6410  -40.5863 H         1 UNK         0.0600 
    176 H176        0.3537  -13.9070  -39.4280 H         1 UNK         0.0600 
    177 H177        0.1534  -12.8166  -40.7945 H         1 UNK         0.0600 
    178 H178       -1.2425  -13.2926  -39.8267 H         1 UNK         0.0600 
    179 H179       -1.6261  -13.4909  -42.3745 H         1 UNK         0.3000 
    180 H180       -2.8103  -15.4402  -45.0987 H         1 UNK         0.0600 
    181 H181       -4.7289  -15.4366  -43.4978 H         1 UNK         0.0600 
    182 H182       -4.3634  -13.7761  -43.0438 H         1 UNK         0.0600 
    183 H183       -4.8861  -14.1532  -44.6861 H         1 UNK         0.0600 
    184 H184       -2.8401  -12.6433  -44.6793 H         1 UNK         0.3000 
    185 H185       -1.4205  -11.3675  -46.0546 H         1 UNK         0.0600 
    186 H186       -0.8345  -11.1327  -43.6298 H         1 UNK         0.0600 
    187 H187        0.7940  -11.7184  -43.9478 H         1 UNK         0.0600 
    188 H188        0.2552  -10.1817  -44.6228 H         1 UNK         0.0600 
    189 H189        1.4369  -11.8216  -46.2897 H         1 UNK         0.3000 
    190 H190       -0.5141  -23.5341  -49.3550 H         1 UNK         0.3000 
    191 H191       -2.9800  -24.3394  -48.5188 H         1 UNK         0.0600 
    192 H192       -1.9465  -24.8780  -50.7136 H         1 UNK         0.0600 
    193 H193       -2.2237  -23.2261  -51.2700 H         1 UNK         0.0600 
    194 H194       -3.5839  -24.2861  -50.9232 H         1 UNK         0.0600 
    195 H195       -2.1561  -21.0129  -49.4831 H         1 UNK         0.3000 
    196 H196       -4.7687  -19.9691  -49.6983 H         1 UNK         0.0600 
    197 H197       -3.6835  -17.7716  -49.5386 H         1 UNK         0.0600 
    198 H198       -2.6816  -18.8225  -50.5217 H         1 UNK         0.0600 
    199 H199       -2.2305  -18.4739  -48.8514 H         1 UNK         0.0600 
    200 H200       -2.9864  -20.8323  -46.8267 H         1 UNK         0.3000 
    201 H201       -5.0474  -19.5482  -45.0658 H         1 UNK         0.0600 
    202 H202       -3.3979  -20.0256  -43.2426 H         1 UNK         0.0600 
    203 H203       -2.2396  -20.5899  -44.4437 H         1 UNK         0.0600 
    204 H204       -2.7668  -18.9064  -44.4378 H         1 UNK         0.0600 
    205 H205       -3.2144  -22.5801  -45.7382 H         1 UNK         0.3000 
    206 H206       -4.5554  -24.1290  -43.7971 H         1 UNK         0.0600 
    207 H207       -2.2812  -24.6192  -44.6571 H         1 UNK         0.0600 
    208 H208       -3.3282  -26.0161  -44.8570 H         1 UNK         0.0600 
    209 H209       -2.9381  -25.0083  -46.2440 H         1 UNK         0.0600 
    210 H210       -5.3773  -23.5923  -47.2208 H         1 UNK         0.3000 
    211 H211       -7.7739  -25.3574  -46.9593 H         1 UNK         0.0600 
    212 H212       -7.3121  -26.1247  -49.2750 H         1 UNK         0.0600 
    213 H213       -5.9436  -26.5088  -48.2448 H         1 UNK         0.0600 
    214 H214       -5.8582  -25.1349  -49.3472 H         1 UNK         0.0600 
    215 H215       -6.8888  -22.2932  -47.1005 H         1 UNK         0.3000 
    216 H216       -7.7310  -20.3420  -47.5902 H         1 UNK         0.0600 
    217 H217      -10.0965  -20.0259  -48.2010 H         1 UNK         0.0600 
    218 H218       -9.9525  -21.2283  -46.9283 H         1 UNK         0.0600 
    219 H219      -10.2692  -21.7296  -48.5891 H         1 UNK         0.0600 
    220 H220       -8.1761  -22.6094  -50.2993 H         1 UNK         0.3000 
    221 H221       -7.9696  -20.5719  -52.3756 H         1 UNK         0.0600 
    222 H222       -7.8148  -23.6330  -52.4930 H         1 UNK         0.0600 
    223 H223       -9.2619  -22.6580  -52.7424 H         1 UNK         0.0600 
    224 H224       -7.9312  -22.5631  -53.8860 H         1 UNK         0.0600 
    225 H225       -6.1159  -19.7258  -53.1710 H         1 UNK         0.3000 
    226 H226       -3.5274  -20.4944  -52.1611 H         1 UNK         0.0600 
    227 H227       -2.7642  -18.5593  -53.5275 H         1 UNK         0.0600 
    228 H228       -4.3345  -18.4655  -54.3114 H         1 UNK         0.0600 
    229 H229       -4.1799  -18.1291  -52.5868 H         1 UNK         0.0600 
    230 H230       -5.3169  -21.8171  -54.6633 H         1 UNK         0.3000 
    231 H231       -4.9765  -23.2188  -56.3430 H         1 UNK         0.0600 
    232 H232       -3.7933  -24.5396  -54.5937 H         1 UNK         0.0600 
    233 H233       -2.2624  -23.7901  -55.0208 H         1 UNK         0.0600 
    234 H234       -3.0984  -24.8292  -56.1758 H         1 UNK         0.0600 
    235 H235       -1.7673  -23.4140  -57.0834 H         1 UNK         0.3000 
    236 H236       -1.9585  -22.0367  -59.5460 H         1 UNK         0.0600 
    237 H237       -0.4563  -23.9729  -59.1598 H         1 UNK         0.0600 
    238 H238        0.4751  -22.5924  -59.7160 H         1 UNK         0.0600 
    239 H239        0.5030  -23.0353  -58.0135 H         1 UNK         0.0600 
    240 H240       -1.1055  -20.8287  -56.3935 H         1 UNK         0.3000 
    241 H241        0.1386  -18.3706  -57.4061 H         1 UNK         0.0600 
    242 H242       -3.8154  -17.7814  -57.0632 H         1 UNK         0.3800 
    243 H243       -3.1483  -19.3833  -57.2396 H         1 UNK         0.3800 
    244 H244       -0.6056  -18.9466  -54.5207 H         1 UNK         0.0800 
    245 H245        0.8102  -19.6549  -55.2259 H         1 UNK         0.0800 
    246 H246       -0.7931  -16.6851  -53.6897 H         1 UNK         0.0800 
    247 H247        0.4699  -15.4915  -53.5918 H         1 UNK         0.0800 
@<TRIPOS>BOND
     1    1    2 1    
     2    1  127 1    
     3    1  128 1    
     4    1  129 1    
     5    2    3 2    
     6    2    4 am   BACKBONE|DICT|INTERRES
     7    4    5 1    
     8    4  130 1    
     9    5    6 1    
    10    5   65 1    
    11    5  131 1    
    12    6    7 1    
    13    6  132 1    
    14    6  133 1    
    15    7    8 1    
    16    8    9 1    
    17    8  134 1    
    18    8  135 1    
    19    9   10 ar   
    20    9   14 ar   
    21   10   11 ar   
    22   10  136 1    
    23   11   12 ar   
    24   11  126 1    
    25   12   13 ar   
    26   12  137 1    
    27   13   14 ar   
    28   13   15 1    
    29   14  138 1    
    30   15   16 1    
    31   15  139 1    
    32   15  140 1    
    33   16   17 1    
    34   17   18 1    
    35   17  141 1    
    36   17  142 1    
    37   18   19 1    
    38   18   67 1    
    39   18  143 1    
    40   19   20 am   BACKBONE|DICT|INTERRES
    41   19  144 1    
    42   20   21 2    
    43   20   22 1    
    44   22   23 1    
    45   22   24 1    
    46   22  145 1    
    47   23  146 1    
    48   23  147 1    
    49   23  148 1    
    50   24   25 am   BACKBONE|DICT|INTERRES
    51   24  149 1    
    52   25   26 2    
    53   25   27 1    
    54   27   28 1    
    55   27   29 1    
    56   27  150 1    
    57   28  151 1    
    58   28  152 1    
    59   28  153 1    
    60   29   30 am   BACKBONE|DICT|INTERRES
    61   29  154 1    
    62   30   31 2    
    63   30   32 1    
    64   32   33 1    
    65   32   34 1    
    66   32  155 1    
    67   33  156 1    
    68   33  157 1    
    69   33  158 1    
    70   34   35 am   BACKBONE|DICT|INTERRES
    71   34  159 1    
    72   35   36 2    
    73   35   37 1    
    74   37   38 1    
    75   37   39 1    
    76   37  160 1    
    77   38  161 1    
    78   38  162 1    
    79   38  163 1    
    80   39   40 am   BACKBONE|DICT|INTERRES
    81   39  164 1    
    82   40   41 2    
    83   40   42 1    
    84   42   43 1    
    85   42   44 1    
    86   42  165 1    
    87   43  166 1    
    88   43  167 1    
    89   43  168 1    
    90   44   45 am   BACKBONE|DICT|INTERRES
    91   44  169 1    
    92   45   46 2    
    93   45   47 1    
    94   47   48 1    
    95   47   49 1    
    96   47  170 1    
    97   48  171 1    
    98   48  172 1    
    99   48  173 1    
   100   49   50 am   BACKBONE|DICT|INTERRES
   101   49  174 1    
   102   50   51 2    
   103   50   52 1    
   104   52   53 1    
   105   52   54 1    
   106   52  175 1    
   107   53  176 1    
   108   53  177 1    
   109   53  178 1    
   110   54   55 am   BACKBONE|DICT|INTERRES
   111   54  179 1    
   112   55   56 2    
   113   55   57 1    
   114   57   58 1    
   115   57   59 1    
   116   57  180 1    
   117   58  181 1    
   118   58  182 1    
   119   58  183 1    
   120   59   60 am   BACKBONE|DICT|INTERRES
   121   59  184 1    
   122   60   61 2    
   123   60   62 1    
   124   62   63 1    
   125   62   64 1    
   126   62  185 1    
   127   63  186 1    
   128   63  187 1    
   129   63  188 1    
   130   64   65 am   BACKBONE|DICT|INTERRES
   131   64  189 1    
   132   65   66 2    
   133   67   68 2    
   134   67   69 am   BACKBONE|DICT|INTERRES
   135   69   70 1    
   136   69  190 1    
   137   70   71 1    
   138   70   72 1    
   139   70  191 1    
   140   71  192 1    
   141   71  193 1    
   142   71  194 1    
   143   72   73 2    
   144   72   74 am   BACKBONE|DICT|INTERRES
   145   74   75 1    
   146   74  195 1    
   147   75   76 1    
   148   75   77 1    
   149   75  196 1    
   150   76  197 1    
   151   76  198 1    
   152   76  199 1    
   153   77   78 2    
   154   77   79 am   BACKBONE|DICT|INTERRES
   155   79   80 1    
   156   79  200 1    
   157   80   81 1    
   158   80   82 1    
   159   80  201 1    
   160   81  202 1    
   161   81  203 1    
   162   81  204 1    
   163   82   83 2    
   164   82   84 am   BACKBONE|DICT|INTERRES
   165   84   85 1    
   166   84  205 1    
   167   85   86 1    
   168   85   87 1    
   169   85  206 1    
   170   86  207 1    
   171   86  208 1    
   172   86  209 1    
   173   87   88 2    
   174   87   89 am   BACKBONE|DICT|INTERRES
   175   89   90 1    
   176   89  210 1    
   177   90   91 1    
   178   90   92 1    
   179   90  211 1    
   180   91  212 1    
   181   91  213 1    
   182   91  214 1    
   183   92   93 2    
   184   92   94 am   BACKBONE|DICT|INTERRES
   185   94   95 1    
   186   94  215 1    
   187   95   96 1    
   188   95   97 1    
   189   95  216 1    
   190   96  217 1    
   191   96  218 1    
   192   96  219 1    
   193   97   98 2    
   194   97   99 am   BACKBONE|DICT|INTERRES
   195   99  100 1    
   196   99  220 1    
   197  100  101 1    
   198  100  102 1    
   199  100  221 1    
   200  101  222 1    
   201  101  223 1    
   202  101  224 1    
   203  102  103 2    
   204  102  104 am   BACKBONE|DICT|INTERRES
   205  104  105 1    
   206  104  225 1    
   207  105  106 1    
   208  105  107 1    
   209  105  226 1    
   210  106  227 1    
   211  106  228 1    
   212  106  229 1    
   213  107  108 2    
   214  107  109 am   BACKBONE|DICT|INTERRES
   215  109  110 1    
   216  109  230 1    
   217  110  111 1    
   218  110  112 1    
   219  110  231 1    
   220  111  232 1    
   221  111  233 1    
   222  111  234 1    
   223  112  113 2    
   224  112  114 am   BACKBONE|DICT|INTERRES
   225  114  115 1    
   226  114  235 1    
   227  115  116 1    
   228  115  117 1    
   229  115  236 1    
   230  116  237 1    
   231  116  238 1    
   232  116  239 1    
   233  117  118 2    
   234  117  119 am   BACKBONE|DICT|INTERRES
   235  119  120 1    
   236  119  240 1    
   237  120  121 1    
   238  120  124 1    
   239  120  241 1    
   240  121  122 am   BACKBONE|DICT|INTERRES
   241  121  123 2    
   242  122  242 1    
   243  122  243 1    
   244  124  125 1    
   245  124  244 1    
   246  124  245 1    
   247  125  126 1    
   248  126  246 1    
   249  126  247 1    
@<TRIPOS>SUBSTRUCTURE
     1 UNK         1 GROUP             0       ****    0 ROOT    
