@<TRIPOS>MOLECULE
3R540
247   249    1
SMALL
USER_CHARGES


@<TRIPOS>ATOM
      1 CA         -0.5329  -12.0181  -51.1979 C.3       0 UNK        -0.1800 
      2 C           0.0862  -12.9089  -50.1312 C.2       0 UNK         0.5000 
      3 O           1.2594  -13.2645  -50.2363 O.2       0 UNK        -0.5000 
      4 N          -0.6936  -13.2611  -49.1001 N.am      1 UNK        -0.5000 
      5 CA         -0.3264  -14.2020  -48.0297 C.3       1 UNK         0.1400 
      6 C6         -1.5121  -14.5298  -47.0791 C.3       23 UNK        -0.0398 
      7 S7         -3.1157  -14.7561  -47.9331 S.3       23 UNK        -0.2404 
      8 C8         -3.1700  -16.5501  -48.2348 C.3       23 UNK        -0.0205 
      9 C9         -2.0008  -17.0327  -49.0795 C.ar      23 UNK        -0.0193 
     10 C10        -1.8545  -16.6051  -50.4013 C.ar      23 UNK        -0.1150 
     11 C11        -0.7683  -17.0360  -51.1661 C.ar      23 UNK        -0.0193 
     12 C12         0.1535  -17.9285  -50.6122 C.ar      23 UNK        -0.1150 
     13 C13         0.0183  -18.3773  -49.2950 C.ar      23 UNK        -0.0193 
     14 C14        -1.0589  -17.9052  -48.5313 C.ar      23 UNK        -0.1150 
     15 C15         1.0514  -19.3769  -48.7647 C.3       23 UNK        -0.0205 
     16 S16         0.9838  -19.7325  -46.9725 S.3       23 UNK        -0.2404 
     17 C17        -0.5384  -20.7351  -46.8888 C.3       23 UNK        -0.0398 
     18 CA         -0.2792  -22.1779  -46.4159 C.3       11 UNK         0.1400 
     19 N           0.2648  -22.2245  -45.0600 N.am      11 UNK        -0.5000 
     20 C           0.7905  -23.3112  -44.4828 C.2       10 UNK         0.5000 
     21 O           0.8886  -24.4031  -45.0410 O.2       10 UNK        -0.5000 
     22 CA          1.2391  -23.1512  -43.0197 C.3       10 UNK         0.1400 
     23 CB          2.6743  -22.6091  -42.9523 C.3       10 UNK        -0.1800 
     24 N           0.3483  -22.2668  -42.2640 N.am      10 UNK        -0.5000 
     25 C          -0.9190  -22.5701  -41.9494 C.2       9 UNK         0.5000 
     26 O          -1.4584  -23.6399  -42.2373 O.2       9 UNK        -0.5000 
     27 CA         -1.7287  -21.4658  -41.2448 C.3       9 UNK         0.1400 
     28 CB         -1.3153  -21.3346  -39.7709 C.3       9 UNK        -0.1800 
     29 N          -1.6139  -20.1591  -41.9009 N.am      9 UNK        -0.5000 
     30 C          -2.0434  -19.8892  -43.1419 C.2       8 UNK         0.5000 
     31 O          -2.5032  -20.7498  -43.8887 O.2       8 UNK        -0.5000 
     32 CA         -1.9133  -18.4465  -43.6717 C.3       8 UNK         0.1400 
     33 CB         -3.1851  -17.9840  -44.4101 C.3       8 UNK        -0.1800 
     34 N          -1.4905  -17.4492  -42.6834 N.am      8 UNK        -0.5000 
     35 C          -2.1437  -17.0188  -41.5923 C.2       7 UNK         0.5000 
     36 O          -3.2318  -17.4621  -41.2259 O.2       7 UNK        -0.5000 
     37 CA         -1.4529  -15.9293  -40.7439 C.3       7 UNK         0.1400 
     38 CB         -0.9339  -16.5300  -39.4276 C.3       7 UNK        -0.1800 
     39 N          -0.3340  -15.2816  -41.4330 N.am      7 UNK        -0.5000 
     40 C          -0.4538  -14.3571  -42.3964 C.2       6 UNK         0.5000 
     41 O          -1.5284  -13.8750  -42.7543 O.2       6 UNK        -0.5000 
     42 CA          0.8476  -13.9260  -43.1033 C.3       6 UNK         0.1400 
     43 CB          1.4353  -12.6745  -42.4337 C.3       6 UNK        -0.1800 
     44 N           1.8753  -14.9737  -43.1518 N.am      6 UNK        -0.5000 
     45 C           1.7327  -16.1529  -43.7717 C.2       5 UNK         0.5000 
     46 O           0.6969  -16.5056  -44.3360 O.2       5 UNK        -0.5000 
     47 CA          2.9373  -17.1069  -43.7489 C.3       5 UNK         0.1400 
     48 CB          2.5146  -18.5299  -43.3421 C.3       5 UNK        -0.1800 
     49 N           3.5479  -17.1460  -45.0732 N.am      5 UNK        -0.5000 
     50 C           4.3417  -16.1874  -45.5672 C.2       4 UNK         0.5000 
     51 O           4.7475  -15.2356  -44.8960 O.2       4 UNK        -0.5000 
     52 CA          4.7550  -16.2946  -47.0471 C.3       4 UNK         0.1400 
     53 CB          4.0139  -17.3946  -47.8292 C.3       4 UNK        -0.1800 
     54 N           4.4792  -15.0140  -47.6842 N.am      4 UNK        -0.5000 
     55 C           5.3480  -14.2711  -48.3800 C.2       3 UNK         0.5000 
     56 O           6.5073  -14.6155  -48.6149 O.2       3 UNK        -0.5000 
     57 CA          4.8436  -12.9124  -48.9140 C.3       3 UNK         0.1400 
     58 CB          4.6094  -12.9847  -50.4307 C.3       3 UNK        -0.1800 
     59 N           3.6111  -12.4640  -48.2601 N.am      3 UNK        -0.5000 
     60 C           3.5562  -11.9806  -47.0095 C.2       2 UNK         0.5000 
     61 O           4.5574  -11.7373  -46.3354 O.2       2 UNK        -0.5000 
     62 CA          2.1636  -11.7443  -46.3872 C.3       2 UNK         0.1400 
     63 CB          1.8554  -10.2419  -46.2998 C.3       2 UNK        -0.1800 
     64 N           1.0585  -12.4109  -47.0800 N.am      2 UNK        -0.5000 
     65 C           0.8985  -13.7356  -47.2156 C.2       1 UNK         0.5000 
     66 O           1.6909  -14.5634  -46.7709 O.2       1 UNK        -0.5000 
     67 C          -1.5624  -23.0185  -46.5486 C.2       11 UNK         0.5000 
     68 O          -1.7563  -23.6499  -47.5845 O.2       11 UNK        -0.5000 
     69 N          -2.4152  -23.0214  -45.5166 N.am      12 UNK        -0.5000 
     70 CA         -3.6211  -23.8442  -45.4384 C.3       12 UNK         0.1400 
     71 CB         -4.5034  -23.3641  -44.2774 C.3       12 UNK        -0.1800 
     72 C          -3.2886  -25.3381  -45.3026 C.2       12 UNK         0.5000 
     73 O          -3.9259  -26.1571  -45.9638 O.2       12 UNK        -0.5000 
     74 N          -2.2613  -25.6613  -44.5029 N.am      13 UNK        -0.5000 
     75 CA         -1.7216  -27.0162  -44.3553 C.3       13 UNK         0.1400 
     76 CB         -0.7025  -27.0411  -43.2062 C.3       13 UNK        -0.1800 
     77 C          -1.0992  -27.5550  -45.6599 C.2       13 UNK         0.5000 
     78 O          -1.2683  -28.7332  -45.9749 O.2       13 UNK        -0.5000 
     79 N          -0.4300  -26.6720  -46.4137 N.am      14 UNK        -0.5000 
     80 CA          0.1257  -26.9442  -47.7420 C.3       14 UNK         0.1400 
     81 CB          1.2020  -25.8887  -48.0443 C.3       14 UNK        -0.1800 
     82 C          -0.9316  -26.9616  -48.8680 C.2       14 UNK         0.5000 
     83 O          -0.6033  -27.3536  -49.9879 O.2       14 UNK        -0.5000 
     84 N          -2.1577  -26.5076  -48.5657 N.am      15 UNK        -0.5000 
     85 CA         -3.3060  -26.3093  -49.4600 C.3       15 UNK         0.1400 
     86 CB         -3.7472  -27.6312  -50.1197 C.3       15 UNK        -0.1800 
     87 C          -3.1206  -25.1697  -50.4870 C.2       15 UNK         0.5000 
     88 O          -3.9381  -25.0291  -51.3967 O.2       15 UNK        -0.5000 
     89 N          -2.0940  -24.3325  -50.2983 N.am      16 UNK        -0.5000 
     90 CA         -1.8101  -23.1445  -51.0997 C.3       16 UNK         0.1400 
     91 CB         -0.3972  -22.6380  -50.7727 C.3       16 UNK        -0.1800 
     92 C          -2.8539  -22.0397  -50.8706 C.2       16 UNK         0.5000 
     93 O          -3.3272  -21.4424  -51.8360 O.2       16 UNK        -0.5000 
     94 N          -3.2399  -21.8292  -49.6031 N.am      17 UNK        -0.5000 
     95 CA         -4.2961  -20.8827  -49.2272 C.3       17 UNK         0.1400 
     96 CB         -4.1887  -20.5348  -47.7348 C.3       17 UNK        -0.1800 
     97 C          -5.7065  -21.4026  -49.5655 C.2       17 UNK         0.5000 
     98 O          -6.6188  -20.5958  -49.7408 O.2       17 UNK        -0.5000 
     99 N          -5.8590  -22.7319  -49.6621 N.am      18 UNK        -0.5000 
    100 CA        -7.0893  -23.3892  -50.1031 C.3       18 UNK         0.1400 
    101 CB        -7.0723  -24.8661  -49.6782 C.3       18 UNK        -0.1800 
    102 C         -7.2899  -23.2471  -51.6229 C.2       18 UNK         0.5000 
    103 O         -8.4071  -22.9732  -52.0625 O.2       18 UNK        -0.5000 
    104 N         -6.2022  -23.4081  -52.3919 N.am      19 UNK        -0.5000 
    105 CA        -6.1614  -23.1693  -53.8351 C.3       19 UNK         0.1400 
    106 CB        -4.8476  -23.7233  -54.4082 C.3       19 UNK        -0.1800 
    107 C         -6.3272  -21.6779  -54.1828 C.2       19 UNK         0.5000 
    108 O         -7.1037  -21.3489  -55.0810 O.2       19 UNK        -0.5000 
    109 N         -5.6178  -20.8152  -53.4395 N.am      20 UNK        -0.5000 
    110 CA        -5.6093  -19.3548  -53.5345 C.3       20 UNK         0.1400 
    111 CB        -6.9584  -18.7759  -53.0518 C.3       20 UNK        -0.1800 
    112 C         -5.1641  -18.8639  -54.9298 C.2       20 UNK         0.5000 
    113 O         -4.1724  -19.3721  -55.4560 O.2       20 UNK        -0.5000 
    114 N         -5.8687  -17.8658  -55.4837 N.am      21 UNK        -0.5000 
    115 CA        -5.6710  -17.1892  -56.7764 C.3       21 UNK         0.1400 
    116 CB        -5.7308  -18.1847  -57.9513 C.3       21 UNK        -0.1800 
    117 C         -4.4140  -16.2973  -56.8620 C.2       21 UNK         0.5000 
    118 O         -4.4498  -15.2771  -57.5517 O.2       21 UNK        -0.5000 
    119 N         -3.3409  -16.6742  -56.1610 N.am      22 UNK        -0.5000 
    120 CA        -2.1125  -15.8933  -55.9700 C.3       22 UNK         0.1400 
    121 C         -2.3242  -14.5681  -55.1792 C.2       22 UNK         0.5000 
    122 N         -1.4405  -13.5939  -55.3515 N.am      22 UNK        -0.7600 
    123 O         -3.2567  -14.4204  -54.3918 O.2       22 UNK        -0.5000 
    124 C124       -0.9857  -16.7650  -55.3544 C.3       23 UNK        -0.0398 
    125 S125       -1.4324  -17.5921  -53.7846 S.3       23 UNK        -0.2404 
    126 C126       -0.5812  -16.5262  -52.5843 C.3       23 UNK        -0.0205 
    127 H127       -0.5221  -12.5282  -52.1612 H         1 UNK         0.0600 
    128 H128        0.0371  -11.0940  -51.2927 H         1 UNK         0.0600 
    129 H129       -1.5654  -11.7600  -50.9615 H         1 UNK         0.0600 
    130 H130       -1.6544  -12.9488  -49.0778 H         1 UNK         0.3000 
    131 H131       -0.0277  -15.1274  -48.5248 H         1 UNK         0.0600 
    132 H132       -1.2870  -15.4199  -46.4877 H         1 UNK         0.0800 
    133 H133       -1.6564  -13.7230  -46.3579 H         1 UNK         0.0800 
    134 H134       -3.2047  -17.0720  -47.2784 H         1 UNK         0.0800 
    135 H135       -4.1012  -16.7936  -48.7481 H         1 UNK         0.0800 
    136 H136       -2.5750  -15.9207  -50.8270 H         1 UNK         0.1150 
    137 H137        0.9836  -18.2746  -51.2122 H         1 UNK         0.1150 
    138 H138       -1.1830  -18.2069  -47.5038 H         1 UNK         0.1150 
    139 H139        0.9466  -20.3135  -49.3125 H         1 UNK         0.0800 
    140 H140        2.0489  -19.0099  -49.0023 H         1 UNK         0.0800 
    141 H141       -1.0080  -20.7434  -47.8737 H         1 UNK         0.0800 
    142 H142       -1.2400  -20.2339  -46.2219 H         1 UNK         0.0800 
    143 H143        0.4621  -22.6214  -47.0840 H         1 UNK         0.0600 
    144 H144        0.2139  -21.3723  -44.5246 H         1 UNK         0.3000 
    145 H145        1.2216  -24.1385  -42.5532 H         1 UNK         0.0600 
    146 H146        3.3646  -23.2705  -43.4776 H         1 UNK         0.0600 
    147 H147        3.0200  -22.5326  -41.9213 H         1 UNK         0.0600 
    148 H148        2.7554  -21.6224  -43.4091 H         1 UNK         0.0600 
    149 H149        0.7154  -21.3677  -41.9901 H         1 UNK         0.3000 
    150 H150       -2.7797  -21.7609  -41.2760 H         1 UNK         0.0600 
    151 H151       -0.2836  -20.9965  -39.6668 H         1 UNK         0.0600 
    152 H152       -1.4014  -22.2917  -39.2547 H         1 UNK         0.0600 
    153 H153       -1.9546  -20.6249  -39.2453 H         1 UNK         0.0600 
    154 H154       -1.2547  -19.3975  -41.3460 H         1 UNK         0.3000 
    155 H155       -1.1111  -18.4831  -44.4096 H         1 UNK         0.0600 
    156 H156       -4.0568  -17.9861  -43.7554 H         1 UNK         0.0600 
    157 H157       -3.4107  -18.6381  -45.2530 H         1 UNK         0.0600 
    158 H158       -3.0642  -16.9751  -44.8048 H         1 UNK         0.0600 
    159 H159       -0.6209  -16.9865  -42.9255 H         1 UNK         0.3000 
    160 H160       -2.2038  -15.1734  -40.5046 H         1 UNK         0.0600 
    161 H161       -0.1743  -17.2928  -39.6033 H         1 UNK         0.0600 
    162 H162       -1.7427  -16.9963  -38.8633 H         1 UNK         0.0600 
    163 H163       -0.4971  -15.7618  -38.7891 H         1 UNK         0.0600 
    164 H164        0.5926  -15.6041  -41.1955 H         1 UNK         0.3000 
    165 H165        0.5876  -13.6735  -44.1330 H         1 UNK         0.0600 
    166 H166        2.3264  -12.3249  -42.9548 H         1 UNK         0.0600 
    167 H167        0.7150  -11.8552  -42.4381 H         1 UNK         0.0600 
    168 H168        1.7090  -12.8657  -41.3954 H         1 UNK         0.0600 
    169 H169        2.7684  -14.7477  -42.7374 H         1 UNK         0.3000 
    170 H170        3.6685  -16.7501  -43.0202 H         1 UNK         0.0600 
    171 H171        3.3786  -19.1919  -43.2850 H         1 UNK         0.0600 
    172 H172        1.8076  -18.9639  -44.0502 H         1 UNK         0.0600 
    173 H173        2.0389  -18.5307  -42.3607 H         1 UNK         0.0600 
    174 H174        3.2092  -17.8628  -45.6987 H         1 UNK         0.3000 
    175 H175        5.8244  -16.5132  -47.0623 H         1 UNK         0.0600 
    176 H176        4.2121  -18.3854  -47.4184 H         1 UNK         0.0600 
    177 H177        2.9361  -17.2262  -47.8149 H         1 UNK         0.0600 
    178 H178        4.3305  -17.4124  -48.8723 H         1 UNK         0.0600 
    179 H179        3.5575  -14.6357  -47.4875 H         1 UNK         0.3000 
    180 H180        5.6252  -12.1731  -48.7270 H         1 UNK         0.0600 
    181 H181        3.8754  -13.7492  -50.6876 H         1 UNK         0.0600 
    182 H182        5.5331  -13.2295  -50.9565 H         1 UNK         0.0600 
    183 H183        4.2541  -12.0318  -50.8234 H         1 UNK         0.0600 
    184 H184        2.7472  -12.6431  -48.7597 H         1 UNK         0.3000 
    185 H185        2.2022  -12.1443  -45.3731 H         1 UNK         0.0600 
    186 H186        2.6391   -9.7116  -45.7570 H         1 UNK         0.0600 
    187 H187        1.7781   -9.7901  -47.2896 H         1 UNK         0.0600 
    188 H188        0.9189  -10.0607  -45.7720 H         1 UNK         0.0600 
    189 H189        0.3740  -11.8085  -47.5139 H         1 UNK         0.3000 
    190 H190       -2.2521  -22.3873  -44.7384 H         1 UNK         0.3000 
    191 H191       -4.1839  -23.7161  -46.3653 H         1 UNK         0.0600 
    192 H192       -4.8049  -22.3259  -44.4178 H         1 UNK         0.0600 
    193 H193       -5.4135  -23.9607  -44.2045 H         1 UNK         0.0600 
    194 H194       -3.9852  -23.4339  -43.3206 H         1 UNK         0.0600 
    195 H195       -1.8137  -24.9277  -43.9655 H         1 UNK         0.3000 
    196 H196       -2.5494  -27.6759  -44.0870 H         1 UNK         0.0600 
    197 H197       -0.3256  -28.0513  -43.0420 H         1 UNK         0.0600 
    198 H198       -1.1534  -26.7054  -42.2721 H         1 UNK         0.0600 
    199 H199        0.1554  -26.4011  -43.4113 H         1 UNK         0.0600 
    200 H200       -0.2621  -25.7452  -46.0359 H         1 UNK         0.3000 
    201 H201        0.6038  -27.9257  -47.7257 H         1 UNK         0.0600 
    202 H202        1.6842  -26.0814  -49.0034 H         1 UNK         0.0600 
    203 H203        1.9824  -25.8915  -47.2831 H         1 UNK         0.0600 
    204 H204        0.7790  -24.8847  -48.0859 H         1 UNK         0.0600 
    205 H205       -2.3100  -26.2041  -47.6128 H         1 UNK         0.3000 
    206 H206       -4.1215  -25.9861  -48.8119 H         1 UNK         0.0600 
    207 H207       -3.8823  -28.4166  -49.3761 H         1 UNK         0.0600 
    208 H208       -4.6989  -27.5104  -50.6384 H         1 UNK         0.0600 
    209 H209       -3.0219  -27.9824  -50.8537 H         1 UNK         0.0600 
    210 H210       -1.5497  -24.4489  -49.4520 H         1 UNK         0.3000 
    211 H211       -1.8411  -23.4241  -52.1549 H         1 UNK         0.0600 
    212 H212       -0.2886  -22.4011  -49.7144 H         1 UNK         0.0600 
    213 H213       -0.1635  -21.7356  -51.3395 H         1 UNK         0.0600 
    214 H214        0.3552  -23.3855  -51.0249 H         1 UNK         0.0600 
    215 H215       -2.8265  -22.3942  -48.8711 H         1 UNK         0.3000 
    216 H216       -4.1489  -19.9594  -49.7927 H         1 UNK         0.0600 
    217 H217       -4.9937  -19.8641  -47.4315 H         1 UNK         0.0600 
    218 H218       -3.2549  -20.0209  -47.5171 H         1 UNK         0.0600 
    219 H219       -4.2498  -21.4204  -47.1040 H         1 UNK         0.0600 
    220 H220       -5.0527  -23.3183  -49.5176 H         1 UNK         0.3000 
    221 H221       -7.9343  -22.9081  -49.6055 H         1 UNK         0.0600 
    222 H222       -6.2845  -25.4270  -50.1796 H         1 UNK         0.0600 
    223 H223       -6.9263  -24.9675  -48.6026 H         1 UNK         0.0600 
    224 H224       -8.0190  -25.3485  -49.9242 H         1 UNK         0.0600 
    225 H225       -5.3357  -23.7137  -51.9619 H         1 UNK         0.3000 
    226 H226       -6.9885  -23.7155  -54.2935 H         1 UNK         0.0600 
    227 H227       -4.7949  -23.5667  -55.4863 H         1 UNK         0.0600 
    228 H228       -3.9772  -23.2406  -53.9624 H         1 UNK         0.0600 
    229 H229       -4.7616  -24.7953  -54.2293 H         1 UNK         0.0600 
    230 H230       -4.9357  -21.1971  -52.7893 H         1 UNK         0.3000 
    231 H231       -4.8393  -19.0164  -52.8394 H         1 UNK         0.0600 
    232 H232       -7.7770  -19.0255  -53.7279 H         1 UNK         0.0600 
    233 H233       -6.9157  -17.6901  -52.9594 H         1 UNK         0.0600 
    234 H234       -7.2172  -19.1657  -52.0672 H         1 UNK         0.0600 
    235 H235       -6.6447  -17.5090  -54.9438 H         1 UNK         0.3000 
    236 H236       -6.5250  -16.5181  -56.8808 H         1 UNK         0.0600 
    237 H237       -6.6421  -18.7817  -57.9168 H         1 UNK         0.0600 
    238 H238       -5.7226  -17.6577  -58.9061 H         1 UNK         0.0600 
    239 H239       -4.8813  -18.8679  -57.9525 H         1 UNK         0.0600 
    240 H240       -3.3953  -17.5492  -55.6517 H         1 UNK         0.3000 
    241 H241       -1.7827  -15.6016  -56.9690 H         1 UNK         0.0600 
    242 H242       -0.6678  -13.6831  -55.9932 H         1 UNK         0.3800 
    243 H243       -1.5627  -12.7311  -54.8452 H         1 UNK         0.3800 
    244 H244       -0.0726  -16.1823  -55.2220 H         1 UNK         0.0800 
    245 H245       -0.7210  -17.5498  -56.0640 H         1 UNK         0.0800 
    246 H246        0.4821  -16.4798  -52.8246 H         1 UNK         0.0800 
    247 H247       -0.9605  -15.5063  -52.6640 H         1 UNK         0.0800 
@<TRIPOS>BOND
     1    1    2 1    
     2    1  127 1    
     3    1  128 1    
     4    1  129 1    
     5    2    3 2    
     6    2    4 am   BACKBONE|DICT|INTERRES
     7    4    5 1    
     8    4  130 1    
     9    5    6 1    
    10    5   65 1    
    11    5  131 1    
    12    6    7 1    
    13    6  132 1    
    14    6  133 1    
    15    7    8 1    
    16    8    9 1    
    17    8  134 1    
    18    8  135 1    
    19    9   10 ar   
    20    9   14 ar   
    21   10   11 ar   
    22   10  136 1    
    23   11   12 ar   
    24   11  126 1    
    25   12   13 ar   
    26   12  137 1    
    27   13   14 ar   
    28   13   15 1    
    29   14  138 1    
    30   15   16 1    
    31   15  139 1    
    32   15  140 1    
    33   16   17 1    
    34   17   18 1    
    35   17  141 1    
    36   17  142 1    
    37   18   19 1    
    38   18   67 1    
    39   18  143 1    
    40   19   20 am   BACKBONE|DICT|INTERRES
    41   19  144 1    
    42   20   21 2    
    43   20   22 1    
    44   22   23 1    
    45   22   24 1    
    46   22  145 1    
    47   23  146 1    
    48   23  147 1    
    49   23  148 1    
    50   24   25 am   BACKBONE|DICT|INTERRES
    51   24  149 1    
    52   25   26 2    
    53   25   27 1    
    54   27   28 1    
    55   27   29 1    
    56   27  150 1    
    57   28  151 1    
    58   28  152 1    
    59   28  153 1    
    60   29   30 am   BACKBONE|DICT|INTERRES
    61   29  154 1    
    62   30   31 2    
    63   30   32 1    
    64   32   33 1    
    65   32   34 1    
    66   32  155 1    
    67   33  156 1    
    68   33  157 1    
    69   33  158 1    
    70   34   35 am   BACKBONE|DICT|INTERRES
    71   34  159 1    
    72   35   36 2    
    73   35   37 1    
    74   37   38 1    
    75   37   39 1    
    76   37  160 1    
    77   38  161 1    
    78   38  162 1    
    79   38  163 1    
    80   39   40 am   BACKBONE|DICT|INTERRES
    81   39  164 1    
    82   40   41 2    
    83   40   42 1    
    84   42   43 1    
    85   42   44 1    
    86   42  165 1    
    87   43  166 1    
    88   43  167 1    
    89   43  168 1    
    90   44   45 am   BACKBONE|DICT|INTERRES
    91   44  169 1    
    92   45   46 2    
    93   45   47 1    
    94   47   48 1    
    95   47   49 1    
    96   47  170 1    
    97   48  171 1    
    98   48  172 1    
    99   48  173 1    
   100   49   50 am   BACKBONE|DICT|INTERRES
   101   49  174 1    
   102   50   51 2    
   103   50   52 1    
   104   52   53 1    
   105   52   54 1    
   106   52  175 1    
   107   53  176 1    
   108   53  177 1    
   109   53  178 1    
   110   54   55 am   BACKBONE|DICT|INTERRES
   111   54  179 1    
   112   55   56 2    
   113   55   57 1    
   114   57   58 1    
   115   57   59 1    
   116   57  180 1    
   117   58  181 1    
   118   58  182 1    
   119   58  183 1    
   120   59   60 am   BACKBONE|DICT|INTERRES
   121   59  184 1    
   122   60   61 2    
   123   60   62 1    
   124   62   63 1    
   125   62   64 1    
   126   62  185 1    
   127   63  186 1    
   128   63  187 1    
   129   63  188 1    
   130   64   65 am   BACKBONE|DICT|INTERRES
   131   64  189 1    
   132   65   66 2    
   133   67   68 2    
   134   67   69 am   BACKBONE|DICT|INTERRES
   135   69   70 1    
   136   69  190 1    
   137   70   71 1    
   138   70   72 1    
   139   70  191 1    
   140   71  192 1    
   141   71  193 1    
   142   71  194 1    
   143   72   73 2    
   144   72   74 am   BACKBONE|DICT|INTERRES
   145   74   75 1    
   146   74  195 1    
   147   75   76 1    
   148   75   77 1    
   149   75  196 1    
   150   76  197 1    
   151   76  198 1    
   152   76  199 1    
   153   77   78 2    
   154   77   79 am   BACKBONE|DICT|INTERRES
   155   79   80 1    
   156   79  200 1    
   157   80   81 1    
   158   80   82 1    
   159   80  201 1    
   160   81  202 1    
   161   81  203 1    
   162   81  204 1    
   163   82   83 2    
   164   82   84 am   BACKBONE|DICT|INTERRES
   165   84   85 1    
   166   84  205 1    
   167   85   86 1    
   168   85   87 1    
   169   85  206 1    
   170   86  207 1    
   171   86  208 1    
   172   86  209 1    
   173   87   88 2    
   174   87   89 am   BACKBONE|DICT|INTERRES
   175   89   90 1    
   176   89  210 1    
   177   90   91 1    
   178   90   92 1    
   179   90  211 1    
   180   91  212 1    
   181   91  213 1    
   182   91  214 1    
   183   92   93 2    
   184   92   94 am   BACKBONE|DICT|INTERRES
   185   94   95 1    
   186   94  215 1    
   187   95   96 1    
   188   95   97 1    
   189   95  216 1    
   190   96  217 1    
   191   96  218 1    
   192   96  219 1    
   193   97   98 2    
   194   97   99 am   BACKBONE|DICT|INTERRES
   195   99  100 1    
   196   99  220 1    
   197  100  101 1    
   198  100  102 1    
   199  100  221 1    
   200  101  222 1    
   201  101  223 1    
   202  101  224 1    
   203  102  103 2    
   204  102  104 am   BACKBONE|DICT|INTERRES
   205  104  105 1    
   206  104  225 1    
   207  105  106 1    
   208  105  107 1    
   209  105  226 1    
   210  106  227 1    
   211  106  228 1    
   212  106  229 1    
   213  107  108 2    
   214  107  109 am   BACKBONE|DICT|INTERRES
   215  109  110 1    
   216  109  230 1    
   217  110  111 1    
   218  110  112 1    
   219  110  231 1    
   220  111  232 1    
   221  111  233 1    
   222  111  234 1    
   223  112  113 2    
   224  112  114 am   BACKBONE|DICT|INTERRES
   225  114  115 1    
   226  114  235 1    
   227  115  116 1    
   228  115  117 1    
   229  115  236 1    
   230  116  237 1    
   231  116  238 1    
   232  116  239 1    
   233  117  118 2    
   234  117  119 am   BACKBONE|DICT|INTERRES
   235  119  120 1    
   236  119  240 1    
   237  120  121 1    
   238  120  124 1    
   239  120  241 1    
   240  121  122 am   BACKBONE|DICT|INTERRES
   241  121  123 2    
   242  122  242 1    
   243  122  243 1    
   244  124  125 1    
   245  124  244 1    
   246  124  245 1    
   247  125  126 1    
   248  126  246 1    
   249  126  247 1    
@<TRIPOS>SUBSTRUCTURE
     1 UNK         1 GROUP             0       ****    0 ROOT    
