@<TRIPOS>MOLECULE
3R540
247   249    1
SMALL
USER_CHARGES


@<TRIPOS>ATOM
      1 CA         -1.7294  -13.0581  -46.4157 C.3       0 UNK        -0.1800 
      2 C          -0.6759  -12.4618  -47.3352 C.2       0 UNK         0.5000 
      3 O          -0.9878  -11.5689  -48.1241 O.2       0 UNK        -0.5000 
      4 N           0.5733  -12.9314  -47.2290 N.am      1 UNK        -0.5000 
      5 CA          1.7226  -12.4150  -47.9794 C.3       1 UNK         0.1400 
      6 C6          2.7858  -13.5109  -48.2405 C.3       23 UNK        -0.0398 
      7 S7          2.2072  -14.7193  -49.4776 S.3       23 UNK        -0.2404 
      8 C8          1.7188  -16.1046  -48.4094 C.3       23 UNK        -0.0205 
      9 C9          0.8461  -17.0972  -49.1601 C.ar      23 UNK        -0.0193 
     10 C10        -0.5072  -16.8181  -49.3708 C.ar      23 UNK        -0.1150 
     11 C11        -1.3343  -17.7455  -50.0101 C.ar      23 UNK        -0.0193 
     12 C12        -0.7887  -18.9451  -50.4753 C.ar      23 UNK        -0.1150 
     13 C13         0.5663  -19.2334  -50.2797 C.ar      23 UNK        -0.0193 
     14 C14         1.3770  -18.3061  -49.6170 C.ar      23 UNK        -0.1150 
     15 C15         1.1603  -20.5488  -50.7704 C.3       23 UNK        -0.0205 
     16 S16         0.3838  -22.0208  -50.0246 S.3       23 UNK        -0.2404 
     17 C17         0.3016  -21.5673  -48.2604 C.3       23 UNK        -0.0398 
     18 CA         -0.1203  -22.7362  -47.3424 C.3       11 UNK         0.1400 
     19 N           0.1226  -22.4125  -45.9352 N.am      11 UNK        -0.5000 
     20 C           0.0368  -23.2839  -44.9217 C.2       10 UNK         0.5000 
     21 O          -0.2472  -24.4718  -45.0644 O.2       10 UNK        -0.5000 
     22 CA          0.2597  -22.7273  -43.5056 C.3       10 UNK         0.1400 
     23 CB          1.7547  -22.5027  -43.2351 C.3       10 UNK        -0.1800 
     24 N          -0.4795  -21.4872  -43.2715 N.am      10 UNK        -0.5000 
     25 C          -1.8167  -21.3882  -43.2848 C.2       9 UNK         0.5000 
     26 O          -2.5723  -22.3461  -43.4527 O.2       9 UNK        -0.5000 
     27 CA         -2.4079  -19.9741  -43.1344 C.3       9 UNK         0.1400 
     28 CB         -2.3919  -19.5241  -41.6660 C.3       9 UNK        -0.1800 
     29 N          -1.7184  -18.9814  -43.9598 N.am      9 UNK        -0.5000 
     30 C          -1.6506  -19.0219  -45.2981 C.2       8 UNK         0.5000 
     31 O          -2.1847  -19.8876  -45.9874 O.2       8 UNK        -0.5000 
     32 CA         -0.7965  -17.9467  -45.9832 C.3       8 UNK         0.1400 
     33 CB         -1.5575  -16.6174  -46.0769 C.3       8 UNK        -0.1800 
     34 N           0.4863  -17.7471  -45.3110 N.am      8 UNK        -0.5000 
     35 C           1.4467  -18.6805  -45.2406 C.2       7 UNK         0.5000 
     36 O           1.3699  -19.7882  -45.7704 O.2       7 UNK        -0.5000 
     37 CA          2.6767  -18.3367  -44.3862 C.3       7 UNK         0.1400 
     38 CB          3.6608  -17.4642  -45.1790 C.3       7 UNK        -0.1800 
     39 N           2.3058  -17.6648  -43.1403 N.am      7 UNK        -0.5000 
     40 C           1.6143  -18.2450  -42.1475 C.2       6 UNK         0.5000 
     41 O           1.2565  -19.4220  -42.1595 O.2       6 UNK        -0.5000 
     42 CA          1.2135  -17.3456  -40.9645 C.3       6 UNK         0.1400 
     43 CB          2.3385  -17.2926  -39.9206 C.3       6 UNK        -0.1800 
     44 N           0.8716  -15.9840  -41.3788 N.am      6 UNK        -0.5000 
     45 C          -0.1651  -15.6610  -42.1663 C.2       5 UNK         0.5000 
     46 O          -0.9667  -16.4833  -42.6091 O.2       5 UNK        -0.5000 
     47 CA         -0.2948  -14.1786  -42.5620 C.3       5 UNK         0.1400 
     48 CB         -1.1562  -13.4165  -41.5454 C.3       5 UNK        -0.1800 
     49 N           1.0091  -13.5240  -42.6801 N.am      5 UNK        -0.5000 
     50 C           1.9029  -13.7654  -43.6466 C.2       4 UNK         0.5000 
     51 O           1.6666  -14.4623  -44.6377 O.2       4 UNK        -0.5000 
     52 CA          3.2874  -13.1223  -43.4386 C.3       4 UNK         0.1400 
     53 CB          4.3655  -13.6756  -44.3840 C.3       4 UNK        -0.1800 
     54 N           3.2232  -11.6672  -43.5645 N.am      4 UNK        -0.5000 
     55 C           2.8515  -10.8338  -42.5812 C.2       3 UNK         0.5000 
     56 O           2.4972  -11.2239  -41.4670 O.2       3 UNK        -0.5000 
     57 CA          2.8756   -9.3198  -42.8732 C.3       3 UNK         0.1400 
     58 CB          4.1648   -8.6898  -42.3244 C.3       3 UNK        -0.1800 
     59 N           2.7617   -9.0002  -44.2961 N.am      3 UNK        -0.5000 
     60 C           1.6397   -9.1270  -45.0148 C.2       2 UNK         0.5000 
     61 O           0.5607   -9.4823  -44.5375 O.2       2 UNK        -0.5000 
     62 CA          1.7311   -8.8453  -46.5280 C.3       2 UNK         0.1400 
     63 CB          3.0226   -8.1199  -46.9709 C.3       2 UNK        -0.1800 
     64 N           1.5374  -10.0835  -47.2850 N.am      2 UNK        -0.5000 
     65 C           2.2830  -11.1964  -47.2217 C.2       1 UNK         0.5000 
     66 O           3.3182  -11.2939  -46.5603 O.2       1 UNK        -0.5000 
     67 C          -1.5785  -23.1831  -47.5912 C.2       11 UNK         0.5000 
     68 O          -1.7986  -24.1676  -48.2986 O.2       11 UNK        -0.5000 
     69 N          -2.5504  -22.4906  -46.9810 N.am      12 UNK        -0.5000 
     70 CA         -3.9724  -22.8361  -47.0248 C.3       12 UNK         0.1400 
     71 CB         -4.7982  -21.7381  -46.3394 C.3       12 UNK        -0.1800 
     72 C          -4.2756  -24.2134  -46.4084 C.2       12 UNK         0.5000 
     73 O          -5.1047  -24.9457  -46.9471 O.2       12 UNK        -0.5000 
     74 N          -3.5870  -24.5488  -45.3106 N.am      13 UNK        -0.5000 
     75 CA         -3.7034  -25.8362  -44.6332 C.3       13 UNK         0.1400 
     76 CB         -3.1504  -25.7122  -43.2043 C.3       13 UNK        -0.1800 
     77 C          -3.0033  -26.9751  -45.3972 C.2       13 UNK         0.5000 
     78 O          -3.6199  -28.0147  -45.6339 O.2       13 UNK        -0.5000 
     79 N          -1.7229  -26.7776  -45.7366 N.am      14 UNK        -0.5000 
     80 CA         -0.8425  -27.8342  -46.2359 C.3       14 UNK         0.1400 
     81 CB          0.6089  -27.4993  -45.8576 C.3       14 UNK        -0.1800 
     82 C          -0.9464  -28.0741  -47.7502 C.2       14 UNK         0.5000 
     83 O          -0.8297  -29.2229  -48.1795 O.2       14 UNK        -0.5000 
     84 N          -1.1234  -27.0021  -48.5322 N.am      15 UNK        -0.5000 
     85 CA         -1.0337  -27.0243  -49.9955 C.3       15 UNK         0.1400 
     86 CB          0.1337  -26.1169  -50.4245 C.3       15 UNK        -0.1800 
     87 C          -2.3398  -26.5884  -50.6797 C.2       15 UNK         0.5000 
     88 O          -2.3547  -26.4590  -51.9045 O.2       15 UNK        -0.5000 
     89 N          -3.3991  -26.3286  -49.8974 N.am      16 UNK        -0.5000 
     90 CA         -4.6970  -25.7944  -50.3339 C.3       16 UNK         0.1400 
     91 CB         -5.4627  -26.8398  -51.1720 C.3       16 UNK        -0.1800 
     92 C          -4.5658  -24.4273  -51.0437 C.2       16 UNK         0.5000 
     93 O          -5.2741  -24.1641  -52.0151 O.2       16 UNK        -0.5000 
     94 N          -3.6204  -23.6082  -50.5573 N.am      17 UNK        -0.5000 
     95 CA         -3.1861  -22.3047  -51.0753 C.3       17 UNK         0.1400 
     96 CB         -4.3544  -21.3042  -51.1765 C.3       17 UNK        -0.1800 
     97 C          -2.3555  -22.3862  -52.3757 C.2       17 UNK         0.5000 
     98 O          -1.9951  -21.3442  -52.9217 O.2       17 UNK        -0.5000 
     99 N          -2.0330  -23.6080  -52.8320 N.am      18 UNK        -0.5000 
    100 CA        -1.1592  -23.9609  -53.9601 C.3       18 UNK         0.1400 
    101 CB         0.2863  -23.4997  -53.6819 C.3       18 UNK        -0.1800 
    102 C         -1.6473  -23.5073  -55.3552 C.2       18 UNK         0.5000 
    103 O         -0.9381  -23.7237  -56.3396 O.2       18 UNK        -0.5000 
    104 N         -2.8413  -22.9139  -55.4349 N.am      19 UNK        -0.5000 
    105 CA        -3.4697  -22.3583  -56.6266 C.3       19 UNK         0.1400 
    106 CB        -2.7331  -21.0769  -57.0685 C.3       19 UNK        -0.1800 
    107 C         -4.9352  -22.0467  -56.2932 C.2       19 UNK         0.5000 
    108 O         -5.3139  -22.0398  -55.1189 O.2       19 UNK        -0.5000 
    109 N         -5.7316  -21.7472  -57.3252 N.am      20 UNK        -0.5000 
    110 CA        -7.1297  -21.3212  -57.2153 C.3       20 UNK         0.1400 
    111 CB        -7.8650  -21.7061  -58.5124 C.3       20 UNK        -0.1800 
    112 C         -7.2472  -19.8150  -56.8856 C.2       20 UNK         0.5000 
    113 O         -7.9672  -19.0836  -57.5685 O.2       20 UNK        -0.5000 
    114 N         -6.5214  -19.3710  -55.8551 N.am      21 UNK        -0.5000 
    115 CA        -6.4631  -17.9985  -55.3673 C.3       21 UNK         0.1400 
    116 CB        -5.4963  -17.1725  -56.2350 C.3       21 UNK        -0.1800 
    117 C         -6.0053  -18.0172  -53.9026 C.2       21 UNK         0.5000 
    118 O         -5.2957  -18.9413  -53.5050 O.2       21 UNK        -0.5000 
    119 N         -6.4318  -16.9995  -53.1448 N.am      22 UNK        -0.5000 
    120 CA        -6.1291  -16.7086  -51.7278 C.3       22 UNK         0.1400 
    121 C         -6.4109  -17.8176  -50.6648 C.2       22 UNK         0.5000 
    122 N         -7.0355  -18.9352  -51.0092 N.am      22 UNK        -0.7600 
    123 O         -6.1122  -17.6351  -49.4879 O.2       22 UNK        -0.5000 
    124 C124       -4.7827  -15.9550  -51.5187 C.3       23 UNK        -0.0398 
    125 S125       -3.2441  -16.8927  -51.8322 S.3       23 UNK        -0.2404 
    126 C126       -2.8215  -17.4647  -50.1568 C.3       23 UNK        -0.0205 
    127 H127       -1.2817  -13.7164  -45.6750 H         1 UNK         0.0600 
    128 H128       -2.4539  -13.6314  -46.9939 H         1 UNK         0.0600 
    129 H129       -2.2594  -12.2663  -45.8864 H         1 UNK         0.0600 
    130 H130        0.7939  -13.6134  -46.5130 H         1 UNK         0.3000 
    131 H131        1.3894  -12.0513  -48.9542 H         1 UNK         0.0600 
    132 H132        3.7058  -13.0693  -48.6275 H         1 UNK         0.0800 
    133 H133        3.0566  -14.0265  -47.3193 H         1 UNK         0.0800 
    134 H134        2.6141  -16.5935  -48.0230 H         1 UNK         0.0800 
    135 H135        1.1769  -15.7298  -47.5414 H         1 UNK         0.0800 
    136 H136       -0.9199  -15.8843  -49.0158 H         1 UNK         0.1150 
    137 H137       -1.4228  -19.6611  -50.9773 H         1 UNK         0.1150 
    138 H138        2.4223  -18.5261  -49.4516 H         1 UNK         0.1150 
    139 H139        1.0474  -20.6055  -51.8539 H         1 UNK         0.0800 
    140 H140        2.2322  -20.5856  -50.5710 H         1 UNK         0.0800 
    141 H141       -0.3713  -20.7180  -48.1296 H         1 UNK         0.0800 
    142 H142        1.2944  -21.2168  -47.9760 H         1 UNK         0.0800 
    143 H143        0.5184  -23.5902  -47.5791 H         1 UNK         0.0600 
    144 H144        0.3914  -21.4526  -45.7360 H         1 UNK         0.3000 
    145 H145       -0.1052  -23.4724  -42.7955 H         1 UNK         0.0600 
    146 H146        1.9253  -22.1961  -42.2030 H         1 UNK         0.0600 
    147 H147        2.3241  -23.4181  -43.4010 H         1 UNK         0.0600 
    148 H148        2.1715  -21.7325  -43.8847 H         1 UNK         0.0600 
    149 H149        0.0747  -20.6572  -43.0804 H         1 UNK         0.3000 
    150 H150       -3.4475  -20.0130  -43.4658 H         1 UNK         0.0600 
    151 H151       -2.9381  -20.2278  -41.0367 H         1 UNK         0.0600 
    152 H152       -2.8621  -18.5476  -41.5479 H         1 UNK         0.0600 
    153 H153       -1.3764  -19.4549  -41.2763 H         1 UNK         0.0600 
    154 H154       -1.2831  -18.2032  -43.4730 H         1 UNK         0.3000 
    155 H155       -0.5899  -18.2965  -46.9956 H         1 UNK         0.0600 
    156 H156       -1.8205  -16.2251  -45.0951 H         1 UNK         0.0600 
    157 H157       -0.9641  -15.8643  -46.5904 H         1 UNK         0.0600 
    158 H158       -2.4838  -16.7400  -46.6397 H         1 UNK         0.0600 
    159 H159        0.6216  -16.8709  -44.8272 H         1 UNK         0.3000 
    160 H160        3.1794  -19.2721  -44.1308 H         1 UNK         0.0600 
    161 H161        3.2161  -16.5120  -45.4690 H         1 UNK         0.0600 
    162 H162        3.9760  -17.9682  -46.0935 H         1 UNK         0.0600 
    163 H163        4.5594  -17.2557  -44.5984 H         1 UNK         0.0600 
    164 H164        2.5402  -16.6874  -43.0611 H         1 UNK         0.3000 
    165 H165        0.3315  -17.7862  -40.4954 H         1 UNK         0.0600 
    166 H166        2.0354  -16.7218  -39.0427 H         1 UNK         0.0600 
    167 H167        2.6013  -18.2950  -39.5798 H         1 UNK         0.0600 
    168 H168        3.2430  -16.8352  -40.3236 H         1 UNK         0.0600 
    169 H169        1.4742  -15.2442  -41.0508 H         1 UNK         0.3000 
    170 H170       -0.7944  -14.1385  -43.5294 H         1 UNK         0.0600 
    171 H171       -2.1425  -13.8726  -41.4502 H         1 UNK         0.0600 
    172 H172       -0.7000  -13.4084  -40.5547 H         1 UNK         0.0600 
    173 H173       -1.3055  -12.3818  -41.8546 H         1 UNK         0.0600 
    174 H174        1.2734  -12.8816  -41.9412 H         1 UNK         0.3000 
    175 H175        3.6064  -13.3747  -42.4250 H         1 UNK         0.0600 
    176 H176        5.3382  -13.2324  -44.1707 H         1 UNK         0.0600 
    177 H177        4.1354  -13.4789  -45.4281 H         1 UNK         0.0600 
    178 H178        4.4707  -14.7536  -44.2663 H         1 UNK         0.0600 
    179 H179        3.4307  -11.2895  -44.4831 H         1 UNK         0.3000 
    180 H180        2.0284   -8.8712  -42.3500 H         1 UNK         0.0600 
    181 H181        5.0508   -9.0902  -42.8189 H         1 UNK         0.0600 
    182 H182        4.2699   -8.8826  -41.2558 H         1 UNK         0.0600 
    183 H183        4.1640   -7.6080  -42.4590 H         1 UNK         0.0600 
    184 H184        3.6102   -8.7276  -44.7709 H         1 UNK         0.3000 
    185 H185        0.8889   -8.1957  -46.7705 H         1 UNK         0.0600 
    186 H186        3.1397   -7.1725  -46.4432 H         1 UNK         0.0600 
    187 H187        3.9204   -8.7123  -46.7936 H         1 UNK         0.0600 
    188 H188        2.9894   -7.8893  -48.0357 H         1 UNK         0.0600 
    189 H189        0.6595  -10.1514  -47.7873 H         1 UNK         0.3000 
    190 H190       -2.3090  -21.6515  -46.4567 H         1 UNK         0.3000 
    191 H191       -4.2776  -22.8692  -48.0703 H         1 UNK         0.0600 
    192 H192       -4.6713  -20.7794  -46.8427 H         1 UNK         0.0600 
    193 H193       -5.8622  -21.9769  -46.3610 H         1 UNK         0.0600 
    194 H194       -4.5104  -21.6095  -45.2958 H         1 UNK         0.0600 
    195 H195       -2.9528  -23.8709  -44.9029 H         1 UNK         0.3000 
    196 H196       -4.7630  -26.0899  -44.5564 H         1 UNK         0.0600 
    197 H197       -3.2270  -26.6605  -42.6709 H         1 UNK         0.0600 
    198 H198       -3.7073  -24.9704  -42.6315 H         1 UNK         0.0600 
    199 H199       -2.1012  -25.4149  -43.1991 H         1 UNK         0.0600 
    200 H200       -1.2774  -25.8909  -45.5048 H         1 UNK         0.3000 
    201 H201       -1.1026  -28.7701  -45.7362 H         1 UNK         0.0600 
    202 H202        0.7166  -27.3702  -44.7805 H         1 UNK         0.0600 
    203 H203        0.9495  -26.5822  -46.3402 H         1 UNK         0.0600 
    204 H204        1.2864  -28.2992  -46.1591 H         1 UNK         0.0600 
    205 H205       -1.2455  -26.0856  -48.1128 H         1 UNK         0.3000 
    206 H206       -0.8224  -28.0323  -50.3569 H         1 UNK         0.0600 
    207 H207        1.0668  -26.4251  -49.9530 H         1 UNK         0.0600 
    208 H208        0.2891  -26.1567  -51.5032 H         1 UNK         0.0600 
    209 H209       -0.0470  -25.0752  -50.1590 H         1 UNK         0.0600 
    210 H210       -3.2827  -26.4446  -48.9005 H         1 UNK         0.3000 
    211 H211       -5.2810  -25.6132  -49.4326 H         1 UNK         0.0600 
    212 H212       -4.9766  -27.0298  -52.1292 H         1 UNK         0.0600 
    213 H213       -6.4781  -26.5026  -51.3833 H         1 UNK         0.0600 
    214 H214       -5.5414  -27.7886  -50.6413 H         1 UNK         0.0600 
    215 H215       -3.0621  -23.9561  -49.7820 H         1 UNK         0.3000 
    216 H216       -2.5093  -21.9109  -50.3178 H         1 UNK         0.0600 
    217 H217       -3.9877  -20.2995  -51.3901 H         1 UNK         0.0600 
    218 H218       -4.9155  -21.2509  -50.2438 H         1 UNK         0.0600 
    219 H219       -5.0475  -21.5628  -51.9773 H         1 UNK         0.0600 
    220 H220       -2.3987  -24.4089  -52.3294 H         1 UNK         0.3000 
    221 H221       -1.1515  -25.0510  -53.9927 H         1 UNK         0.0600 
    222 H222        0.3725  -22.4128  -53.6890 H         1 UNK         0.0600 
    223 H223        0.6347  -23.8560  -52.7125 H         1 UNK         0.0600 
    224 H224        0.9745  -23.8860  -54.4343 H         1 UNK         0.0600 
    225 H225       -3.3863  -22.7852  -54.5902 H         1 UNK         0.3000 
    226 H226       -3.4431  -23.1019  -57.4254 H         1 UNK         0.0600 
    227 H227       -1.6962  -21.2808  -57.3348 H         1 UNK         0.0600 
    228 H228       -3.2038  -20.6296  -57.9445 H         1 UNK         0.0600 
    229 H229       -2.7324  -20.3259  -56.2770 H         1 UNK         0.0600 
    230 H230       -5.3395  -21.7385  -58.2559 H         1 UNK         0.3000 
    231 H231       -7.6048  -21.8643  -56.3956 H         1 UNK         0.0600 
    232 H232       -7.4527  -21.1873  -59.3786 H         1 UNK         0.0600 
    233 H233       -8.9250  -21.4561  -58.4516 H         1 UNK         0.0600 
    234 H234       -7.7979  -22.7780  -58.6999 H         1 UNK         0.0600 
    235 H235       -5.9805  -20.0353  -55.3074 H         1 UNK         0.3000 
    236 H236       -7.4624  -17.5603  -55.4142 H         1 UNK         0.0600 
    237 H237       -5.8324  -17.1259  -57.2708 H         1 UNK         0.0600 
    238 H238       -5.4223  -16.1468  -55.8718 H         1 UNK         0.0600 
    239 H239       -4.4917  -17.5976  -56.2275 H         1 UNK         0.0600 
    240 H240       -7.0339  -16.3180  -53.5845 H         1 UNK         0.3000 
    241 H241       -6.8941  -15.9720  -51.4794 H         1 UNK         0.0600 
    242 H242       -7.2357  -19.1254  -51.9777 H         1 UNK         0.3800 
    243 H243       -7.2323  -19.6291  -50.3068 H         1 UNK         0.3800 
    244 H244       -4.7620  -15.0909  -52.1836 H         1 UNK         0.0800 
    245 H245       -4.7462  -15.5282  -50.5155 H         1 UNK         0.0800 
    246 H246       -3.3901  -18.3678  -49.9311 H         1 UNK         0.0800 
    247 H247       -3.1276  -16.7227  -49.4182 H         1 UNK         0.0800 
@<TRIPOS>BOND
     1    1    2 1    
     2    1  127 1    
     3    1  128 1    
     4    1  129 1    
     5    2    3 2    
     6    2    4 am   BACKBONE|DICT|INTERRES
     7    4    5 1    
     8    4  130 1    
     9    5    6 1    
    10    5   65 1    
    11    5  131 1    
    12    6    7 1    
    13    6  132 1    
    14    6  133 1    
    15    7    8 1    
    16    8    9 1    
    17    8  134 1    
    18    8  135 1    
    19    9   10 ar   
    20    9   14 ar   
    21   10   11 ar   
    22   10  136 1    
    23   11   12 ar   
    24   11  126 1    
    25   12   13 ar   
    26   12  137 1    
    27   13   14 ar   
    28   13   15 1    
    29   14  138 1    
    30   15   16 1    
    31   15  139 1    
    32   15  140 1    
    33   16   17 1    
    34   17   18 1    
    35   17  141 1    
    36   17  142 1    
    37   18   19 1    
    38   18   67 1    
    39   18  143 1    
    40   19   20 am   BACKBONE|DICT|INTERRES
    41   19  144 1    
    42   20   21 2    
    43   20   22 1    
    44   22   23 1    
    45   22   24 1    
    46   22  145 1    
    47   23  146 1    
    48   23  147 1    
    49   23  148 1    
    50   24   25 am   BACKBONE|DICT|INTERRES
    51   24  149 1    
    52   25   26 2    
    53   25   27 1    
    54   27   28 1    
    55   27   29 1    
    56   27  150 1    
    57   28  151 1    
    58   28  152 1    
    59   28  153 1    
    60   29   30 am   BACKBONE|DICT|INTERRES
    61   29  154 1    
    62   30   31 2    
    63   30   32 1    
    64   32   33 1    
    65   32   34 1    
    66   32  155 1    
    67   33  156 1    
    68   33  157 1    
    69   33  158 1    
    70   34   35 am   BACKBONE|DICT|INTERRES
    71   34  159 1    
    72   35   36 2    
    73   35   37 1    
    74   37   38 1    
    75   37   39 1    
    76   37  160 1    
    77   38  161 1    
    78   38  162 1    
    79   38  163 1    
    80   39   40 am   BACKBONE|DICT|INTERRES
    81   39  164 1    
    82   40   41 2    
    83   40   42 1    
    84   42   43 1    
    85   42   44 1    
    86   42  165 1    
    87   43  166 1    
    88   43  167 1    
    89   43  168 1    
    90   44   45 am   BACKBONE|DICT|INTERRES
    91   44  169 1    
    92   45   46 2    
    93   45   47 1    
    94   47   48 1    
    95   47   49 1    
    96   47  170 1    
    97   48  171 1    
    98   48  172 1    
    99   48  173 1    
   100   49   50 am   BACKBONE|DICT|INTERRES
   101   49  174 1    
   102   50   51 2    
   103   50   52 1    
   104   52   53 1    
   105   52   54 1    
   106   52  175 1    
   107   53  176 1    
   108   53  177 1    
   109   53  178 1    
   110   54   55 am   BACKBONE|DICT|INTERRES
   111   54  179 1    
   112   55   56 2    
   113   55   57 1    
   114   57   58 1    
   115   57   59 1    
   116   57  180 1    
   117   58  181 1    
   118   58  182 1    
   119   58  183 1    
   120   59   60 am   BACKBONE|DICT|INTERRES
   121   59  184 1    
   122   60   61 2    
   123   60   62 1    
   124   62   63 1    
   125   62   64 1    
   126   62  185 1    
   127   63  186 1    
   128   63  187 1    
   129   63  188 1    
   130   64   65 am   BACKBONE|DICT|INTERRES
   131   64  189 1    
   132   65   66 2    
   133   67   68 2    
   134   67   69 am   BACKBONE|DICT|INTERRES
   135   69   70 1    
   136   69  190 1    
   137   70   71 1    
   138   70   72 1    
   139   70  191 1    
   140   71  192 1    
   141   71  193 1    
   142   71  194 1    
   143   72   73 2    
   144   72   74 am   BACKBONE|DICT|INTERRES
   145   74   75 1    
   146   74  195 1    
   147   75   76 1    
   148   75   77 1    
   149   75  196 1    
   150   76  197 1    
   151   76  198 1    
   152   76  199 1    
   153   77   78 2    
   154   77   79 am   BACKBONE|DICT|INTERRES
   155   79   80 1    
   156   79  200 1    
   157   80   81 1    
   158   80   82 1    
   159   80  201 1    
   160   81  202 1    
   161   81  203 1    
   162   81  204 1    
   163   82   83 2    
   164   82   84 am   BACKBONE|DICT|INTERRES
   165   84   85 1    
   166   84  205 1    
   167   85   86 1    
   168   85   87 1    
   169   85  206 1    
   170   86  207 1    
   171   86  208 1    
   172   86  209 1    
   173   87   88 2    
   174   87   89 am   BACKBONE|DICT|INTERRES
   175   89   90 1    
   176   89  210 1    
   177   90   91 1    
   178   90   92 1    
   179   90  211 1    
   180   91  212 1    
   181   91  213 1    
   182   91  214 1    
   183   92   93 2    
   184   92   94 am   BACKBONE|DICT|INTERRES
   185   94   95 1    
   186   94  215 1    
   187   95   96 1    
   188   95   97 1    
   189   95  216 1    
   190   96  217 1    
   191   96  218 1    
   192   96  219 1    
   193   97   98 2    
   194   97   99 am   BACKBONE|DICT|INTERRES
   195   99  100 1    
   196   99  220 1    
   197  100  101 1    
   198  100  102 1    
   199  100  221 1    
   200  101  222 1    
   201  101  223 1    
   202  101  224 1    
   203  102  103 2    
   204  102  104 am   BACKBONE|DICT|INTERRES
   205  104  105 1    
   206  104  225 1    
   207  105  106 1    
   208  105  107 1    
   209  105  226 1    
   210  106  227 1    
   211  106  228 1    
   212  106  229 1    
   213  107  108 2    
   214  107  109 am   BACKBONE|DICT|INTERRES
   215  109  110 1    
   216  109  230 1    
   217  110  111 1    
   218  110  112 1    
   219  110  231 1    
   220  111  232 1    
   221  111  233 1    
   222  111  234 1    
   223  112  113 2    
   224  112  114 am   BACKBONE|DICT|INTERRES
   225  114  115 1    
   226  114  235 1    
   227  115  116 1    
   228  115  117 1    
   229  115  236 1    
   230  116  237 1    
   231  116  238 1    
   232  116  239 1    
   233  117  118 2    
   234  117  119 am   BACKBONE|DICT|INTERRES
   235  119  120 1    
   236  119  240 1    
   237  120  121 1    
   238  120  124 1    
   239  120  241 1    
   240  121  122 am   BACKBONE|DICT|INTERRES
   241  121  123 2    
   242  122  242 1    
   243  122  243 1    
   244  124  125 1    
   245  124  244 1    
   246  124  245 1    
   247  125  126 1    
   248  126  246 1    
   249  126  247 1    
@<TRIPOS>SUBSTRUCTURE
     1 UNK         1 GROUP             0       ****    0 ROOT    
