@<TRIPOS>MOLECULE
3R540
247   249    1
SMALL
USER_CHARGES


@<TRIPOS>ATOM
      1 CA         -1.7607  -18.9411  -50.0358 C.3       0 UNK        -0.1800 
      2 C          -2.0092  -17.4797  -49.7041 C.2       0 UNK         0.5000 
      3 O          -3.1501  -17.0237  -49.7661 O.2       0 UNK        -0.5000 
      4 N          -0.9611  -16.7404  -49.3208 N.am      1 UNK        -0.5000 
      5 CA         -1.0546  -15.3719  -48.7989 C.3       1 UNK         0.1400 
      6 C6          0.2812  -14.5989  -48.9371 C.3       23 UNK        -0.0398 
      7 S7          0.6253  -14.1705  -50.6782 S.3       23 UNK        -0.2404 
      8 C8          2.2332  -14.9702  -50.9791 C.3       23 UNK        -0.0205 
      9 C9          2.1309  -16.4875  -51.0087 C.ar      23 UNK        -0.0193 
     10 C10         1.4170  -17.1251  -52.0270 C.ar      23 UNK        -0.1150 
     11 C11         1.3203  -18.5189  -52.0672 C.ar      23 UNK        -0.0193 
     12 C12         1.9410  -19.2742  -51.0651 C.ar      23 UNK        -0.1150 
     13 C13         2.6748  -18.6510  -50.0517 C.ar      23 UNK        -0.0193 
     14 C14         2.7671  -17.2559  -50.0313 C.ar      23 UNK        -0.1150 
     15 C15         3.3959  -19.4939  -49.0070 C.3       23 UNK        -0.0205 
     16 S16         3.0818  -18.9547  -47.2958 S.3       23 UNK        -0.2404 
     17 C17         1.3109  -19.3361  -47.0960 C.3       23 UNK        -0.0398 
     18 CA          1.0604  -20.7860  -46.6129 C.3       11 UNK         0.1400 
     19 N           1.8332  -21.1532  -45.4132 N.am      11 UNK        -0.5000 
     20 C           2.0269  -22.4223  -45.0233 C.2       10 UNK         0.5000 
     21 O           1.3649  -23.3638  -45.4601 O.2       10 UNK        -0.5000 
     22 CA          3.1704  -22.7258  -44.0432 C.3       10 UNK         0.1400 
     23 CB          4.4632  -22.9964  -44.8394 C.3       10 UNK        -0.1800 
     24 N           3.3977  -21.6844  -43.0394 N.am      10 UNK        -0.5000 
     25 C           4.1051  -21.8815  -41.9161 C.2       9 UNK         0.5000 
     26 O           4.6098  -22.9614  -41.6043 O.2       9 UNK        -0.5000 
     27 CA          4.2731  -20.6819  -40.9672 C.3       9 UNK         0.1400 
     28 CB          5.3259  -19.6978  -41.5009 C.3       9 UNK        -0.1800 
     29 N           3.0097  -19.9873  -40.7324 N.am      9 UNK        -0.5000 
     30 C           2.0082  -20.4768  -39.9871 C.2       8 UNK         0.5000 
     31 O           2.0700  -21.5396  -39.3679 O.2       8 UNK        -0.5000 
     32 CA          0.7159  -19.6428  -39.9231 C.3       8 UNK         0.1400 
     33 CB          0.7275  -18.7181  -38.6964 C.3       8 UNK        -0.1800 
     34 N           0.5050  -18.8392  -41.1257 N.am      8 UNK        -0.5000 
     35 C           0.1647  -19.3406  -42.3203 C.2       7 UNK         0.5000 
     36 O          -0.0184  -20.5363  -42.5464 O.2       7 UNK        -0.5000 
     37 CA          0.0774  -18.3331  -43.4755 C.3       7 UNK         0.1400 
     38 CB         -1.2214  -17.5250  -43.3947 C.3       7 UNK        -0.1800 
     39 N           1.2205  -17.4206  -43.5139 N.am      7 UNK        -0.5000 
     40 C           2.5003  -17.8020  -43.6526 C.2       6 UNK         0.5000 
     41 O           2.8374  -18.9720  -43.8377 O.2       6 UNK        -0.5000 
     42 CA          3.5929  -16.7205  -43.5222 C.3       6 UNK         0.1400 
     43 CB          4.0924  -16.2901  -44.9083 C.3       6 UNK        -0.1800 
     44 N           3.1647  -15.5319  -42.7868 N.am      6 UNK        -0.5000 
     45 C           2.7472  -15.4983  -41.5128 C.2       5 UNK         0.5000 
     46 O           2.7445  -16.4799  -40.7687 O.2       5 UNK        -0.5000 
     47 CA          2.1816  -14.1520  -41.0123 C.3       5 UNK         0.1400 
     48 CB          3.2382  -13.3975  -40.1919 C.3       5 UNK        -0.1800 
     49 N           1.6989  -13.2813  -42.0940 N.am      5 UNK        -0.5000 
     50 C           0.6904  -13.5829  -42.9243 C.2       4 UNK         0.5000 
     51 O           0.0367  -14.6246  -42.8456 O.2       4 UNK        -0.5000 
     52 CA          0.4428  -12.6004  -44.0798 C.3       4 UNK         0.1400 
     53 CB          1.4261  -12.8787  -45.2295 C.3       4 UNK        -0.1800 
     54 N          -0.9217  -12.7231  -44.5885 N.am      4 UNK        -0.5000 
     55 C          -1.9711  -12.0454  -44.1035 C.2       3 UNK         0.5000 
     56 O          -1.8838  -11.2281  -43.1855 O.2       3 UNK        -0.5000 
     57 CA         -3.3475  -12.2848  -44.7579 C.3       3 UNK         0.1400 
     58 CB         -3.7001  -11.1221  -45.6992 C.3       3 UNK        -0.1800 
     59 N          -3.4278  -13.5349  -45.5126 N.am      3 UNK        -0.5000 
     60 C          -3.5784  -14.7483  -44.9666 C.2       2 UNK         0.5000 
     61 O          -3.7177  -14.9409  -43.7587 O.2       2 UNK        -0.5000 
     62 CA         -3.5811  -15.9517  -45.9317 C.3       2 UNK         0.1400 
     63 CB         -5.0217  -16.3791  -46.2487 C.3       2 UNK        -0.1800 
     64 N          -2.8658  -15.7391  -47.1939 N.am      2 UNK        -0.5000 
     65 C          -1.5763  -15.4055  -47.3450 C.2       1 UNK         0.5000 
     66 O          -0.8209  -15.1558  -46.4060 O.2       1 UNK        -0.5000 
     67 C          -0.4502  -21.0991  -46.5425 C.2       11 UNK         0.5000 
     68 O          -1.0876  -21.1694  -47.5922 O.2       11 UNK        -0.5000 
     69 N          -0.9994  -21.3470  -45.3435 N.am      12 UNK        -0.5000 
     70 CA         -2.3722  -21.8308  -45.1576 C.3       12 UNK         0.1400 
     71 CB         -2.7477  -21.7463  -43.6710 C.3       12 UNK        -0.1800 
     72 C          -2.6100  -23.2588  -45.6996 C.2       12 UNK         0.5000 
     73 O          -3.7652  -23.6430  -45.8794 O.2       12 UNK        -0.5000 
     74 N          -1.5319  -24.0125  -45.9695 N.am      13 UNK        -0.5000 
     75 CA         -1.5658  -25.3403  -46.5886 C.3       13 UNK         0.1400 
     76 CB         -0.2307  -26.0523  -46.3174 C.3       13 UNK        -0.1800 
     77 C          -1.8718  -25.3194  -48.1030 C.2       13 UNK         0.5000 
     78 O          -2.0619  -26.3893  -48.6844 O.2       13 UNK        -0.5000 
     79 N          -1.9094  -24.1286  -48.7218 N.am      14 UNK        -0.5000 
     80 CA         -2.3327  -23.9083  -50.1073 C.3       14 UNK         0.1400 
     81 CB         -2.1767  -22.4162  -50.4346 C.3       14 UNK        -0.1800 
     82 C          -3.7888  -24.3449  -50.3623 C.2       14 UNK         0.5000 
     83 O          -4.6025  -24.3510  -49.4344 O.2       14 UNK        -0.5000 
     84 N          -4.1016  -24.6609  -51.6253 N.am      15 UNK        -0.5000 
     85 CA         -5.4318  -25.0469  -52.0978 C.3       15 UNK         0.1400 
     86 CB         -5.3609  -25.3584  -53.5991 C.3       15 UNK        -0.1800 
     87 C          -6.4771  -23.9573  -51.7958 C.2       15 UNK         0.5000 
     88 O          -6.3568  -22.8385  -52.2986 O.2       15 UNK        -0.5000 
     89 N          -7.4256  -24.2878  -50.9063 N.am      16 UNK        -0.5000 
     90 CA         -8.4581  -23.4106  -50.3343 C.3       16 UNK         0.1400 
     91 CB         -9.4695  -22.9970  -51.4242 C.3       16 UNK        -0.1800 
     92 C          -7.9013  -22.1865  -49.5669 C.2       16 UNK         0.5000 
     93 O          -8.6472  -21.2360  -49.3256 O.2       16 UNK        -0.5000 
     94 N          -6.6036  -22.2195  -49.2191 N.am      17 UNK        -0.5000 
     95 CA         -5.7903  -21.1196  -48.6917 C.3       17 UNK         0.1400 
     96 CB         -6.1712  -20.8120  -47.2289 C.3       17 UNK        -0.1800 
     97 C          -5.7993  -19.8677  -49.6014 C.2       17 UNK         0.5000 
     98 O          -5.7616  -18.7475  -49.0924 O.2       17 UNK        -0.5000 
     99 N          -5.8818  -20.0750  -50.9242 N.am      18 UNK        -0.5000 
    100 CA        -5.9716  -19.0160  -51.9251 C.3       18 UNK         0.1400 
    101 CB        -7.0582  -19.3894  -52.9459 C.3       18 UNK        -0.1800 
    102 C         -4.6209  -18.8383  -52.6297 C.2       18 UNK         0.5000 
    103 O         -4.0368  -19.8233  -53.0882 O.2       18 UNK        -0.5000 
    104 N         -4.1705  -17.5822  -52.7489 N.am      19 UNK        -0.5000 
    105 CA        -2.9069  -17.1994  -53.3867 C.3       19 UNK         0.1400 
    106 CB        -2.6202  -15.7158  -53.1080 C.3       19 UNK        -0.1800 
    107 C         -2.8707  -17.4797  -54.8994 C.2       19 UNK         0.5000 
    108 O         -1.8023  -17.7675  -55.4376 O.2       19 UNK        -0.5000 
    109 N         -4.0385  -17.4016  -55.5518 N.am      20 UNK        -0.5000 
    110 CA        -4.2103  -17.6827  -56.9772 C.3       20 UNK         0.1400 
    111 CB        -5.5729  -17.1388  -57.4337 C.3       20 UNK        -0.1800 
    112 C         -4.0883  -19.1810  -57.3133 C.2       20 UNK         0.5000 
    113 O         -3.6492  -19.5179  -58.4136 O.2       20 UNK        -0.5000 
    114 N         -4.4827  -20.0463  -56.3695 N.am      21 UNK        -0.5000 
    115 CA        -4.4076  -21.4995  -56.5028 C.3       21 UNK         0.1400 
    116 CB        -5.5635  -22.1391  -55.7210 C.3       21 UNK        -0.1800 
    117 C         -3.0437  -22.0221  -56.0217 C.2       21 UNK         0.5000 
    118 O         -2.3970  -22.7830  -56.7427 O.2       21 UNK        -0.5000 
    119 N         -2.6181  -21.5654  -54.8363 N.am      22 UNK        -0.5000 
    120 CA        -1.3401  -21.8875  -54.1895 C.3       22 UNK         0.1400 
    121 C         -1.1647  -23.3960  -53.8270 C.2       22 UNK         0.5000 
    122 N          0.0563  -23.8756  -53.6352 N.am      22 UNK        -0.7600 
    123 O         -2.1343  -24.1281  -53.6423 O.2       22 UNK        -0.5000 
    124 C124       -0.1370  -21.2430  -54.9400 C.3       23 UNK        -0.0398 
    125 S125        1.2064  -20.7296  -53.8152 S.3       23 UNK        -0.2404 
    126 C126        0.4992  -19.1772  -53.1705 C.3       23 UNK        -0.0205 
    127 H127       -2.3153  -19.5593  -49.3321 H         1 UNK         0.0600 
    128 H128       -0.7073  -19.2072  -49.9651 H         1 UNK         0.0600 
    129 H129       -2.1114  -19.1783  -51.0377 H         1 UNK         0.0600 
    130 H130       -0.0362  -17.1452  -49.3211 H         1 UNK         0.3000 
    131 H131       -1.8026  -14.8278  -49.3805 H         1 UNK         0.0600 
    132 H132        1.1079  -15.1671  -48.5074 H         1 UNK         0.0800 
    133 H133        0.2412  -13.6585  -48.3842 H         1 UNK         0.0800 
    134 H134        2.9481  -14.6379  -50.2247 H         1 UNK         0.0800 
    135 H135        2.6211  -14.6258  -51.9387 H         1 UNK         0.0800 
    136 H136        0.9272  -16.5283  -52.7840 H         1 UNK         0.1150 
    137 H137        1.8611  -20.3518  -51.0793 H         1 UNK         0.1150 
    138 H138        3.3385  -16.7700  -49.2528 H         1 UNK         0.1150 
    139 H139        3.1267  -20.5470  -49.0999 H         1 UNK         0.0800 
    140 H140        4.4681  -19.4344  -49.1977 H         1 UNK         0.0800 
    141 H141        0.8051  -19.1583  -48.0455 H         1 UNK         0.0800 
    142 H142        0.8948  -18.6073  -46.4028 H         1 UNK         0.0800 
    143 H143        1.4348  -21.4335  -47.4091 H         1 UNK         0.0600 
    144 H144        2.3899  -20.4087  -45.0036 H         1 UNK         0.3000 
    145 H145        2.8890  -23.6428  -43.5207 H         1 UNK         0.0600 
    146 H146        5.2590  -23.3801  -44.2014 H         1 UNK         0.0600 
    147 H147        4.2961  -23.7399  -45.6200 H         1 UNK         0.0600 
    148 H148        4.8295  -22.0897  -45.3227 H         1 UNK         0.0600 
    149 H149        3.0184  -20.7611  -43.2292 H         1 UNK         0.3000 
    150 H150        4.6317  -21.0593  -40.0070 H         1 UNK         0.0600 
    151 H151        6.3097  -20.1676  -41.5296 H         1 UNK         0.0600 
    152 H152        5.4048  -18.8151  -40.8659 H         1 UNK         0.0600 
    153 H153        5.0997  -19.3680  -42.5139 H         1 UNK         0.0600 
    154 H154        2.8750  -19.1016  -41.1978 H         1 UNK         0.3000 
    155 H155       -0.1221  -20.3358  -39.8220 H         1 UNK         0.0600 
    156 H156        1.5432  -17.9955  -38.7442 H         1 UNK         0.0600 
    157 H157        0.8508  -19.2915  -37.7767 H         1 UNK         0.0600 
    158 H158       -0.2074  -18.1642  -38.6106 H         1 UNK         0.0600 
    159 H159        0.6953  -17.8496  -41.0481 H         1 UNK         0.3000 
    160 H160        0.0631  -18.8982  -44.4040 H         1 UNK         0.0600 
    161 H161       -1.2444  -16.7618  -44.1707 H         1 UNK         0.0600 
    162 H162       -1.3272  -17.0162  -42.4358 H         1 UNK         0.0600 
    163 H163       -2.0933  -18.1664  -43.5273 H         1 UNK         0.0600 
    164 H164        1.0117  -16.4404  -43.3584 H         1 UNK         0.3000 
    165 H165        4.4298  -17.1574  -42.9759 H         1 UNK         0.0600 
    166 H166        4.8679  -15.5277  -44.8328 H         1 UNK         0.0600 
    167 H167        4.5268  -17.1356  -45.4422 H         1 UNK         0.0600 
    168 H168        3.2844  -15.8908  -45.5233 H         1 UNK         0.0600 
    169 H169        3.1297  -14.6715  -43.3119 H         1 UNK         0.3000 
    170 H170        1.3355  -14.3774  -40.3599 H         1 UNK         0.0600 
    171 H171        3.5991  -14.0088  -39.3635 H         1 UNK         0.0600 
    172 H172        4.1020  -13.1259  -40.8001 H         1 UNK         0.0600 
    173 H173        2.8269  -12.4833  -39.7635 H         1 UNK         0.0600 
    174 H174        2.1977  -12.4125  -42.2242 H         1 UNK         0.3000 
    175 H175        0.6106  -11.5826  -43.7209 H         1 UNK         0.0600 
    176 H176        1.3638  -13.9108  -45.5762 H         1 UNK         0.0600 
    177 H177        1.2313  -12.2279  -46.0821 H         1 UNK         0.0600 
    178 H178        2.4558  -12.7017  -44.9173 H         1 UNK         0.0600 
    179 H179       -1.0764  -13.4602  -45.2676 H         1 UNK         0.3000 
    180 H180       -4.0905  -12.3107  -43.9579 H         1 UNK         0.0600 
    181 H181       -2.9940  -11.0462  -46.5272 H         1 UNK         0.0600 
    182 H182       -3.6858  -10.1697  -45.1675 H         1 UNK         0.0600 
    183 H183       -4.6992  -11.2426  -46.1186 H         1 UNK         0.0600 
    184 H184       -3.3321  -13.4701  -46.5150 H         1 UNK         0.3000 
    185 H185       -3.0988  -16.7858  -45.4240 H         1 UNK         0.0600 
    186 H186       -5.5837  -16.5768  -45.3349 H         1 UNK         0.0600 
    187 H187       -5.5566  -15.6082  -46.8047 H         1 UNK         0.0600 
    188 H188       -5.0393  -17.2934  -46.8423 H         1 UNK         0.0600 
    189 H189       -3.3686  -15.9981  -48.0376 H         1 UNK         0.3000 
    190 H190       -0.4226  -21.2921  -44.5113 H         1 UNK         0.3000 
    191 H191       -3.0395  -21.1657  -45.7101 H         1 UNK         0.0600 
    192 H192       -2.6881  -20.7209  -43.3069 H         1 UNK         0.0600 
    193 H193       -2.0902  -22.3619  -43.0560 H         1 UNK         0.0600 
    194 H194       -3.7700  -22.0881  -43.5037 H         1 UNK         0.0600 
    195 H195       -0.6080  -23.6365  -45.7785 H         1 UNK         0.3000 
    196 H196       -2.3583  -25.9182  -46.1087 H         1 UNK         0.0600 
    197 H197       -0.2585  -27.0842  -46.6695 H         1 UNK         0.0600 
    198 H198       -0.0047  -26.0794  -45.2512 H         1 UNK         0.0600 
    199 H199        0.5979  -25.5567  -46.8244 H         1 UNK         0.0600 
    200 H200       -1.7397  -23.2974  -48.1712 H         1 UNK         0.3000 
    201 H201       -1.6786  -24.4881  -50.7616 H         1 UNK         0.0600 
    202 H202       -1.1284  -22.1168  -50.4419 H         1 UNK         0.0600 
    203 H203       -2.6973  -21.7997  -49.7043 H         1 UNK         0.0600 
    204 H204       -2.5990  -22.1745  -51.4097 H         1 UNK         0.0600 
    205 H205       -3.3887  -24.5601  -52.3458 H         1 UNK         0.3000 
    206 H206       -5.7167  -25.9634  -51.5773 H         1 UNK         0.0600 
    207 H207       -4.7377  -26.2323  -53.7893 H         1 UNK         0.0600 
    208 H208       -6.3503  -25.5650  -54.0091 H         1 UNK         0.0600 
    209 H209       -4.9358  -24.5240  -54.1553 H         1 UNK         0.0600 
    210 H210       -7.3992  -25.2200  -50.5166 H         1 UNK         0.3000 
    211 H211       -8.9923  -24.0102  -49.5961 H         1 UNK         0.0600 
    212 H212       -9.0209  -22.3268  -52.1584 H         1 UNK         0.0600 
    213 H213      -10.3255  -22.4789  -50.9904 H         1 UNK         0.0600 
    214 H214       -9.8554  -23.8669  -51.9556 H         1 UNK         0.0600 
    215 H215       -6.0814  -23.0668  -49.4251 H         1 UNK         0.3000 
    216 H216       -4.7623  -21.4812  -48.6859 H         1 UNK         0.0600 
    217 H217       -5.4883  -20.0829  -46.7911 H         1 UNK         0.0600 
    218 H218       -6.1201  -21.7103  -46.6133 H         1 UNK         0.0600 
    219 H219       -7.1799  -20.4058  -47.1504 H         1 UNK         0.0600 
    220 H220       -5.8987  -21.0237  -51.2841 H         1 UNK         0.3000 
    221 H221       -6.2590  -18.0717  -51.4580 H         1 UNK         0.0600 
    222 H222       -6.8322  -20.3279  -53.4531 H         1 UNK         0.0600 
    223 H223       -8.0283  -19.5014  -52.4612 H         1 UNK         0.0600 
    224 H224       -7.1621  -18.6182  -53.7101 H         1 UNK         0.0600 
    225 H225       -4.6954  -16.8345  -52.3184 H         1 UNK         0.3000 
    226 H226       -2.1106  -17.7832  -52.9279 H         1 UNK         0.0600 
    227 H227       -2.5583  -15.5163  -52.0384 H         1 UNK         0.0600 
    228 H228       -1.6672  -15.4139  -53.5449 H         1 UNK         0.0600 
    229 H229       -3.3934  -15.0702  -53.5259 H         1 UNK         0.0600 
    230 H230       -4.8640  -17.1429  -55.0323 H         1 UNK         0.3000 
    231 H231       -3.4298  -17.1540  -57.5287 H         1 UNK         0.0600 
    232 H232       -5.6450  -16.0640  -57.2663 H         1 UNK         0.0600 
    233 H233       -6.3968  -17.6184  -56.9037 H         1 UNK         0.0600 
    234 H234       -5.7243  -17.3111  -58.5002 H         1 UNK         0.0600 
    235 H235       -4.7831  -19.6857  -55.4761 H         1 UNK         0.3000 
    236 H236       -4.5278  -21.7750  -57.5529 H         1 UNK         0.0600 
    237 H237       -5.6109  -23.2105  -55.9144 H         1 UNK         0.0600 
    238 H238       -5.4518  -21.9974  -54.6460 H         1 UNK         0.0600 
    239 H239       -6.5241  -21.7168  -56.0162 H         1 UNK         0.0600 
    240 H240       -3.2311  -20.9625  -54.2922 H         1 UNK         0.3000 
    241 H241       -1.4287  -21.3968  -53.2225 H         1 UNK         0.0600 
    242 H242        0.8676  -23.2835  -53.7318 H         1 UNK         0.3800 
    243 H243        0.1717  -24.8448  -53.3851 H         1 UNK         0.3800 
    244 H244        0.2590  -21.9190  -55.6995 H         1 UNK         0.0800 
    245 H245       -0.4604  -20.3543  -55.4850 H         1 UNK         0.0800 
    246 H246        0.3718  -18.4874  -54.0060 H         1 UNK         0.0800 
    247 H247       -0.4933  -19.3776  -52.7733 H         1 UNK         0.0800 
@<TRIPOS>BOND
     1    1    2 1    
     2    1  127 1    
     3    1  128 1    
     4    1  129 1    
     5    2    3 2    
     6    2    4 am   BACKBONE|DICT|INTERRES
     7    4    5 1    
     8    4  130 1    
     9    5    6 1    
    10    5   65 1    
    11    5  131 1    
    12    6    7 1    
    13    6  132 1    
    14    6  133 1    
    15    7    8 1    
    16    8    9 1    
    17    8  134 1    
    18    8  135 1    
    19    9   10 ar   
    20    9   14 ar   
    21   10   11 ar   
    22   10  136 1    
    23   11   12 ar   
    24   11  126 1    
    25   12   13 ar   
    26   12  137 1    
    27   13   14 ar   
    28   13   15 1    
    29   14  138 1    
    30   15   16 1    
    31   15  139 1    
    32   15  140 1    
    33   16   17 1    
    34   17   18 1    
    35   17  141 1    
    36   17  142 1    
    37   18   19 1    
    38   18   67 1    
    39   18  143 1    
    40   19   20 am   BACKBONE|DICT|INTERRES
    41   19  144 1    
    42   20   21 2    
    43   20   22 1    
    44   22   23 1    
    45   22   24 1    
    46   22  145 1    
    47   23  146 1    
    48   23  147 1    
    49   23  148 1    
    50   24   25 am   BACKBONE|DICT|INTERRES
    51   24  149 1    
    52   25   26 2    
    53   25   27 1    
    54   27   28 1    
    55   27   29 1    
    56   27  150 1    
    57   28  151 1    
    58   28  152 1    
    59   28  153 1    
    60   29   30 am   BACKBONE|DICT|INTERRES
    61   29  154 1    
    62   30   31 2    
    63   30   32 1    
    64   32   33 1    
    65   32   34 1    
    66   32  155 1    
    67   33  156 1    
    68   33  157 1    
    69   33  158 1    
    70   34   35 am   BACKBONE|DICT|INTERRES
    71   34  159 1    
    72   35   36 2    
    73   35   37 1    
    74   37   38 1    
    75   37   39 1    
    76   37  160 1    
    77   38  161 1    
    78   38  162 1    
    79   38  163 1    
    80   39   40 am   BACKBONE|DICT|INTERRES
    81   39  164 1    
    82   40   41 2    
    83   40   42 1    
    84   42   43 1    
    85   42   44 1    
    86   42  165 1    
    87   43  166 1    
    88   43  167 1    
    89   43  168 1    
    90   44   45 am   BACKBONE|DICT|INTERRES
    91   44  169 1    
    92   45   46 2    
    93   45   47 1    
    94   47   48 1    
    95   47   49 1    
    96   47  170 1    
    97   48  171 1    
    98   48  172 1    
    99   48  173 1    
   100   49   50 am   BACKBONE|DICT|INTERRES
   101   49  174 1    
   102   50   51 2    
   103   50   52 1    
   104   52   53 1    
   105   52   54 1    
   106   52  175 1    
   107   53  176 1    
   108   53  177 1    
   109   53  178 1    
   110   54   55 am   BACKBONE|DICT|INTERRES
   111   54  179 1    
   112   55   56 2    
   113   55   57 1    
   114   57   58 1    
   115   57   59 1    
   116   57  180 1    
   117   58  181 1    
   118   58  182 1    
   119   58  183 1    
   120   59   60 am   BACKBONE|DICT|INTERRES
   121   59  184 1    
   122   60   61 2    
   123   60   62 1    
   124   62   63 1    
   125   62   64 1    
   126   62  185 1    
   127   63  186 1    
   128   63  187 1    
   129   63  188 1    
   130   64   65 am   BACKBONE|DICT|INTERRES
   131   64  189 1    
   132   65   66 2    
   133   67   68 2    
   134   67   69 am   BACKBONE|DICT|INTERRES
   135   69   70 1    
   136   69  190 1    
   137   70   71 1    
   138   70   72 1    
   139   70  191 1    
   140   71  192 1    
   141   71  193 1    
   142   71  194 1    
   143   72   73 2    
   144   72   74 am   BACKBONE|DICT|INTERRES
   145   74   75 1    
   146   74  195 1    
   147   75   76 1    
   148   75   77 1    
   149   75  196 1    
   150   76  197 1    
   151   76  198 1    
   152   76  199 1    
   153   77   78 2    
   154   77   79 am   BACKBONE|DICT|INTERRES
   155   79   80 1    
   156   79  200 1    
   157   80   81 1    
   158   80   82 1    
   159   80  201 1    
   160   81  202 1    
   161   81  203 1    
   162   81  204 1    
   163   82   83 2    
   164   82   84 am   BACKBONE|DICT|INTERRES
   165   84   85 1    
   166   84  205 1    
   167   85   86 1    
   168   85   87 1    
   169   85  206 1    
   170   86  207 1    
   171   86  208 1    
   172   86  209 1    
   173   87   88 2    
   174   87   89 am   BACKBONE|DICT|INTERRES
   175   89   90 1    
   176   89  210 1    
   177   90   91 1    
   178   90   92 1    
   179   90  211 1    
   180   91  212 1    
   181   91  213 1    
   182   91  214 1    
   183   92   93 2    
   184   92   94 am   BACKBONE|DICT|INTERRES
   185   94   95 1    
   186   94  215 1    
   187   95   96 1    
   188   95   97 1    
   189   95  216 1    
   190   96  217 1    
   191   96  218 1    
   192   96  219 1    
   193   97   98 2    
   194   97   99 am   BACKBONE|DICT|INTERRES
   195   99  100 1    
   196   99  220 1    
   197  100  101 1    
   198  100  102 1    
   199  100  221 1    
   200  101  222 1    
   201  101  223 1    
   202  101  224 1    
   203  102  103 2    
   204  102  104 am   BACKBONE|DICT|INTERRES
   205  104  105 1    
   206  104  225 1    
   207  105  106 1    
   208  105  107 1    
   209  105  226 1    
   210  106  227 1    
   211  106  228 1    
   212  106  229 1    
   213  107  108 2    
   214  107  109 am   BACKBONE|DICT|INTERRES
   215  109  110 1    
   216  109  230 1    
   217  110  111 1    
   218  110  112 1    
   219  110  231 1    
   220  111  232 1    
   221  111  233 1    
   222  111  234 1    
   223  112  113 2    
   224  112  114 am   BACKBONE|DICT|INTERRES
   225  114  115 1    
   226  114  235 1    
   227  115  116 1    
   228  115  117 1    
   229  115  236 1    
   230  116  237 1    
   231  116  238 1    
   232  116  239 1    
   233  117  118 2    
   234  117  119 am   BACKBONE|DICT|INTERRES
   235  119  120 1    
   236  119  240 1    
   237  120  121 1    
   238  120  124 1    
   239  120  241 1    
   240  121  122 am   BACKBONE|DICT|INTERRES
   241  121  123 2    
   242  122  242 1    
   243  122  243 1    
   244  124  125 1    
   245  124  244 1    
   246  124  245 1    
   247  125  126 1    
   248  126  246 1    
   249  126  247 1    
@<TRIPOS>SUBSTRUCTURE
     1 UNK         1 GROUP             0       ****    0 ROOT    
