@<TRIPOS>MOLECULE
3R540
247   249    1
SMALL
USER_CHARGES


@<TRIPOS>ATOM
      1 CA         -0.0756   -9.8023  -52.5830 C.3       0 UNK        -0.1800 
      2 C           0.0360  -11.1379  -51.8610 C.2       0 UNK         0.5000 
      3 O           1.0749  -11.7938  -51.9440 O.2       0 UNK        -0.5000 
      4 N          -1.0308  -11.5447  -51.1625 N.am      1 UNK        -0.5000 
      5 CA         -1.0963  -12.7737  -50.3664 C.3       1 UNK         0.1400 
      6 C6         -2.5514  -13.1114  -49.9560 C.3       23 UNK        -0.0398 
      7 S7         -3.4931  -13.7602  -51.3793 S.3       23 UNK        -0.2404 
      8 C8         -3.6127  -15.5397  -50.9882 C.3       23 UNK        -0.0205 
      9 C9         -2.2685  -16.1586  -50.6221 C.ar      23 UNK        -0.0193 
     10 C10        -1.2366  -16.2385  -51.5629 C.ar      23 UNK        -0.1150 
     11 C11         0.0111  -16.7628  -51.2093 C.ar      23 UNK        -0.0193 
     12 C12         0.2164  -17.2178  -49.9041 C.ar      23 UNK        -0.1150 
     13 C13        -0.8171  -17.1770  -48.9649 C.ar      23 UNK        -0.0193 
     14 C14        -2.0524  -16.6362  -49.3268 C.ar      23 UNK        -0.1150 
     15 C15        -0.5998  -17.7131  -47.5586 C.3       23 UNK        -0.0205 
     16 S16        -1.6103  -19.1902  -47.2224 S.3       23 UNK        -0.2404 
     17 C17        -0.9594  -20.3662  -48.4508 C.3       23 UNK        -0.0398 
     18 CA         -0.7873  -21.8220  -47.9648 C.3       11 UNK         0.1400 
     19 N           0.2597  -21.9710  -46.9499 N.am      11 UNK        -0.5000 
     20 C           0.8560  -23.1420  -46.6834 C.2       10 UNK         0.5000 
     21 O           0.5760  -24.1934  -47.2579 O.2       10 UNK        -0.5000 
     22 CA          1.9070  -23.1585  -45.5635 C.3       10 UNK         0.1400 
     23 CB          3.2391  -22.5616  -46.0436 C.3       10 UNK        -0.1800 
     24 N           1.4490  -22.4610  -44.3642 N.am      10 UNK        -0.5000 
     25 C           0.4614  -22.8902  -43.5668 C.2       9 UNK         0.5000 
     26 O          -0.1856  -23.9173  -43.7699 O.2       9 UNK        -0.5000 
     27 CA          0.1260  -22.0097  -42.3506 C.3       9 UNK         0.1400 
     28 CB          1.0646  -22.3249  -41.1768 C.3       9 UNK        -0.1800 
     29 N           0.2003  -20.5830  -42.6609 N.am      9 UNK        -0.5000 
     30 C          -0.6757  -19.9450  -43.4511 C.2       8 UNK         0.5000 
     31 O          -1.6459  -20.4907  -43.9728 O.2       8 UNK        -0.5000 
     32 CA         -0.4005  -18.4560  -43.7314 C.3       8 UNK         0.1400 
     33 CB         -0.9206  -17.6130  -42.5582 C.3       8 UNK        -0.1800 
     34 N           1.0158  -18.1535  -43.9519 N.am      8 UNK        -0.5000 
     35 C           1.8358  -18.7924  -44.8034 C.2       7 UNK         0.5000 
     36 O           1.4543  -19.6383  -45.6120 O.2       7 UNK        -0.5000 
     37 CA          3.3462  -18.4922  -44.7077 C.3       7 UNK         0.1400 
     38 CB          3.7866  -17.6046  -45.8790 C.3       7 UNK        -0.1800 
     39 N           3.7568  -17.8557  -43.4546 N.am      7 UNK        -0.5000 
     40 C           3.5764  -18.3391  -42.2162 C.2       6 UNK         0.5000 
     41 O           3.1270  -19.4620  -41.9808 O.2       6 UNK        -0.5000 
     42 CA          3.8853  -17.3794  -41.0462 C.3       6 UNK         0.1400 
     43 CB          5.2227  -17.7508  -40.3884 C.3       6 UNK        -0.1800 
     44 N           3.9145  -15.9563  -41.4170 N.am      6 UNK        -0.5000 
     45 C           2.8950  -15.2622  -41.9454 C.2       5 UNK         0.5000 
     46 O           1.7885  -15.7560  -42.1754 O.2       5 UNK        -0.5000 
     47 CA          3.1931  -13.7981  -42.3168 C.3       5 UNK         0.1400 
     48 CB          4.2990  -13.7198  -43.3855 C.3       5 UNK        -0.1800 
     49 N           1.9994  -13.1524  -42.8574 N.am      5 UNK        -0.5000 
     50 C           1.2730  -12.2088  -42.2441 C.2       4 UNK         0.5000 
     51 O           1.5459  -11.7546  -41.1319 O.2       4 UNK        -0.5000 
     52 CA          0.0432  -11.6551  -42.9976 C.3       4 UNK         0.1400 
     53 CB          0.3560  -10.2716  -43.5892 C.3       4 UNK        -0.1800 
     54 N          -0.4118  -12.5315  -44.0774 N.am      4 UNK        -0.5000 
     55 C          -1.0907  -13.6718  -43.8981 C.2       3 UNK         0.5000 
     56 O          -1.5401  -14.0248  -42.8080 O.2       3 UNK        -0.5000 
     57 CA         -1.2969  -14.5783  -45.1319 C.3       3 UNK         0.1400 
     58 CB         -2.7751  -14.6144  -45.5493 C.3       3 UNK        -0.1800 
     59 N          -0.4894  -14.2272  -46.3049 N.am      3 UNK        -0.5000 
     60 C           0.8478  -14.2681  -46.3872 C.2       2 UNK         0.5000 
     61 O           1.5688  -14.5662  -45.4360 O.2       2 UNK        -0.5000 
     62 CA          1.4894  -13.9117  -47.7449 C.3       2 UNK         0.1400 
     63 CB          2.5537  -14.9458  -48.1456 C.3       2 UNK        -0.1800 
     64 N           0.5178  -13.7925  -48.8365 N.am      2 UNK        -0.5000 
     65 C          -0.1779  -12.6872  -49.1316 C.2       1 UNK         0.5000 
     66 O          -0.1397  -11.6535  -48.4607 O.2       1 UNK        -0.5000 
     67 C          -2.1132  -22.4939  -47.5473 C.2       11 UNK         0.5000 
     68 O          -2.8188  -23.0287  -48.4088 O.2       11 UNK        -0.5000 
     69 N          -2.4050  -22.5090  -46.2366 N.am      12 UNK        -0.5000 
     70 CA         -3.5223  -23.2500  -45.6555 C.3       12 UNK         0.1400 
     71 CB         -3.7129  -22.8807  -44.1783 C.3       12 UNK        -0.1800 
     72 C          -3.3611  -24.7694  -45.8277 C.2       12 UNK         0.5000 
     73 O          -4.3014  -25.4302  -46.2707 O.2       12 UNK        -0.5000 
     74 N          -2.1614  -25.2833  -45.5215 N.am      13 UNK        -0.5000 
     75 CA         -1.7912  -26.6872  -45.7036 C.3       13 UNK         0.1400 
     76 CB         -0.4269  -26.9472  -45.0474 C.3       13 UNK        -0.1800 
     77 C          -1.7758  -27.1257  -47.1802 C.2       13 UNK         0.5000 
     78 O          -2.1167  -28.2741  -47.4663 O.2       13 UNK        -0.5000 
     79 N          -1.3904  -26.2115  -48.0830 N.am      14 UNK        -0.5000 
     80 CA         -1.3657  -26.4237  -49.5286 C.3       14 UNK         0.1400 
     81 CB         -0.6514  -25.2540  -50.2246 C.3       14 UNK        -0.1800 
     82 C          -2.7688  -26.6563  -50.1156 C.2       14 UNK         0.5000 
     83 O          -3.0060  -27.7226  -50.6855 O.2       14 UNK        -0.5000 
     84 N          -3.6703  -25.6752  -49.9594 N.am      15 UNK        -0.5000 
     85 CA         -5.0401  -25.7355  -50.4793 C.3       15 UNK         0.1400 
     86 CB         -5.0583  -25.7186  -52.0271 C.3       15 UNK        -0.1800 
     87 C          -5.9190  -24.6268  -49.8766 C.2       15 UNK         0.5000 
     88 O          -6.5927  -23.9102  -50.6177 O.2       15 UNK        -0.5000 
     89 N          -5.8997  -24.4822  -48.5423 N.am      16 UNK        -0.5000 
     90 CA         -6.7517  -23.5698  -47.7592 C.3       16 UNK         0.1400 
     91 CB         -8.2239  -24.0290  -47.8280 C.3       16 UNK        -0.1800 
     92 C          -6.5894  -22.0745  -48.1261 C.2       16 UNK         0.5000 
     93 O          -7.5225  -21.2947  -47.9314 O.2       16 UNK        -0.5000 
     94 N          -5.4219  -21.7150  -48.6844 N.am      17 UNK        -0.5000 
     95 CA         -5.0538  -20.4194  -49.2713 C.3       17 UNK         0.1400 
     96 CB         -5.0976  -19.3023  -48.2098 C.3       17 UNK        -0.1800 
     97 C          -5.8525  -20.0334  -50.5392 C.2       17 UNK         0.5000 
     98 O          -5.6639  -18.9275  -51.0503 O.2       17 UNK        -0.5000 
     99 N          -6.7171  -20.9289  -51.0377 N.am      18 UNK        -0.5000 
    100 CA        -7.6449  -20.6774  -52.1371 C.3       18 UNK         0.1400 
    101 CB        -8.6732  -21.8166  -52.2061 C.3       18 UNK        -0.1800 
    102 C         -6.9159  -20.5206  -53.4798 C.2       18 UNK         0.5000 
    103 O         -6.0567  -21.3415  -53.8072 O.2       18 UNK        -0.5000 
    104 N         -7.2849  -19.4678  -54.2241 N.am      19 UNK        -0.5000 
    105 CA        -6.7647  -19.0926  -55.5456 C.3       19 UNK         0.1400 
    106 CB        -7.2289  -20.1086  -56.6108 C.3       19 UNK        -0.1800 
    107 C         -5.2373  -18.8569  -55.5676 C.2       19 UNK         0.5000 
    108 O         -4.5957  -19.1177  -56.5866 O.2       19 UNK        -0.5000 
    109 N         -4.6944  -18.3701  -54.4389 N.am      20 UNK        -0.5000 
    110 CA        -3.2696  -18.1817  -54.1509 C.3       20 UNK         0.1400 
    111 CB        -2.6538  -17.0885  -55.0491 C.3       20 UNK        -0.1800 
    112 C         -2.5079  -19.5200  -54.1978 C.2       20 UNK         0.5000 
    113 O         -1.6961  -19.7522  -55.0951 O.2       20 UNK        -0.5000 
    114 N         -2.8253  -20.3921  -53.2303 N.am      21 UNK        -0.5000 
    115 CA        -2.2324  -21.7232  -53.0734 C.3       21 UNK         0.1400 
    116 CB        -2.9777  -22.4748  -51.9593 C.3       21 UNK        -0.1800 
    117 C         -0.7231  -21.6836  -52.7636 C.2       21 UNK         0.5000 
    118 O          0.0160  -22.5514  -53.2268 O.2       21 UNK        -0.5000 
    119 N         -0.3159  -20.6820  -51.9735 N.am      22 UNK        -0.5000 
    120 CA         1.0533  -20.2967  -51.5763 C.3       22 UNK         0.1400 
    121 C          1.9461  -21.3647  -50.8730 C.2       22 UNK         0.5000 
    122 N          1.6150  -22.6460  -50.8994 N.am      22 UNK        -0.7600 
    123 O          2.9446  -21.0099  -50.2542 O.2       22 UNK        -0.5000 
    124 C124        1.8302  -19.5536  -52.6937 C.3       23 UNK        -0.0398 
    125 S125        0.9167  -18.1543  -53.4388 S.3       23 UNK        -0.2404 
    126 C126        1.1401  -16.8086  -52.2306 C.3       23 UNK        -0.0205 
    127 H127        0.6879   -9.1146  -52.2196 H         1 UNK         0.0600 
    128 H128       -1.0508   -9.3390  -52.4308 H         1 UNK         0.0600 
    129 H129        0.0710   -9.9414  -53.6541 H         1 UNK         0.0600 
    130 H130       -1.8502  -10.9560  -51.1254 H         1 UNK         0.3000 
    131 H131       -0.7153  -13.5810  -50.9944 H         1 UNK         0.0600 
    132 H132       -3.0595  -12.2263  -49.5697 H         1 UNK         0.0800 
    133 H133       -2.5853  -13.8422  -49.1469 H         1 UNK         0.0800 
    134 H134       -4.0333  -16.0612  -51.8476 H         1 UNK         0.0800 
    135 H135       -4.3301  -15.6718  -50.1767 H         1 UNK         0.0800 
    136 H136       -1.3976  -15.8675  -52.5651 H         1 UNK         0.1150 
    137 H137        1.1807  -17.6165  -49.6219 H         1 UNK         0.1150 
    138 H138       -2.8464  -16.5919  -48.5947 H         1 UNK         0.1150 
    139 H139        0.4520  -17.9446  -47.3898 H         1 UNK         0.0800 
    140 H140       -0.8636  -16.9425  -46.8372 H         1 UNK         0.0800 
    141 H141       -1.6052  -20.3323  -49.3282 H         1 UNK         0.0800 
    142 H142        0.0133  -20.0050  -48.7788 H         1 UNK         0.0800 
    143 H143       -0.4437  -22.3772  -48.8397 H         1 UNK         0.0600 
    144 H144        0.5435  -21.1357  -46.4431 H         1 UNK         0.3000 
    145 H145        2.0866  -24.2015  -45.2937 H         1 UNK         0.0600 
    146 H146        3.9962  -22.6032  -45.2605 H         1 UNK         0.0600 
    147 H147        3.1341  -21.5224  -46.3550 H         1 UNK         0.0600 
    148 H148        3.6251  -23.1174  -46.8990 H         1 UNK         0.0600 
    149 H149        1.8788  -21.5703  -44.1633 H         1 UNK         0.3000 
    150 H150       -0.8953  -22.2418  -42.0410 H         1 UNK         0.0600 
    151 H151        1.0147  -23.3814  -40.9101 H         1 UNK         0.0600 
    152 H152        0.7924  -21.7524  -40.2900 H         1 UNK         0.0600 
    153 H153        2.1034  -22.0949  -41.4177 H         1 UNK         0.0600 
    154 H154        1.0000  -20.0758  -42.3011 H         1 UNK         0.3000 
    155 H155       -0.9469  -18.1684  -44.6283 H         1 UNK         0.0600 
    156 H156       -1.9919  -17.7590  -42.4149 H         1 UNK         0.0600 
    157 H157       -0.7572  -16.5511  -42.7268 H         1 UNK         0.0600 
    158 H158       -0.4229  -17.8736  -41.6232 H         1 UNK         0.0600 
    159 H159        1.4117  -17.4382  -43.3509 H         1 UNK         0.3000 
    160 H160        3.8695  -19.4474  -44.7810 H         1 UNK         0.0600 
    161 H161        3.3356  -16.6152  -45.8111 H         1 UNK         0.0600 
    162 H162        3.4925  -18.0378  -46.8362 H         1 UNK         0.0600 
    163 H163        4.8694  -17.4805  -45.8974 H         1 UNK         0.0600 
    164 H164        4.1236  -16.9195  -43.5350 H         1 UNK         0.3000 
    165 H165        3.0917  -17.5103  -40.3079 H         1 UNK         0.0600 
    166 H166        5.4088  -17.1448  -39.5015 H         1 UNK         0.0600 
    167 H167        5.2269  -18.7949  -40.0723 H         1 UNK         0.0600 
    168 H168        6.0599  -17.6119  -41.0735 H         1 UNK         0.0600 
    169 H169        4.7915  -15.4802  -41.2611 H         1 UNK         0.3000 
    170 H170        3.5364  -13.2850  -41.4165 H         1 UNK         0.0600 
    171 H171        4.0379  -14.2874  -44.2797 H         1 UNK         0.0600 
    172 H172        4.4775  -12.6880  -43.6890 H         1 UNK         0.0600 
    173 H173        5.2462  -14.1101  -43.0124 H         1 UNK         0.0600 
    174 H174        1.6674  -13.5395  -43.7354 H         1 UNK         0.3000 
    175 H175       -0.7652  -11.5415  -42.2722 H         1 UNK         0.0600 
    176 H176        1.1576  -10.3216  -44.3272 H         1 UNK         0.0600 
    177 H177       -0.5211   -9.8420  -44.0736 H         1 UNK         0.0600 
    178 H178        0.6694   -9.5749  -42.8106 H         1 UNK         0.0600 
    179 H179       -0.0953  -12.3071  -45.0090 H         1 UNK         0.3000 
    180 H180       -1.0056  -15.5852  -44.8316 H         1 UNK         0.0600 
    181 H181       -3.1186  -13.6384  -45.8941 H         1 UNK         0.0600 
    182 H182       -3.4113  -14.9109  -44.7143 H         1 UNK         0.0600 
    183 H183       -2.9424  -15.3337  -46.3512 H         1 UNK         0.0600 
    184 H184       -0.9968  -13.9433  -47.1281 H         1 UNK         0.3000 
    185 H185        1.9925  -12.9509  -47.6174 H         1 UNK         0.0600 
    186 H186        2.1571  -15.9607  -48.1327 H         1 UNK         0.0600 
    187 H187        2.9459  -14.7487  -49.1436 H         1 UNK         0.0600 
    188 H188        3.4002  -14.9146  -47.4591 H         1 UNK         0.0600 
    189 H189        0.4074  -14.6109  -49.4192 H         1 UNK         0.3000 
    190 H190       -1.8134  -21.9972  -45.5926 H         1 UNK         0.3000 
    191 H191       -4.4193  -22.9408  -46.1869 H         1 UNK         0.0600 
    192 H192       -3.9611  -21.8252  -44.0677 H         1 UNK         0.0600 
    193 H193       -2.8163  -23.0794  -43.5914 H         1 UNK         0.0600 
    194 H194       -4.5296  -23.4514  -43.7346 H         1 UNK         0.0600 
    195 H195       -1.4497  -24.6777  -45.1242 H         1 UNK         0.3000 
    196 H196       -2.5365  -27.2965  -45.1880 H         1 UNK         0.0600 
    197 H197       -0.4556  -26.7290  -43.9797 H         1 UNK         0.0600 
    198 H198        0.3571  -26.3340  -45.4929 H         1 UNK         0.0600 
    199 H199       -0.1314  -27.9912  -45.1579 H         1 UNK         0.0600 
    200 H200       -1.0349  -25.3231  -47.7468 H         1 UNK         0.3000 
    201 H201       -0.7776  -27.3245  -49.7162 H         1 UNK         0.0600 
    202 H202        0.3761  -25.1595  -49.8738 H         1 UNK         0.0600 
    203 H203       -1.1529  -24.3045  -50.0464 H         1 UNK         0.0600 
    204 H204       -0.6132  -25.4057  -51.3040 H         1 UNK         0.0600 
    205 H205       -3.4083  -24.8333  -49.4570 H         1 UNK         0.3000 
    206 H206       -5.4824  -26.6777  -50.1498 H         1 UNK         0.0600 
    207 H207       -4.5267  -26.5675  -52.4548 H         1 UNK         0.0600 
    208 H208       -4.6101  -24.8106  -52.4269 H         1 UNK         0.0600 
    209 H209       -6.0796  -25.7704  -52.4065 H         1 UNK         0.0600 
    210 H210       -5.2938  -25.0803  -47.9879 H         1 UNK         0.3000 
    211 H211       -6.4449  -23.6698  -46.7191 H         1 UNK         0.0600 
    212 H212       -8.6461  -23.8909  -48.8240 H         1 UNK         0.0600 
    213 H213       -8.8444  -23.4656  -47.1301 H         1 UNK         0.0600 
    214 H214       -8.3210  -25.0824  -47.5654 H         1 UNK         0.0600 
    215 H215       -4.7062  -22.4302  -48.7637 H         1 UNK         0.3000 
    216 H216       -4.0169  -20.5225  -49.5885 H         1 UNK         0.0600 
    217 H217       -4.6118  -18.3979  -48.5770 H         1 UNK         0.0600 
    218 H218       -4.5809  -19.6019  -47.2982 H         1 UNK         0.0600 
    219 H219       -6.1200  -19.0355  -47.9418 H         1 UNK         0.0600 
    220 H220       -6.7433  -21.8614  -50.6393 H         1 UNK         0.3000 
    221 H221       -8.1800  -19.7528  -51.9107 H         1 UNK         0.0600 
    222 H222       -8.2025  -22.7681  -52.4562 H         1 UNK         0.0600 
    223 H223       -9.1923  -21.9397  -51.2552 H         1 UNK         0.0600 
    224 H224       -9.4276  -21.6151  -52.9674 H         1 UNK         0.0600 
    225 H225       -7.9928  -18.8491  -53.8527 H         1 UNK         0.3000 
    226 H226       -7.2183  -18.1312  -55.7906 H         1 UNK         0.0600 
    227 H227       -8.3101  -20.2437  -56.5825 H         1 UNK         0.0600 
    228 H228       -6.9731  -19.7697  -57.6154 H         1 UNK         0.0600 
    229 H229       -6.7651  -21.0849  -56.4667 H         1 UNK         0.0600 
    230 H230       -5.3176  -18.2190  -53.6571 H         1 UNK         0.3000 
    231 H231       -3.2042  -17.8300  -53.1216 H         1 UNK         0.0600 
    232 H232       -1.6092  -16.9165  -54.7887 H         1 UNK         0.0600 
    233 H233       -3.1786  -16.1408  -54.9297 H         1 UNK         0.0600 
    234 H234       -2.6814  -17.3576  -56.1050 H         1 UNK         0.0600 
    235 H235       -3.5612  -20.1456  -52.5856 H         1 UNK         0.3000 
    236 H236       -2.3727  -22.2646  -54.0112 H         1 UNK         0.0600 
    237 H237       -2.8161  -22.0177  -50.9838 H         1 UNK         0.0600 
    238 H238       -4.0519  -22.4992  -52.1445 H         1 UNK         0.0600 
    239 H239       -2.6340  -23.5073  -51.8942 H         1 UNK         0.0600 
    240 H240       -1.0274  -20.0282  -51.6856 H         1 UNK         0.3000 
    241 H241        0.8916  -19.5661  -50.7932 H         1 UNK         0.0600 
    242 H242        2.1968  -23.3229  -50.4338 H         1 UNK         0.3800 
    243 H243        0.8889  -22.9436  -51.5402 H         1 UNK         0.3800 
    244 H244        2.0739  -20.2527  -53.4950 H         1 UNK         0.0800 
    245 H245        2.7849  -19.1791  -52.3204 H         1 UNK         0.0800 
    246 H246        1.1651  -15.8604  -52.7697 H         1 UNK         0.0800 
    247 H247        2.1100  -16.9004  -51.7397 H         1 UNK         0.0800 
@<TRIPOS>BOND
     1    1    2 1    
     2    1  127 1    
     3    1  128 1    
     4    1  129 1    
     5    2    3 2    
     6    2    4 am   BACKBONE|DICT|INTERRES
     7    4    5 1    
     8    4  130 1    
     9    5    6 1    
    10    5   65 1    
    11    5  131 1    
    12    6    7 1    
    13    6  132 1    
    14    6  133 1    
    15    7    8 1    
    16    8    9 1    
    17    8  134 1    
    18    8  135 1    
    19    9   10 ar   
    20    9   14 ar   
    21   10   11 ar   
    22   10  136 1    
    23   11   12 ar   
    24   11  126 1    
    25   12   13 ar   
    26   12  137 1    
    27   13   14 ar   
    28   13   15 1    
    29   14  138 1    
    30   15   16 1    
    31   15  139 1    
    32   15  140 1    
    33   16   17 1    
    34   17   18 1    
    35   17  141 1    
    36   17  142 1    
    37   18   19 1    
    38   18   67 1    
    39   18  143 1    
    40   19   20 am   BACKBONE|DICT|INTERRES
    41   19  144 1    
    42   20   21 2    
    43   20   22 1    
    44   22   23 1    
    45   22   24 1    
    46   22  145 1    
    47   23  146 1    
    48   23  147 1    
    49   23  148 1    
    50   24   25 am   BACKBONE|DICT|INTERRES
    51   24  149 1    
    52   25   26 2    
    53   25   27 1    
    54   27   28 1    
    55   27   29 1    
    56   27  150 1    
    57   28  151 1    
    58   28  152 1    
    59   28  153 1    
    60   29   30 am   BACKBONE|DICT|INTERRES
    61   29  154 1    
    62   30   31 2    
    63   30   32 1    
    64   32   33 1    
    65   32   34 1    
    66   32  155 1    
    67   33  156 1    
    68   33  157 1    
    69   33  158 1    
    70   34   35 am   BACKBONE|DICT|INTERRES
    71   34  159 1    
    72   35   36 2    
    73   35   37 1    
    74   37   38 1    
    75   37   39 1    
    76   37  160 1    
    77   38  161 1    
    78   38  162 1    
    79   38  163 1    
    80   39   40 am   BACKBONE|DICT|INTERRES
    81   39  164 1    
    82   40   41 2    
    83   40   42 1    
    84   42   43 1    
    85   42   44 1    
    86   42  165 1    
    87   43  166 1    
    88   43  167 1    
    89   43  168 1    
    90   44   45 am   BACKBONE|DICT|INTERRES
    91   44  169 1    
    92   45   46 2    
    93   45   47 1    
    94   47   48 1    
    95   47   49 1    
    96   47  170 1    
    97   48  171 1    
    98   48  172 1    
    99   48  173 1    
   100   49   50 am   BACKBONE|DICT|INTERRES
   101   49  174 1    
   102   50   51 2    
   103   50   52 1    
   104   52   53 1    
   105   52   54 1    
   106   52  175 1    
   107   53  176 1    
   108   53  177 1    
   109   53  178 1    
   110   54   55 am   BACKBONE|DICT|INTERRES
   111   54  179 1    
   112   55   56 2    
   113   55   57 1    
   114   57   58 1    
   115   57   59 1    
   116   57  180 1    
   117   58  181 1    
   118   58  182 1    
   119   58  183 1    
   120   59   60 am   BACKBONE|DICT|INTERRES
   121   59  184 1    
   122   60   61 2    
   123   60   62 1    
   124   62   63 1    
   125   62   64 1    
   126   62  185 1    
   127   63  186 1    
   128   63  187 1    
   129   63  188 1    
   130   64   65 am   BACKBONE|DICT|INTERRES
   131   64  189 1    
   132   65   66 2    
   133   67   68 2    
   134   67   69 am   BACKBONE|DICT|INTERRES
   135   69   70 1    
   136   69  190 1    
   137   70   71 1    
   138   70   72 1    
   139   70  191 1    
   140   71  192 1    
   141   71  193 1    
   142   71  194 1    
   143   72   73 2    
   144   72   74 am   BACKBONE|DICT|INTERRES
   145   74   75 1    
   146   74  195 1    
   147   75   76 1    
   148   75   77 1    
   149   75  196 1    
   150   76  197 1    
   151   76  198 1    
   152   76  199 1    
   153   77   78 2    
   154   77   79 am   BACKBONE|DICT|INTERRES
   155   79   80 1    
   156   79  200 1    
   157   80   81 1    
   158   80   82 1    
   159   80  201 1    
   160   81  202 1    
   161   81  203 1    
   162   81  204 1    
   163   82   83 2    
   164   82   84 am   BACKBONE|DICT|INTERRES
   165   84   85 1    
   166   84  205 1    
   167   85   86 1    
   168   85   87 1    
   169   85  206 1    
   170   86  207 1    
   171   86  208 1    
   172   86  209 1    
   173   87   88 2    
   174   87   89 am   BACKBONE|DICT|INTERRES
   175   89   90 1    
   176   89  210 1    
   177   90   91 1    
   178   90   92 1    
   179   90  211 1    
   180   91  212 1    
   181   91  213 1    
   182   91  214 1    
   183   92   93 2    
   184   92   94 am   BACKBONE|DICT|INTERRES
   185   94   95 1    
   186   94  215 1    
   187   95   96 1    
   188   95   97 1    
   189   95  216 1    
   190   96  217 1    
   191   96  218 1    
   192   96  219 1    
   193   97   98 2    
   194   97   99 am   BACKBONE|DICT|INTERRES
   195   99  100 1    
   196   99  220 1    
   197  100  101 1    
   198  100  102 1    
   199  100  221 1    
   200  101  222 1    
   201  101  223 1    
   202  101  224 1    
   203  102  103 2    
   204  102  104 am   BACKBONE|DICT|INTERRES
   205  104  105 1    
   206  104  225 1    
   207  105  106 1    
   208  105  107 1    
   209  105  226 1    
   210  106  227 1    
   211  106  228 1    
   212  106  229 1    
   213  107  108 2    
   214  107  109 am   BACKBONE|DICT|INTERRES
   215  109  110 1    
   216  109  230 1    
   217  110  111 1    
   218  110  112 1    
   219  110  231 1    
   220  111  232 1    
   221  111  233 1    
   222  111  234 1    
   223  112  113 2    
   224  112  114 am   BACKBONE|DICT|INTERRES
   225  114  115 1    
   226  114  235 1    
   227  115  116 1    
   228  115  117 1    
   229  115  236 1    
   230  116  237 1    
   231  116  238 1    
   232  116  239 1    
   233  117  118 2    
   234  117  119 am   BACKBONE|DICT|INTERRES
   235  119  120 1    
   236  119  240 1    
   237  120  121 1    
   238  120  124 1    
   239  120  241 1    
   240  121  122 am   BACKBONE|DICT|INTERRES
   241  121  123 2    
   242  122  242 1    
   243  122  243 1    
   244  124  125 1    
   245  124  244 1    
   246  124  245 1    
   247  125  126 1    
   248  126  246 1    
   249  126  247 1    
@<TRIPOS>SUBSTRUCTURE
     1 UNK         1 GROUP             0       ****    0 ROOT    
