@<TRIPOS>MOLECULE
3R540
247   249    1
SMALL
USER_CHARGES


@<TRIPOS>ATOM
      1 CA         -0.1906  -18.6604  -50.0917 C.3       0 UNK        -0.1800 
      2 C          -0.6562  -17.2753  -49.6752 C.2       0 UNK         0.5000 
      3 O          -1.8179  -16.9276  -49.8819 O.2       0 UNK        -0.5000 
      4 N           0.2427  -16.4695  -49.1019 N.am      1 UNK        -0.5000 
      5 CA         -0.0100  -15.0905  -48.6687 C.3       1 UNK         0.1400 
      6 C6          1.2980  -14.2638  -48.6026 C.3       23 UNK        -0.0398 
      7 S7          2.1596  -14.1575  -50.2057 S.3       23 UNK        -0.2404 
      8 C8          3.6272  -15.2085  -49.9292 C.3       23 UNK        -0.0205 
      9 C9          3.4147  -16.6715  -50.3072 C.ar      23 UNK        -0.0193 
     10 C10         2.9518  -17.0033  -51.5844 C.ar      23 UNK        -0.1150 
     11 C11         2.8621  -18.3364  -51.9930 C.ar      23 UNK        -0.0193 
     12 C12         3.2599  -19.3450  -51.1098 C.ar      23 UNK        -0.1150 
     13 C13         3.7061  -19.0365  -49.8205 C.ar      23 UNK        -0.0193 
     14 C14         3.7713  -17.6957  -49.4216 C.ar      23 UNK        -0.1150 
     15 C15         4.2070  -20.1458  -48.9005 C.3       23 UNK        -0.0205 
     16 S16         3.0184  -21.5165  -48.6995 S.3       23 UNK        -0.2404 
     17 C17         2.0777  -20.9672  -47.2425 C.3       23 UNK        -0.0398 
     18 CA          1.0649  -22.0341  -46.7520 C.3       11 UNK         0.1400 
     19 N           0.8021  -21.9291  -45.3126 N.am      11 UNK        -0.5000 
     20 C           0.0739  -22.7973  -44.5946 C.2       10 UNK         0.5000 
     21 O          -0.3928  -23.8391  -45.0535 O.2       10 UNK        -0.5000 
     22 CA         -0.2392  -22.4083  -43.1360 C.3       10 UNK         0.1400 
     23 CB          0.8927  -22.8345  -42.1902 C.3       10 UNK        -0.1800 
     24 N          -0.5049  -20.9761  -42.9853 N.am      10 UNK        -0.5000 
     25 C          -1.5473  -20.3427  -43.5436 C.2       9 UNK         0.5000 
     26 O          -2.4379  -20.9183  -44.1668 O.2       9 UNK        -0.5000 
     27 CA         -1.5635  -18.8073  -43.4515 C.3       9 UNK         0.1400 
     28 CB         -2.1054  -18.3412  -42.0926 C.3       9 UNK        -0.1800 
     29 N          -0.2387  -18.2320  -43.6898 N.am      9 UNK        -0.5000 
     30 C           0.4385  -18.3156  -44.8436 C.2       8 UNK         0.5000 
     31 O          -0.0411  -18.7791  -45.8772 O.2       8 UNK        -0.5000 
     32 CA          1.9198  -17.8895  -44.8250 C.3       8 UNK         0.1400 
     33 CB          2.1001  -16.4119  -45.1763 C.3       8 UNK        -0.1800 
     34 N           2.5509  -18.1547  -43.5352 N.am      8 UNK        -0.5000 
     35 C           2.9542  -19.3659  -43.1329 C.2       7 UNK         0.5000 
     36 O           2.8566  -20.3772  -43.8262 O.2       7 UNK        -0.5000 
     37 CA          3.5279  -19.4654  -41.7073 C.3       7 UNK         0.1400 
     38 CB          5.0331  -19.1611  -41.7098 C.3       7 UNK        -0.1800 
     39 N           2.8533  -18.5644  -40.7706 N.am      7 UNK        -0.5000 
     40 C           1.5814  -18.7077  -40.3725 C.2       6 UNK         0.5000 
     41 O           0.8665  -19.6502  -40.7123 O.2       6 UNK        -0.5000 
     42 CA          0.9980  -17.5813  -39.4959 C.3       6 UNK         0.1400 
     43 CB          1.2896  -17.8468  -38.0117 C.3       6 UNK        -0.1800 
     44 N           1.4940  -16.2487  -39.8601 N.am      6 UNK        -0.5000 
     45 C           1.2842  -15.6612  -41.0454 C.2       5 UNK         0.5000 
     46 O           0.6385  -16.1801  -41.9575 O.2       5 UNK        -0.5000 
     47 CA          1.9622  -14.3063  -41.2778 C.3       5 UNK         0.1400 
     48 CB          3.4750  -14.5103  -41.5045 C.3       5 UNK        -0.1800 
     49 N           1.3574  -13.6693  -42.4461 N.am      5 UNK        -0.5000 
     50 C           1.5540  -12.4048  -42.8336 C.2       4 UNK         0.5000 
     51 O           2.2304  -11.5932  -42.1998 O.2       4 UNK        -0.5000 
     52 CA          0.9027  -11.9671  -44.1573 C.3       4 UNK         0.1400 
     53 CB          1.8211  -12.3052  -45.3418 C.3       4 UNK        -0.1800 
     54 N          -0.4295  -12.5342  -44.3886 N.am      4 UNK        -0.5000 
     55 C          -1.5343  -12.1179  -43.7514 C.2       3 UNK         0.5000 
     56 O          -1.5069  -11.3142  -42.8178 O.2       3 UNK        -0.5000 
     57 CA         -2.9060  -12.6209  -44.2484 C.3       3 UNK         0.1400 
     58 CB         -3.7121  -11.4576  -44.8505 C.3       3 UNK        -0.1800 
     59 N          -2.8192  -13.6799  -45.2548 N.am      3 UNK        -0.5000 
     60 C          -2.8952  -14.9886  -44.9868 C.2       2 UNK         0.5000 
     61 O          -3.0296  -15.4440  -43.8516 O.2       2 UNK        -0.5000 
     62 CA         -2.8329  -15.9629  -46.1826 C.3       2 UNK         0.1400 
     63 CB         -4.2561  -16.2657  -46.6774 C.3       2 UNK        -0.1800 
     64 N          -2.0131  -15.5736  -47.3358 N.am      2 UNK        -0.5000 
     65 C          -0.7690  -15.0792  -47.3231 C.2       1 UNK         0.5000 
     66 O          -0.2131  -14.6597  -46.3097 O.2       1 UNK        -0.5000 
     67 C          -0.2425  -22.0053  -47.5725 C.2       11 UNK         0.5000 
     68 O          -0.4467  -22.8711  -48.4220 O.2       11 UNK        -0.5000 
     69 N          -1.1313  -21.0514  -47.2611 N.am      12 UNK        -0.5000 
     70 CA         -2.4629  -20.9332  -47.8544 C.3       12 UNK         0.1400 
     71 CB         -3.1086  -19.6134  -47.4147 C.3       12 UNK        -0.1800 
     72 C          -3.3725  -22.1338  -47.5407 C.2       12 UNK         0.5000 
     73 O          -4.0537  -22.6223  -48.4404 O.2       12 UNK        -0.5000 
     74 N          -3.3363  -22.6236  -46.2941 N.am      13 UNK        -0.5000 
     75 CA         -4.0572  -23.8219  -45.8590 C.3       13 UNK         0.1400 
     76 CB         -3.9268  -23.9843  -44.3375 C.3       13 UNK        -0.1800 
     77 C          -3.5952  -25.0969  -46.5910 C.2       13 UNK         0.5000 
     78 O          -4.4355  -25.9155  -46.9646 O.2       13 UNK        -0.5000 
     79 N          -2.2795  -25.2229  -46.8160 N.am      14 UNK        -0.5000 
     80 CA         -1.6710  -26.2936  -47.6066 C.3       14 UNK         0.1400 
     81 CB         -0.1511  -26.2980  -47.3822 C.3       14 UNK        -0.1800 
     82 C          -2.0057  -26.1879  -49.1072 C.2       14 UNK         0.5000 
     83 O          -2.2365  -27.2142  -49.7479 O.2       14 UNK        -0.5000 
     84 N          -2.0452  -24.9556  -49.6353 N.am      15 UNK        -0.5000 
     85 CA         -2.4371  -24.6433  -51.0122 C.3       15 UNK         0.1400 
     86 CB         -2.0679  -23.1864  -51.3281 C.3       15 UNK        -0.1800 
     87 C          -3.9299  -24.9151  -51.2929 C.2       15 UNK         0.5000 
     88 O          -4.2753  -25.2434  -52.4286 O.2       15 UNK        -0.5000 
     89 N          -4.7708  -24.8072  -50.2529 N.am      16 UNK        -0.5000 
     90 CA         -6.1818  -25.1956  -50.1742 C.3       16 UNK         0.1400 
     91 CB         -6.3164  -26.7325  -50.2225 C.3       16 UNK        -0.1800 
     92 C          -7.0596  -24.4750  -51.2141 C.2       16 UNK         0.5000 
     93 O          -7.5182  -23.3635  -50.9544 O.2       16 UNK        -0.5000 
     94 N          -7.2614  -25.0953  -52.3840 N.am      17 UNK        -0.5000 
     95 CA         -7.9535  -24.5028  -53.5314 C.3       17 UNK         0.1400 
     96 CB         -8.1690  -25.5859  -54.5989 C.3       17 UNK        -0.1800 
     97 C          -7.2032  -23.2947  -54.1301 C.2       17 UNK         0.5000 
     98 O          -7.8370  -22.4174  -54.7168 O.2       17 UNK        -0.5000 
     99 N          -5.8767  -23.2609  -53.9479 N.am      18 UNK        -0.5000 
    100 CA        -4.9828  -22.1909  -54.3835 C.3       18 UNK         0.1400 
    101 CB        -3.7681  -22.8249  -55.0836 C.3       18 UNK        -0.1800 
    102 C         -4.5789  -21.2632  -53.2172 C.2       18 UNK         0.5000 
    103 O         -3.5352  -20.6163  -53.2915 O.2       18 UNK        -0.5000 
    104 N         -5.4057  -21.1808  -52.1619 N.am      19 UNK        -0.5000 
    105 CA        -5.1967  -20.3136  -50.9922 C.3       19 UNK         0.1400 
    106 CB        -6.2914  -20.5853  -49.9496 C.3       19 UNK        -0.1800 
    107 C         -5.1401  -18.8042  -51.3082 C.2       19 UNK         0.5000 
    108 O         -4.6227  -18.0374  -50.4983 O.2       19 UNK        -0.5000 
    109 N         -5.6610  -18.3992  -52.4726 N.am      20 UNK        -0.5000 
    110 CA        -5.5675  -17.0473  -53.0127 C.3       20 UNK         0.1400 
    111 CB        -6.7431  -16.8247  -53.9810 C.3       20 UNK        -0.1800 
    112 C         -4.1972  -16.8256  -53.6855 C.2       20 UNK         0.5000 
    113 O         -4.1108  -16.8133  -54.9158 O.2       20 UNK        -0.5000 
    114 N         -3.1459  -16.6801  -52.8646 N.am      21 UNK        -0.5000 
    115 CA        -1.7731  -16.3162  -53.2461 C.3       21 UNK         0.1400 
    116 CB        -1.7216  -14.8367  -53.6802 C.3       21 UNK        -0.1800 
    117 C         -1.1211  -17.2637  -54.2763 C.2       21 UNK         0.5000 
    118 O         -0.3498  -16.8105  -55.1239 O.2       21 UNK        -0.5000 
    119 N         -1.4497  -18.5591  -54.1891 N.am      22 UNK        -0.5000 
    120 CA        -1.0170  -19.6285  -55.1067 C.3       22 UNK         0.1400 
    121 C         -1.6621  -19.5552  -56.5253 C.2       22 UNK         0.5000 
    122 N         -2.6956  -18.7510  -56.7517 N.am      22 UNK        -0.7600 
    123 O         -1.2416  -20.2643  -57.4356 O.2       22 UNK        -0.5000 
    124 C124        0.5236  -19.8422  -55.1547 C.3       23 UNK        -0.0398 
    125 S125        1.2518  -20.0803  -53.4956 S.3       23 UNK        -0.2404 
    126 C126        2.3902  -18.6576  -53.4079 C.3       23 UNK        -0.0205 
    127 H127       -0.9717  -19.3947  -49.9099 H         1 UNK         0.0600 
    128 H128        0.7006  -18.9680  -49.5455 H         1 UNK         0.0600 
    129 H129        0.0350  -18.6682  -51.1569 H         1 UNK         0.0600 
    130 H130        1.1882  -16.7996  -48.9754 H         1 UNK         0.3000 
    131 H131       -0.6596  -14.6101  -49.4038 H         1 UNK         0.0600 
    132 H132        1.9770  -14.6579  -47.8470 H         1 UNK         0.0800 
    133 H133        1.0734  -13.2411  -48.2965 H         1 UNK         0.0800 
    134 H134        3.9706  -15.1115  -48.8984 H         1 UNK         0.0800 
    135 H135        4.4379  -14.8214  -50.5478 H         1 UNK         0.0800 
    136 H136        2.6874  -16.2138  -52.2741 H         1 UNK         0.1150 
    137 H137        3.2316  -20.3771  -51.4292 H         1 UNK         0.1150 
    138 H138        4.1522  -17.4474  -48.4407 H         1 UNK         0.1150 
    139 H139        5.1237  -20.5507  -49.3311 H         1 UNK         0.0800 
    140 H140        4.4830  -19.7505  -47.9218 H         1 UNK         0.0800 
    141 H141        1.5975  -20.0136  -47.4642 H         1 UNK         0.0800 
    142 H142        2.8079  -20.7664  -46.4584 H         1 UNK         0.0800 
    143 H143        1.5131  -23.0197  -46.8970 H         1 UNK         0.0600 
    144 H144        1.2122  -21.1374  -44.8317 H         1 UNK         0.3000 
    145 H145       -1.1420  -22.9444  -42.8372 H         1 UNK         0.0600 
    146 H146        0.6495  -22.5988  -41.1539 H         1 UNK         0.0600 
    147 H147        1.8335  -22.3421  -42.4320 H         1 UNK         0.0600 
    148 H148        1.0626  -23.9102  -42.2486 H         1 UNK         0.0600 
    149 H149        0.1488  -20.4422  -42.4219 H         1 UNK         0.3000 
    150 H150       -2.2377  -18.4389  -44.2240 H         1 UNK         0.0600 
    151 H151       -3.1389  -18.6622  -41.9588 H         1 UNK         0.0600 
    152 H152       -2.0888  -17.2542  -42.0115 H         1 UNK         0.0600 
    153 H153       -1.5293  -18.7465  -41.2624 H         1 UNK         0.0600 
    154 H154        0.1877  -17.7339  -42.9139 H         1 UNK         0.3000 
    155 H155        2.4427  -18.4691  -45.5878 H         1 UNK         0.0600 
    156 H156        1.8095  -16.2435  -46.2107 H         1 UNK         0.0600 
    157 H157        3.1401  -16.0998  -45.0808 H         1 UNK         0.0600 
    158 H158        1.4930  -15.7655  -44.5429 H         1 UNK         0.0600 
    159 H159        2.6137  -17.3809  -42.8915 H         1 UNK         0.3000 
    160 H160        3.3856  -20.4914  -41.3611 H         1 UNK         0.0600 
    161 H161        5.2385  -18.1385  -42.0289 H         1 UNK         0.0600 
    162 H162        5.5648  -19.8300  -42.3879 H         1 UNK         0.0600 
    163 H163        5.4641  -19.2966  -40.7176 H         1 UNK         0.0600 
    164 H164        3.3781  -17.7690  -40.4386 H         1 UNK         0.3000 
    165 H165       -0.0849  -17.5830  -39.6348 H         1 UNK         0.0600 
    166 H166        0.8080  -17.1036  -37.3760 H         1 UNK         0.0600 
    167 H167        0.9123  -18.8246  -37.7089 H         1 UNK         0.0600 
    168 H168        2.3595  -17.8279  -37.8005 H         1 UNK         0.0600 
    169 H169        2.0401  -15.7653  -39.1613 H         1 UNK         0.3000 
    170 H170        1.7948  -13.6784  -40.4006 H         1 UNK         0.0600 
    171 H171        3.6696  -15.1032  -42.3992 H         1 UNK         0.0600 
    172 H172        3.9963  -13.5600  -41.6175 H         1 UNK         0.0600 
    173 H173        3.9384  -15.0243  -40.6617 H         1 UNK         0.0600 
    174 H174        0.7487  -14.2737  -42.9847 H         1 UNK         0.3000 
    175 H175        0.8019  -10.8799  -44.1241 H         1 UNK         0.0600 
    176 H176        1.9739  -13.3798  -45.4416 H         1 UNK         0.0600 
    177 H177        1.4065  -11.9333  -46.2782 H         1 UNK         0.0600 
    178 H178        2.8030  -11.8468  -45.2175 H         1 UNK         0.0600 
    179 H179       -0.5031  -13.2474  -45.1104 H         1 UNK         0.3000 
    180 H180       -3.4499  -12.9836  -43.3737 H         1 UNK         0.0600 
    181 H181       -4.7060  -11.7843  -45.1572 H         1 UNK         0.0600 
    182 H182       -3.2143  -11.0320  -45.7227 H         1 UNK         0.0600 
    183 H183       -3.8472  -10.6544  -44.1250 H         1 UNK         0.0600 
    184 H184       -2.6882  -13.3914  -46.2132 H         1 UNK         0.3000 
    185 H185       -2.3969  -16.8909  -45.8154 H         1 UNK         0.0600 
    186 H186       -4.7512  -15.3647  -47.0417 H         1 UNK         0.0600 
    187 H187       -4.2536  -16.9903  -47.4914 H         1 UNK         0.0600 
    188 H188       -4.8704  -16.6784  -45.8760 H         1 UNK         0.0600 
    189 H189       -2.3334  -15.9276  -48.2325 H         1 UNK         0.3000 
    190 H190       -0.8700  -20.3446  -46.5787 H         1 UNK         0.3000 
    191 H191       -2.3399  -20.9026  -48.9372 H         1 UNK         0.0600 
    192 H192       -2.4848  -18.7630  -47.6884 H         1 UNK         0.0600 
    193 H193       -3.2692  -19.5768  -46.3375 H         1 UNK         0.0600 
    194 H194       -4.0763  -19.4744  -47.8971 H         1 UNK         0.0600 
    195 H195       -2.8016  -22.1258  -45.5871 H         1 UNK         0.3000 
    196 H196       -5.1133  -23.6718  -46.0925 H         1 UNK         0.0600 
    197 H197       -4.2923  -23.1013  -43.8129 H         1 UNK         0.0600 
    198 H198       -2.8927  -24.1489  -44.0368 H         1 UNK         0.0600 
    199 H199       -4.5092  -24.8368  -43.9861 H         1 UNK         0.0600 
    200 H200       -1.6476  -24.5339  -46.4190 H         1 UNK         0.3000 
    201 H201       -2.0670  -27.2450  -47.2454 H         1 UNK         0.0600 
    202 H202        0.0906  -26.4430  -46.3292 H         1 UNK         0.0600 
    203 H203        0.3080  -25.3628  -47.7033 H         1 UNK         0.0600 
    204 H204        0.3237  -27.1058  -47.9402 H         1 UNK         0.0600 
    205 H205       -1.7563  -24.1713  -49.0577 H         1 UNK         0.3000 
    206 H206       -1.8564  -25.2879  -51.6750 H         1 UNK         0.0600 
    207 H207       -2.6678  -22.4833  -50.7521 H         1 UNK         0.0600 
    208 H208       -1.0180  -22.9864  -51.1138 H         1 UNK         0.0600 
    209 H209       -2.2236  -22.9634  -52.3820 H         1 UNK         0.0600 
    210 H210       -4.3936  -24.3979  -49.4045 H         1 UNK         0.3000 
    211 H211       -6.5323  -24.8674  -49.1944 H         1 UNK         0.0600 
    212 H212       -5.8946  -27.1599  -51.1325 H         1 UNK         0.0600 
    213 H213       -7.3621  -27.0372  -50.1649 H         1 UNK         0.0600 
    214 H214       -5.8002  -27.1899  -49.3780 H         1 UNK         0.0600 
    215 H215       -6.8126  -25.9874  -52.5350 H         1 UNK         0.3000 
    216 H216       -8.9310  -24.1515  -53.1945 H         1 UNK         0.0600 
    217 H217       -8.7058  -25.1848  -55.4596 H         1 UNK         0.0600 
    218 H218       -8.7587  -26.4148  -54.2069 H         1 UNK         0.0600 
    219 H219       -7.2217  -25.9879  -54.9606 H         1 UNK         0.0600 
    220 H220       -5.4390  -24.0233  -53.4369 H         1 UNK         0.3000 
    221 H221       -5.4861  -21.5578  -55.1167 H         1 UNK         0.0600 
    222 H222       -3.1989  -23.4648  -54.4104 H         1 UNK         0.0600 
    223 H223       -4.0823  -23.4350  -55.9306 H         1 UNK         0.0600 
    224 H224       -3.0923  -22.0649  -55.4741 H         1 UNK         0.0600 
    225 H225       -6.2353  -21.7595  -52.1465 H         1 UNK         0.3000 
    226 H226       -4.2344  -20.5794  -50.5521 H         1 UNK         0.0600 
    227 H227       -6.2236  -21.6016  -49.5646 H         1 UNK         0.0600 
    228 H228       -6.1995  -19.9168  -49.0928 H         1 UNK         0.0600 
    229 H229       -7.2890  -20.4484  -50.3681 H         1 UNK         0.0600 
    230 H230       -6.0523  -19.1002  -53.0832 H         1 UNK         0.3000 
    231 H231       -5.6635  -16.3226  -52.2012 H         1 UNK         0.0600 
    232 H232       -6.7089  -15.8233  -54.4120 H         1 UNK         0.0600 
    233 H233       -7.6996  -16.9239  -53.4675 H         1 UNK         0.0600 
    234 H234       -6.7307  -17.5386  -54.8057 H         1 UNK         0.0600 
    235 H235       -3.3008  -16.8010  -51.8681 H         1 UNK         0.3000 
    236 H236       -1.1634  -16.4043  -52.3494 H         1 UNK         0.0600 
    237 H237       -2.2672  -14.6701  -54.6095 H         1 UNK         0.0600 
    238 H238       -2.1509  -14.1877  -52.9169 H         1 UNK         0.0600 
    239 H239       -0.6936  -14.5088  -53.8389 H         1 UNK         0.0600 
    240 H240       -2.1265  -18.8500  -53.4950 H         1 UNK         0.3000 
    241 H241       -1.4234  -20.5436  -54.6804 H         1 UNK         0.0600 
    242 H242       -3.1052  -18.7230  -57.6715 H         1 UNK         0.3800 
    243 H243       -3.0631  -18.1472  -56.0237 H         1 UNK         0.3800 
    244 H244        1.0123  -19.0142  -55.6692 H         1 UNK         0.0800 
    245 H245        0.7606  -20.7330  -55.7384 H         1 UNK         0.0800 
    246 H246        1.8935  -17.7850  -53.8337 H         1 UNK         0.0800 
    247 H247        3.2599  -18.8577  -54.0347 H         1 UNK         0.0800 
@<TRIPOS>BOND
     1    1    2 1    
     2    1  127 1    
     3    1  128 1    
     4    1  129 1    
     5    2    3 2    
     6    2    4 am   BACKBONE|DICT|INTERRES
     7    4    5 1    
     8    4  130 1    
     9    5    6 1    
    10    5   65 1    
    11    5  131 1    
    12    6    7 1    
    13    6  132 1    
    14    6  133 1    
    15    7    8 1    
    16    8    9 1    
    17    8  134 1    
    18    8  135 1    
    19    9   10 ar   
    20    9   14 ar   
    21   10   11 ar   
    22   10  136 1    
    23   11   12 ar   
    24   11  126 1    
    25   12   13 ar   
    26   12  137 1    
    27   13   14 ar   
    28   13   15 1    
    29   14  138 1    
    30   15   16 1    
    31   15  139 1    
    32   15  140 1    
    33   16   17 1    
    34   17   18 1    
    35   17  141 1    
    36   17  142 1    
    37   18   19 1    
    38   18   67 1    
    39   18  143 1    
    40   19   20 am   BACKBONE|DICT|INTERRES
    41   19  144 1    
    42   20   21 2    
    43   20   22 1    
    44   22   23 1    
    45   22   24 1    
    46   22  145 1    
    47   23  146 1    
    48   23  147 1    
    49   23  148 1    
    50   24   25 am   BACKBONE|DICT|INTERRES
    51   24  149 1    
    52   25   26 2    
    53   25   27 1    
    54   27   28 1    
    55   27   29 1    
    56   27  150 1    
    57   28  151 1    
    58   28  152 1    
    59   28  153 1    
    60   29   30 am   BACKBONE|DICT|INTERRES
    61   29  154 1    
    62   30   31 2    
    63   30   32 1    
    64   32   33 1    
    65   32   34 1    
    66   32  155 1    
    67   33  156 1    
    68   33  157 1    
    69   33  158 1    
    70   34   35 am   BACKBONE|DICT|INTERRES
    71   34  159 1    
    72   35   36 2    
    73   35   37 1    
    74   37   38 1    
    75   37   39 1    
    76   37  160 1    
    77   38  161 1    
    78   38  162 1    
    79   38  163 1    
    80   39   40 am   BACKBONE|DICT|INTERRES
    81   39  164 1    
    82   40   41 2    
    83   40   42 1    
    84   42   43 1    
    85   42   44 1    
    86   42  165 1    
    87   43  166 1    
    88   43  167 1    
    89   43  168 1    
    90   44   45 am   BACKBONE|DICT|INTERRES
    91   44  169 1    
    92   45   46 2    
    93   45   47 1    
    94   47   48 1    
    95   47   49 1    
    96   47  170 1    
    97   48  171 1    
    98   48  172 1    
    99   48  173 1    
   100   49   50 am   BACKBONE|DICT|INTERRES
   101   49  174 1    
   102   50   51 2    
   103   50   52 1    
   104   52   53 1    
   105   52   54 1    
   106   52  175 1    
   107   53  176 1    
   108   53  177 1    
   109   53  178 1    
   110   54   55 am   BACKBONE|DICT|INTERRES
   111   54  179 1    
   112   55   56 2    
   113   55   57 1    
   114   57   58 1    
   115   57   59 1    
   116   57  180 1    
   117   58  181 1    
   118   58  182 1    
   119   58  183 1    
   120   59   60 am   BACKBONE|DICT|INTERRES
   121   59  184 1    
   122   60   61 2    
   123   60   62 1    
   124   62   63 1    
   125   62   64 1    
   126   62  185 1    
   127   63  186 1    
   128   63  187 1    
   129   63  188 1    
   130   64   65 am   BACKBONE|DICT|INTERRES
   131   64  189 1    
   132   65   66 2    
   133   67   68 2    
   134   67   69 am   BACKBONE|DICT|INTERRES
   135   69   70 1    
   136   69  190 1    
   137   70   71 1    
   138   70   72 1    
   139   70  191 1    
   140   71  192 1    
   141   71  193 1    
   142   71  194 1    
   143   72   73 2    
   144   72   74 am   BACKBONE|DICT|INTERRES
   145   74   75 1    
   146   74  195 1    
   147   75   76 1    
   148   75   77 1    
   149   75  196 1    
   150   76  197 1    
   151   76  198 1    
   152   76  199 1    
   153   77   78 2    
   154   77   79 am   BACKBONE|DICT|INTERRES
   155   79   80 1    
   156   79  200 1    
   157   80   81 1    
   158   80   82 1    
   159   80  201 1    
   160   81  202 1    
   161   81  203 1    
   162   81  204 1    
   163   82   83 2    
   164   82   84 am   BACKBONE|DICT|INTERRES
   165   84   85 1    
   166   84  205 1    
   167   85   86 1    
   168   85   87 1    
   169   85  206 1    
   170   86  207 1    
   171   86  208 1    
   172   86  209 1    
   173   87   88 2    
   174   87   89 am   BACKBONE|DICT|INTERRES
   175   89   90 1    
   176   89  210 1    
   177   90   91 1    
   178   90   92 1    
   179   90  211 1    
   180   91  212 1    
   181   91  213 1    
   182   91  214 1    
   183   92   93 2    
   184   92   94 am   BACKBONE|DICT|INTERRES
   185   94   95 1    
   186   94  215 1    
   187   95   96 1    
   188   95   97 1    
   189   95  216 1    
   190   96  217 1    
   191   96  218 1    
   192   96  219 1    
   193   97   98 2    
   194   97   99 am   BACKBONE|DICT|INTERRES
   195   99  100 1    
   196   99  220 1    
   197  100  101 1    
   198  100  102 1    
   199  100  221 1    
   200  101  222 1    
   201  101  223 1    
   202  101  224 1    
   203  102  103 2    
   204  102  104 am   BACKBONE|DICT|INTERRES
   205  104  105 1    
   206  104  225 1    
   207  105  106 1    
   208  105  107 1    
   209  105  226 1    
   210  106  227 1    
   211  106  228 1    
   212  106  229 1    
   213  107  108 2    
   214  107  109 am   BACKBONE|DICT|INTERRES
   215  109  110 1    
   216  109  230 1    
   217  110  111 1    
   218  110  112 1    
   219  110  231 1    
   220  111  232 1    
   221  111  233 1    
   222  111  234 1    
   223  112  113 2    
   224  112  114 am   BACKBONE|DICT|INTERRES
   225  114  115 1    
   226  114  235 1    
   227  115  116 1    
   228  115  117 1    
   229  115  236 1    
   230  116  237 1    
   231  116  238 1    
   232  116  239 1    
   233  117  118 2    
   234  117  119 am   BACKBONE|DICT|INTERRES
   235  119  120 1    
   236  119  240 1    
   237  120  121 1    
   238  120  124 1    
   239  120  241 1    
   240  121  122 am   BACKBONE|DICT|INTERRES
   241  121  123 2    
   242  122  242 1    
   243  122  243 1    
   244  124  125 1    
   245  124  244 1    
   246  124  245 1    
   247  125  126 1    
   248  126  246 1    
   249  126  247 1    
@<TRIPOS>SUBSTRUCTURE
     1 UNK         1 GROUP             0       ****    0 ROOT    
