@<TRIPOS>MOLECULE
3R540
247   249    1
SMALL
USER_CHARGES


@<TRIPOS>ATOM
      1 CA          4.7855  -10.5471  -49.9165 C.3       0 UNK        -0.1800 
      2 C           3.7980  -11.1349  -48.9194 C.2       0 UNK         0.5000 
      3 O           4.1865  -11.4893  -47.8067 O.2       0 UNK        -0.5000 
      4 N           2.5148  -11.2191  -49.2993 N.am      1 UNK        -0.5000 
      5 CA          1.4301  -11.7971  -48.4897 C.3       1 UNK         0.1400 
      6 C6          0.1662  -12.0812  -49.3424 C.3       23 UNK        -0.0398 
      7 S7         -0.7089  -13.5866  -48.7948 S.3       23 UNK        -0.2404 
      8 C8         -0.0886  -14.7973  -50.0064 C.3       23 UNK        -0.0205 
      9 C9         -0.5934  -16.2063  -49.7266 C.ar      23 UNK        -0.0193 
     10 C10        -1.9669  -16.4683  -49.7044 C.ar      23 UNK        -0.1150 
     11 C11        -2.4463  -17.7606  -49.4749 C.ar      23 UNK        -0.0193 
     12 C12        -1.5307  -18.8000  -49.2810 C.ar      23 UNK        -0.1150 
     13 C13        -0.1554  -18.5572  -49.3116 C.ar      23 UNK        -0.0193 
     14 C14         0.3092  -17.2563  -49.5260 C.ar      23 UNK        -0.1150 
     15 C15         0.8177  -19.7102  -49.1299 C.3       23 UNK        -0.0205 
     16 S16         1.2167  -19.9619  -47.3739 S.3       23 UNK        -0.2404 
     17 C17         1.8181  -21.6836  -47.3849 C.3       23 UNK        -0.0398 
     18 CA          0.8182  -22.7363  -46.8418 C.3       11 UNK         0.1400 
     19 N           0.5607  -22.6236  -45.4004 N.am      11 UNK        -0.5000 
     20 C           0.1055  -23.6517  -44.6663 C.2       10 UNK         0.5000 
     21 O          -0.1382  -24.7636  -45.1363 O.2       10 UNK        -0.5000 
     22 CA         -0.1600  -23.4015  -43.1711 C.3       10 UNK         0.1400 
     23 CB          1.1479  -23.4750  -42.3694 C.3       10 UNK        -0.1800 
     24 N          -0.8286  -22.1315  -42.8919 N.am      10 UNK        -0.5000 
     25 C          -2.0255  -21.7615  -43.3658 C.2       9 UNK         0.5000 
     26 O          -2.6968  -22.4519  -44.1323 O.2       9 UNK        -0.5000 
     27 CA         -2.5624  -20.3812  -42.9325 C.3       9 UNK         0.1400 
     28 CB         -1.9769  -19.8800  -41.5934 C.3       9 UNK        -0.1800 
     29 N          -2.3936  -19.3639  -43.9760 N.am      9 UNK        -0.5000 
     30 C          -1.2456  -18.9961  -44.5639 C.2       8 UNK         0.5000 
     31 O          -0.1604  -19.5307  -44.3236 O.2       8 UNK        -0.5000 
     32 CA         -1.3359  -17.8786  -45.6287 C.3       8 UNK         0.1400 
     33 CB         -2.3928  -16.7978  -45.3148 C.3       8 UNK        -0.1800 
     34 N          -0.0326  -17.2718  -45.9138 N.am      8 UNK        -0.5000 
     35 C           0.7533  -16.5969  -45.0649 C.2       7 UNK         0.5000 
     36 O           0.4176  -16.2506  -43.9304 O.2       7 UNK        -0.5000 
     37 CA          2.1455  -16.2232  -45.6034 C.3       7 UNK         0.1400 
     38 CB          2.0854  -14.9003  -46.3788 C.3       7 UNK        -0.1800 
     39 N           3.1243  -16.0917  -44.5265 N.am      7 UNK        -0.5000 
     40 C           3.7307  -17.1187  -43.9175 C.2       6 UNK         0.5000 
     41 O           3.5573  -18.2970  -44.2298 O.2       6 UNK        -0.5000 
     42 CA          4.7060  -16.7809  -42.7777 C.3       6 UNK         0.1400 
     43 CB          6.0570  -16.3153  -43.3451 C.3       6 UNK        -0.1800 
     44 N           4.1722  -15.7368  -41.9037 N.am      6 UNK        -0.5000 
     45 C           3.9073  -15.8824  -40.5974 C.2       5 UNK         0.5000 
     46 O           4.0905  -16.9286  -39.9734 O.2       5 UNK        -0.5000 
     47 CA          3.3539  -14.6522  -39.8462 C.3       5 UNK         0.1400 
     48 CB          4.4871  -13.9179  -39.1129 C.3       5 UNK        -0.1800 
     49 N           2.6756  -13.7065  -40.7314 N.am      5 UNK        -0.5000 
     50 C           1.4833  -13.9202  -41.3026 C.2       4 UNK         0.5000 
     51 O           0.7472  -14.8564  -40.9909 O.2       4 UNK        -0.5000 
     52 CA          1.0385  -12.9362  -42.4072 C.3       4 UNK         0.1400 
     53 CB         -0.1859  -12.1253  -41.9550 C.3       4 UNK        -0.1800 
     54 N           2.0705  -11.9987  -42.8680 N.am      4 UNK        -0.5000 
     55 C           3.2191  -12.3094  -43.4823 C.2       3 UNK         0.5000 
     56 O           3.6046  -13.4679  -43.6473 O.2       3 UNK        -0.5000 
     57 CA          4.0639  -11.1233  -43.9926 C.3       3 UNK         0.1400 
     58 CB          5.4099  -11.5741  -44.5871 C.3       3 UNK        -0.1800 
     59 N           3.3304  -10.3552  -44.9995 N.am      3 UNK        -0.5000 
     60 C           2.3525   -9.4729  -44.7399 C.2       2 UNK         0.5000 
     61 O           2.0297   -9.1417  -43.5978 O.2       2 UNK        -0.5000 
     62 CA          1.5743   -8.8924  -45.9395 C.3       2 UNK         0.1400 
     63 CB          2.1146   -7.5028  -46.3088 C.3       2 UNK        -0.1800 
     64 N           1.6113   -9.7473  -47.1272 N.am      2 UNK        -0.5000 
     65 C           1.1016  -10.9856  -47.2117 C.2       1 UNK         0.5000 
     66 O           0.4314  -11.5000  -46.3163 O.2       1 UNK        -0.5000 
     67 C          -0.4919  -22.8024  -47.6543 C.2       11 UNK         0.5000 
     68 O          -0.5330  -23.4931  -48.6709 O.2       11 UNK        -0.5000 
     69 N          -1.5473  -22.1282  -47.1714 N.am      12 UNK        -0.5000 
     70 CA         -2.8910  -22.1798  -47.7476 C.3       12 UNK         0.1400 
     71 CB         -3.7729  -21.0852  -47.1268 C.3       12 UNK        -0.1800 
     72 C          -3.5247  -23.5677  -47.5670 C.2       12 UNK         0.5000 
     73 O          -4.0989  -24.0982  -48.5166 O.2       12 UNK        -0.5000 
     74 N          -3.3628  -24.1484  -46.3697 N.am      13 UNK        -0.5000 
     75 CA         -3.7845  -25.5073  -46.0351 C.3       13 UNK         0.1400 
     76 CB         -3.5998  -25.7494  -44.5296 C.3       13 UNK        -0.1800 
     77 C          -3.0450  -26.5737  -46.8628 C.2       13 UNK         0.5000 
     78 O          -3.6911  -27.4770  -47.3934 O.2       13 UNK        -0.5000 
     79 N          -1.7190  -26.4247  -47.0045 N.am      14 UNK        -0.5000 
     80 CA         -0.8666  -27.2911  -47.8258 C.3       14 UNK         0.1400 
     81 CB          0.6073  -26.9243  -47.5993 C.3       14 UNK        -0.1800 
     82 C          -1.2140  -27.2354  -49.3266 C.2       14 UNK         0.5000 
     83 O          -1.1834  -28.2662  -49.9991 O.2       14 UNK        -0.5000 
     84 N          -1.5736  -26.0404  -49.8119 N.am      15 UNK        -0.5000 
     85 CA         -2.0495  -25.7862  -51.1725 C.3       15 UNK         0.1400 
     86 CB         -1.8816  -24.2874  -51.4641 C.3       15 UNK        -0.1800 
     87 C          -3.5147  -26.2079  -51.4100 C.2       15 UNK         0.5000 
     88 O          -3.9802  -26.1310  -52.5494 O.2       15 UNK        -0.5000 
     89 N          -4.2279  -26.5876  -50.3368 N.am      16 UNK        -0.5000 
     90 CA         -5.6634  -26.8864  -50.2768 C.3       16 UNK         0.1400 
     91 CB         -5.9684  -28.2103  -51.0066 C.3       16 UNK        -0.1800 
     92 C          -6.5277  -25.7093  -50.7785 C.2       16 UNK         0.5000 
     93 O          -7.5395  -25.9238  -51.4491 O.2       16 UNK        -0.5000 
     94 N          -6.0645  -24.4824  -50.4935 N.am      17 UNK        -0.5000 
     95 CA         -6.5026  -23.1720  -50.9855 C.3       17 UNK         0.1400 
     96 CB         -7.9482  -22.8628  -50.5520 C.3       17 UNK        -0.1800 
     97 C          -6.3216  -22.9691  -52.5039 C.2       17 UNK         0.5000 
     98 O          -5.8073  -21.9302  -52.9183 O.2       17 UNK        -0.5000 
     99 N          -6.7523  -23.9538  -53.2996 N.am      18 UNK        -0.5000 
    100 CA        -6.8453  -23.9285  -54.7560 C.3       18 UNK         0.1400 
    101 CB        -7.4924  -25.2353  -55.2385 C.3       18 UNK        -0.1800 
    102 C         -5.5128  -23.6868  -55.4826 C.2       18 UNK         0.5000 
    103 O         -5.4797  -22.8724  -56.4055 O.2       18 UNK        -0.5000 
    104 N         -4.4375  -24.3706  -55.0621 N.am      19 UNK        -0.5000 
    105 CA        -3.1313  -24.2929  -55.7302 C.3       19 UNK         0.1400 
    106 CB        -2.2578  -25.4861  -55.3139 C.3       19 UNK        -0.1800 
    107 C         -2.3975  -22.9572  -55.4958 C.2       19 UNK         0.5000 
    108 O         -1.5440  -22.5877  -56.3029 O.2       19 UNK        -0.5000 
    109 N         -2.7553  -22.2538  -54.4145 N.am      20 UNK        -0.5000 
    110 CA        -2.2553  -20.9217  -54.0707 C.3       20 UNK         0.1400 
    111 CB        -1.9745  -20.8836  -52.5596 C.3       20 UNK        -0.1800 
    112 C         -3.2328  -19.8049  -54.4951 C.2       20 UNK         0.5000 
    113 O         -2.8900  -18.6291  -54.3677 O.2       20 UNK        -0.5000 
    114 N         -4.4175  -20.1878  -54.9989 N.am      21 UNK        -0.5000 
    115 CA        -5.5372  -19.3395  -55.4193 C.3       21 UNK         0.1400 
    116 CB        -5.1650  -18.5303  -56.6791 C.3       21 UNK        -0.1800 
    117 C         -6.0975  -18.4659  -54.2755 C.2       21 UNK         0.5000 
    118 O         -6.4423  -17.3025  -54.4949 O.2       21 UNK        -0.5000 
    119 N         -6.1651  -19.0419  -53.0696 N.am      22 UNK        -0.5000 
    120 CA        -6.6668  -18.3884  -51.8524 C.3       22 UNK         0.1400 
    121 C         -8.2051  -18.1760  -51.8862 C.2       22 UNK         0.5000 
    122 N         -8.6964  -17.0644  -51.3553 N.am      22 UNK        -0.7600 
    123 O         -8.9609  -19.0283  -52.3479 O.2       22 UNK        -0.5000 
    124 C124       -6.2581  -19.1564  -50.5700 C.3       23 UNK        -0.0398 
    125 S125       -4.4596  -19.4237  -50.4527 S.3       23 UNK        -0.2404 
    126 C126       -3.9494  -18.0128  -49.4221 C.3       23 UNK        -0.0205 
    127 H127        5.2581   -9.6591  -49.4968 H         1 UNK         0.0600 
    128 H128        5.5649  -11.2743  -50.1438 H         1 UNK         0.0600 
    129 H129        4.2996  -10.2654  -50.8509 H         1 UNK         0.0600 
    130 H130        2.2530  -10.8912  -50.2185 H         1 UNK         0.3000 
    131 H131        1.8200  -12.7542  -48.1413 H         1 UNK         0.0600 
    132 H132        0.4320  -12.2118  -50.3923 H         1 UNK         0.0800 
    133 H133       -0.5274  -11.2384  -49.3247 H         1 UNK         0.0800 
    134 H134       -0.4057  -14.5023  -51.0076 H         1 UNK         0.0800 
    135 H135        1.0024  -14.7733  -50.0037 H         1 UNK         0.0800 
    136 H136       -2.6632  -15.6566  -49.8621 H         1 UNK         0.1150 
    137 H137       -1.8876  -19.8047  -49.1142 H         1 UNK         0.1150 
    138 H138        1.3732  -17.0667  -49.5527 H         1 UNK         0.1150 
    139 H139        0.3827  -20.6190  -49.5491 H         1 UNK         0.0800 
    140 H140        1.7371  -19.5246  -49.6872 H         1 UNK         0.0800 
    141 H141        2.1250  -21.9509  -48.3976 H         1 UNK         0.0800 
    142 H142        2.7324  -21.7170  -46.7911 H         1 UNK         0.0800 
    143 H143        1.3084  -23.7003  -46.9946 H         1 UNK         0.0600 
    144 H144        0.6977  -21.7164  -44.9714 H         1 UNK         0.3000 
    145 H145       -0.8177  -24.1990  -42.8194 H         1 UNK         0.0600 
    146 H146        0.9585  -23.4045  -41.2981 H         1 UNK         0.0600 
    147 H147        1.6616  -24.4211  -42.5457 H         1 UNK         0.0600 
    148 H148        1.8339  -22.6724  -42.6431 H         1 UNK         0.0600 
    149 H149       -0.3245  -21.4730  -42.3163 H         1 UNK         0.3000 
    150 H150       -3.6370  -20.5063  -42.7917 H         1 UNK         0.0600 
    151 H151       -2.1027  -20.6242  -40.8059 H         1 UNK         0.0600 
    152 H152       -2.4875  -18.9753  -41.2633 H         1 UNK         0.0600 
    153 H153       -0.9142  -19.6461  -41.6642 H         1 UNK         0.0600 
    154 H154       -3.2423  -18.8956  -44.2591 H         1 UNK         0.3000 
    155 H155       -1.6375  -18.3730  -46.5507 H         1 UNK         0.0600 
    156 H156       -2.3628  -15.9976  -46.0550 H         1 UNK         0.0600 
    157 H157       -2.2372  -16.3497  -44.3329 H         1 UNK         0.0600 
    158 H158       -3.4022  -17.2091  -45.3353 H         1 UNK         0.0600 
    159 H159        0.3562  -17.5320  -46.8096 H         1 UNK         0.3000 
    160 H160        2.4810  -17.0078  -46.2856 H         1 UNK         0.0600 
    161 H161        1.7044  -14.0866  -45.7600 H         1 UNK         0.0600 
    162 H162        1.4272  -14.9938  -47.2421 H         1 UNK         0.0600 
    163 H163        3.0691  -14.6088  -46.7479 H         1 UNK         0.0600 
    164 H164        3.3071  -15.1441  -44.2058 H         1 UNK         0.3000 
    165 H165        4.8773  -17.7014  -42.2160 H         1 UNK         0.0600 
    166 H166        5.9590  -15.3872  -43.9103 H         1 UNK         0.0600 
    167 H167        6.7799  -16.1454  -42.5471 H         1 UNK         0.0600 
    168 H168        6.4803  -17.0659  -44.0138 H         1 UNK         0.0600 
    169 H169        3.9626  -14.8489  -42.3488 H         1 UNK         0.3000 
    170 H170        2.6386  -15.0092  -39.1022 H         1 UNK         0.0600 
    171 H171        5.0005  -14.5858  -38.4198 H         1 UNK         0.0600 
    172 H172        5.2326  -13.5308  -39.8086 H         1 UNK         0.0600 
    173 H173        4.1028  -13.0803  -38.5304 H         1 UNK         0.0600 
    174 H174        3.2040  -12.8996  -41.0272 H         1 UNK         0.3000 
    175 H175        0.7453  -13.5418  -43.2671 H         1 UNK         0.0600 
    176 H176        0.0522  -11.4778  -41.1103 H         1 UNK         0.0600 
    177 H177       -0.5635  -11.4991  -42.7638 H         1 UNK         0.0600 
    178 H178       -1.0011  -12.7818  -41.6479 H         1 UNK         0.0600 
    179 H179        1.8408  -11.0129  -42.7997 H         1 UNK         0.3000 
    180 H180        4.2781  -10.4787  -43.1377 H         1 UNK         0.0600 
    181 H181        5.2720  -12.2466  -45.4346 H         1 UNK         0.0600 
    182 H182        6.0074  -12.1032  -43.8437 H         1 UNK         0.0600 
    183 H183        5.9964  -10.7212  -44.9289 H         1 UNK         0.0600 
    184 H184        3.5144  -10.6068  -45.9644 H         1 UNK         0.3000 
    185 H185        0.5314   -8.7873  -45.6338 H         1 UNK         0.0600 
    186 H186        2.0765   -6.8285  -45.4521 H         1 UNK         0.0600 
    187 H187        3.1517   -7.5503  -46.6434 H         1 UNK         0.0600 
    188 H188        1.5243   -7.0479  -47.1046 H         1 UNK         0.0600 
    189 H189        2.1495   -9.4068  -47.9104 H         1 UNK         0.3000 
    190 H190       -1.4393  -21.6304  -46.3004 H         1 UNK         0.3000 
    191 H191       -2.8095  -21.9854  -48.8192 H         1 UNK         0.0600 
    192 H192       -4.7356  -21.0321  -47.6366 H         1 UNK         0.0600 
    193 H193       -3.3074  -20.1047  -47.2089 H         1 UNK         0.0600 
    194 H194       -3.9743  -21.2681  -46.0719 H         1 UNK         0.0600 
    195 H195       -2.9282  -23.6111  -45.6241 H         1 UNK         0.3000 
    196 H196       -4.8492  -25.5891  -46.2634 H         1 UNK         0.0600 
    197 H197       -3.9347  -26.7492  -44.2508 H         1 UNK         0.0600 
    198 H198       -4.1789  -25.0360  -43.9429 H         1 UNK         0.0600 
    199 H199       -2.5559  -25.6567  -44.2297 H         1 UNK         0.0600 
    200 H200       -1.2523  -25.6835  -46.4901 H         1 UNK         0.3000 
    201 H201       -1.0168  -28.3188  -47.4891 H         1 UNK         0.0600 
    202 H202        0.8810  -27.0175  -46.5482 H         1 UNK         0.0600 
    203 H203        0.8187  -25.9017  -47.9121 H         1 UNK         0.0600 
    204 H204        1.2654  -27.5836  -48.1666 H         1 UNK         0.0600 
    205 H205       -1.5043  -25.2289  -49.2068 H         1 UNK         0.3000 
    206 H206       -1.4294  -26.3471  -51.8744 H         1 UNK         0.0600 
    207 H207       -0.8359  -23.9869  -51.3985 H         1 UNK         0.0600 
    208 H208       -2.2263  -24.0380  -52.4646 H         1 UNK         0.0600 
    209 H209       -2.4515  -23.6749  -50.7649 H         1 UNK         0.0600 
    210 H210       -3.7537  -26.5984  -49.4426 H         1 UNK         0.3000 
    211 H211       -5.9079  -27.0201  -49.2223 H         1 UNK         0.0600 
    212 H212       -5.7955  -28.1297  -52.0803 H         1 UNK         0.0600 
    213 H213       -7.0083  -28.5058  -50.8635 H         1 UNK         0.0600 
    214 H214       -5.3463  -29.0206  -50.6266 H         1 UNK         0.0600 
    215 H215       -5.2397  -24.4410  -49.8962 H         1 UNK         0.3000 
    216 H216       -5.8494  -22.4469  -50.4974 H         1 UNK         0.0600 
    217 H217       -8.6608  -23.5812  -50.9570 H         1 UNK         0.0600 
    218 H218       -8.2609  -21.8769  -50.8973 H         1 UNK         0.0600 
    219 H219       -8.0422  -22.8736  -49.4662 H         1 UNK         0.0600 
    220 H220       -7.1359  -24.7736  -52.8357 H         1 UNK         0.3000 
    221 H221       -7.5120  -23.1048  -55.0190 H         1 UNK         0.0600 
    222 H222       -6.9003  -26.1057  -54.9522 H         1 UNK         0.0600 
    223 H223       -8.4911  -25.3585  -54.8192 H         1 UNK         0.0600 
    224 H224       -7.5926  -25.2467  -56.3247 H         1 UNK         0.0600 
    225 H225       -4.5171  -25.0051  -54.2734 H         1 UNK         0.3000 
    226 H226       -3.3022  -24.3768  -56.8057 H         1 UNK         0.0600 
    227 H227       -2.7658  -26.4322  -55.5013 H         1 UNK         0.0600 
    228 H228       -1.3257  -25.5005  -55.8801 H         1 UNK         0.0600 
    229 H229       -1.9940  -25.4519  -54.2589 H         1 UNK         0.0600 
    230 H230       -3.4854  -22.6248  -53.8224 H         1 UNK         0.3000 
    231 H231       -1.3139  -20.7257  -54.5877 H         1 UNK         0.0600 
    232 H232       -2.8337  -21.2297  -51.9859 H         1 UNK         0.0600 
    233 H233       -1.1282  -21.5206  -52.3037 H         1 UNK         0.0600 
    234 H234       -1.7319  -19.8754  -52.2205 H         1 UNK         0.0600 
    235 H235       -4.5947  -21.1810  -55.0624 H         1 UNK         0.3000 
    236 H236       -6.3420  -20.0223  -55.6953 H         1 UNK         0.0600 
    237 H237       -4.7947  -19.1826  -57.4701 H         1 UNK         0.0600 
    238 H238       -6.0331  -18.0025  -57.0753 H         1 UNK         0.0600 
    239 H239       -4.3966  -17.7855  -56.4705 H         1 UNK         0.0600 
    240 H240       -5.8930  -20.0168  -52.9777 H         1 UNK         0.3000 
    241 H241       -6.1975  -17.4035  -51.8060 H         1 UNK         0.0600 
    242 H242       -8.0985  -16.3513  -50.9668 H         1 UNK         0.3800 
    243 H243       -9.6947  -16.9221  -51.3574 H         1 UNK         0.3800 
    244 H244       -6.5986  -18.6289  -49.6772 H         1 UNK         0.0800 
    245 H245       -6.7409  -20.1323  -50.5445 H         1 UNK         0.0800 
    246 H246       -4.2493  -18.1890  -48.3888 H         1 UNK         0.0800 
    247 H247       -4.4891  -17.1252  -49.7556 H         1 UNK         0.0800 
@<TRIPOS>BOND
     1    1    2 1    
     2    1  127 1    
     3    1  128 1    
     4    1  129 1    
     5    2    3 2    
     6    2    4 am   BACKBONE|DICT|INTERRES
     7    4    5 1    
     8    4  130 1    
     9    5    6 1    
    10    5   65 1    
    11    5  131 1    
    12    6    7 1    
    13    6  132 1    
    14    6  133 1    
    15    7    8 1    
    16    8    9 1    
    17    8  134 1    
    18    8  135 1    
    19    9   10 ar   
    20    9   14 ar   
    21   10   11 ar   
    22   10  136 1    
    23   11   12 ar   
    24   11  126 1    
    25   12   13 ar   
    26   12  137 1    
    27   13   14 ar   
    28   13   15 1    
    29   14  138 1    
    30   15   16 1    
    31   15  139 1    
    32   15  140 1    
    33   16   17 1    
    34   17   18 1    
    35   17  141 1    
    36   17  142 1    
    37   18   19 1    
    38   18   67 1    
    39   18  143 1    
    40   19   20 am   BACKBONE|DICT|INTERRES
    41   19  144 1    
    42   20   21 2    
    43   20   22 1    
    44   22   23 1    
    45   22   24 1    
    46   22  145 1    
    47   23  146 1    
    48   23  147 1    
    49   23  148 1    
    50   24   25 am   BACKBONE|DICT|INTERRES
    51   24  149 1    
    52   25   26 2    
    53   25   27 1    
    54   27   28 1    
    55   27   29 1    
    56   27  150 1    
    57   28  151 1    
    58   28  152 1    
    59   28  153 1    
    60   29   30 am   BACKBONE|DICT|INTERRES
    61   29  154 1    
    62   30   31 2    
    63   30   32 1    
    64   32   33 1    
    65   32   34 1    
    66   32  155 1    
    67   33  156 1    
    68   33  157 1    
    69   33  158 1    
    70   34   35 am   BACKBONE|DICT|INTERRES
    71   34  159 1    
    72   35   36 2    
    73   35   37 1    
    74   37   38 1    
    75   37   39 1    
    76   37  160 1    
    77   38  161 1    
    78   38  162 1    
    79   38  163 1    
    80   39   40 am   BACKBONE|DICT|INTERRES
    81   39  164 1    
    82   40   41 2    
    83   40   42 1    
    84   42   43 1    
    85   42   44 1    
    86   42  165 1    
    87   43  166 1    
    88   43  167 1    
    89   43  168 1    
    90   44   45 am   BACKBONE|DICT|INTERRES
    91   44  169 1    
    92   45   46 2    
    93   45   47 1    
    94   47   48 1    
    95   47   49 1    
    96   47  170 1    
    97   48  171 1    
    98   48  172 1    
    99   48  173 1    
   100   49   50 am   BACKBONE|DICT|INTERRES
   101   49  174 1    
   102   50   51 2    
   103   50   52 1    
   104   52   53 1    
   105   52   54 1    
   106   52  175 1    
   107   53  176 1    
   108   53  177 1    
   109   53  178 1    
   110   54   55 am   BACKBONE|DICT|INTERRES
   111   54  179 1    
   112   55   56 2    
   113   55   57 1    
   114   57   58 1    
   115   57   59 1    
   116   57  180 1    
   117   58  181 1    
   118   58  182 1    
   119   58  183 1    
   120   59   60 am   BACKBONE|DICT|INTERRES
   121   59  184 1    
   122   60   61 2    
   123   60   62 1    
   124   62   63 1    
   125   62   64 1    
   126   62  185 1    
   127   63  186 1    
   128   63  187 1    
   129   63  188 1    
   130   64   65 am   BACKBONE|DICT|INTERRES
   131   64  189 1    
   132   65   66 2    
   133   67   68 2    
   134   67   69 am   BACKBONE|DICT|INTERRES
   135   69   70 1    
   136   69  190 1    
   137   70   71 1    
   138   70   72 1    
   139   70  191 1    
   140   71  192 1    
   141   71  193 1    
   142   71  194 1    
   143   72   73 2    
   144   72   74 am   BACKBONE|DICT|INTERRES
   145   74   75 1    
   146   74  195 1    
   147   75   76 1    
   148   75   77 1    
   149   75  196 1    
   150   76  197 1    
   151   76  198 1    
   152   76  199 1    
   153   77   78 2    
   154   77   79 am   BACKBONE|DICT|INTERRES
   155   79   80 1    
   156   79  200 1    
   157   80   81 1    
   158   80   82 1    
   159   80  201 1    
   160   81  202 1    
   161   81  203 1    
   162   81  204 1    
   163   82   83 2    
   164   82   84 am   BACKBONE|DICT|INTERRES
   165   84   85 1    
   166   84  205 1    
   167   85   86 1    
   168   85   87 1    
   169   85  206 1    
   170   86  207 1    
   171   86  208 1    
   172   86  209 1    
   173   87   88 2    
   174   87   89 am   BACKBONE|DICT|INTERRES
   175   89   90 1    
   176   89  210 1    
   177   90   91 1    
   178   90   92 1    
   179   90  211 1    
   180   91  212 1    
   181   91  213 1    
   182   91  214 1    
   183   92   93 2    
   184   92   94 am   BACKBONE|DICT|INTERRES
   185   94   95 1    
   186   94  215 1    
   187   95   96 1    
   188   95   97 1    
   189   95  216 1    
   190   96  217 1    
   191   96  218 1    
   192   96  219 1    
   193   97   98 2    
   194   97   99 am   BACKBONE|DICT|INTERRES
   195   99  100 1    
   196   99  220 1    
   197  100  101 1    
   198  100  102 1    
   199  100  221 1    
   200  101  222 1    
   201  101  223 1    
   202  101  224 1    
   203  102  103 2    
   204  102  104 am   BACKBONE|DICT|INTERRES
   205  104  105 1    
   206  104  225 1    
   207  105  106 1    
   208  105  107 1    
   209  105  226 1    
   210  106  227 1    
   211  106  228 1    
   212  106  229 1    
   213  107  108 2    
   214  107  109 am   BACKBONE|DICT|INTERRES
   215  109  110 1    
   216  109  230 1    
   217  110  111 1    
   218  110  112 1    
   219  110  231 1    
   220  111  232 1    
   221  111  233 1    
   222  111  234 1    
   223  112  113 2    
   224  112  114 am   BACKBONE|DICT|INTERRES
   225  114  115 1    
   226  114  235 1    
   227  115  116 1    
   228  115  117 1    
   229  115  236 1    
   230  116  237 1    
   231  116  238 1    
   232  116  239 1    
   233  117  118 2    
   234  117  119 am   BACKBONE|DICT|INTERRES
   235  119  120 1    
   236  119  240 1    
   237  120  121 1    
   238  120  124 1    
   239  120  241 1    
   240  121  122 am   BACKBONE|DICT|INTERRES
   241  121  123 2    
   242  122  242 1    
   243  122  243 1    
   244  124  125 1    
   245  124  244 1    
   246  124  245 1    
   247  125  126 1    
   248  126  246 1    
   249  126  247 1    
@<TRIPOS>SUBSTRUCTURE
     1 UNK         1 GROUP             0       ****    0 ROOT    
