@<TRIPOS>MOLECULE
3R540
247   249    1
SMALL
USER_CHARGES


@<TRIPOS>ATOM
      1 CA         -0.9791  -11.1664  -44.4802 C.3       0 UNK        -0.1800 
      2 C          -0.8357  -10.5881  -45.8797 C.2       0 UNK         0.5000 
      3 O          -1.2823   -9.4674  -46.1251 O.2       0 UNK        -0.5000 
      4 N          -0.1910  -11.3267  -46.7928 N.am      1 UNK        -0.5000 
      5 CA          0.1296  -10.8945  -48.1582 C.3       1 UNK         0.1400 
      6 C6          0.3221  -12.0928  -49.1276 C.3       23 UNK        -0.0398 
      7 S7          1.5509  -13.3447  -48.6120 S.3       23 UNK        -0.2404 
      8 C8          1.4218  -14.5522  -49.9688 C.3       23 UNK        -0.0205 
      9 C9          0.4848  -15.6972  -49.6147 C.ar      23 UNK        -0.0193 
     10 C10        -0.8908  -15.5883  -49.8426 C.ar      23 UNK        -0.1150 
     11 C11        -1.7539  -16.6354  -49.5033 C.ar      23 UNK        -0.0193 
     12 C12        -1.2203  -17.7926  -48.9301 C.ar      23 UNK        -0.1150 
     13 C13         0.1525  -17.9294  -48.7142 C.ar      23 UNK        -0.0193 
     14 C14         0.9997  -16.8752  -49.0644 C.ar      23 UNK        -0.1150 
     15 C15         0.7260  -19.2120  -48.1194 C.3       23 UNK        -0.0205 
     16 S16         0.0833  -19.5668  -46.4511 S.3       23 UNK        -0.2404 
     17 C17        -1.3257  -20.6851  -46.7866 C.3       23 UNK        -0.0398 
     18 CA         -0.9607  -22.1634  -46.5337 C.3       11 UNK         0.1400 
     19 N          -0.5895  -22.4223  -45.1418 N.am      11 UNK        -0.5000 
     20 C          -0.0017  -23.5457  -44.7123 C.2       10 UNK         0.5000 
     21 O           0.2882  -24.4883  -45.4481 O.2       10 UNK        -0.5000 
     22 CA          0.2759  -23.6438  -43.2050 C.3       10 UNK         0.1400 
     23 CB          1.5685  -22.8993  -42.8372 C.3       10 UNK        -0.1800 
     24 N          -0.8376  -23.1089  -42.4238 N.am      10 UNK        -0.5000 
     25 C          -1.9887  -23.7595  -42.2105 C.2       9 UNK         0.5000 
     26 O          -2.2182  -24.8968  -42.6244 O.2       9 UNK        -0.5000 
     27 CA         -3.0759  -22.9998  -41.4248 C.3       9 UNK         0.1400 
     28 CB         -2.8406  -23.1299  -39.9125 C.3       9 UNK        -0.1800 
     29 N          -3.1665  -21.5809  -41.7803 N.am      9 UNK        -0.5000 
     30 C          -3.5362  -21.1335  -42.9877 C.2       8 UNK         0.5000 
     31 O          -3.8226  -21.8709  -43.9273 O.2       8 UNK        -0.5000 
     32 CA         -3.5512  -19.6108  -43.2068 C.3       8 UNK         0.1400 
     33 CB         -4.8531  -19.0030  -42.6641 C.3       8 UNK        -0.1800 
     34 N          -2.4088  -18.8694  -42.6630 N.am      8 UNK        -0.5000 
     35 C          -1.1127  -19.1844  -42.7886 C.2       7 UNK         0.5000 
     36 O          -0.6982  -20.2614  -43.2188 O.2       7 UNK        -0.5000 
     37 CA         -0.1124  -18.0640  -42.4559 C.3       7 UNK         0.1400 
     38 CB          1.2251  -18.6192  -41.9369 C.3       7 UNK        -0.1800 
     39 N           0.1368  -17.2873  -43.6677 N.am      7 UNK        -0.5000 
     40 C          -0.7081  -16.3955  -44.2034 C.2       6 UNK         0.5000 
     41 O          -1.7297  -16.0010  -43.6376 O.2       6 UNK        -0.5000 
     42 CA         -0.3539  -15.8969  -45.6192 C.3       6 UNK         0.1400 
     43 CB         -1.1562  -14.6557  -46.0541 C.3       6 UNK        -0.1800 
     44 N           1.0900  -15.7149  -45.8150 N.am      6 UNK        -0.5000 
     45 C           1.8914  -14.8244  -45.2125 C.2       5 UNK         0.5000 
     46 O           1.4925  -13.9593  -44.4316 O.2       5 UNK        -0.5000 
     47 CA          3.3958  -14.8964  -45.5342 C.3       5 UNK         0.1400 
     48 CB          3.7689  -15.9018  -46.6483 C.3       5 UNK        -0.1800 
     49 N           3.8589  -13.5552  -45.8752 N.am      5 UNK        -0.5000 
     50 C           5.1302  -13.1407  -45.8938 C.2       4 UNK         0.5000 
     51 O           6.0914  -13.8533  -45.6008 O.2       4 UNK        -0.5000 
     52 CA          5.3699  -11.6775  -46.3078 C.3       4 UNK         0.1400 
     53 CB          5.4954  -11.5671  -47.8350 C.3       4 UNK        -0.1800 
     54 N           4.3151  -10.7758  -45.8375 N.am      4 UNK        -0.5000 
     55 C           4.2016  -10.3584  -44.5663 C.2       3 UNK         0.5000 
     56 O           4.9744  -10.7147  -43.6750 O.2       3 UNK        -0.5000 
     57 CA          3.0384   -9.4022  -44.2112 C.3       3 UNK         0.1400 
     58 CB          3.4472   -8.3359  -43.1737 C.3       3 UNK        -0.1800 
     59 N           2.3858   -8.7797  -45.3677 N.am      3 UNK        -0.5000 
     60 C           2.9085   -7.9315  -46.2679 C.2       2 UNK         0.5000 
     61 O           4.0488   -7.4709  -46.2006 O.2       2 UNK        -0.5000 
     62 CA          1.9912   -7.5761  -47.4628 C.3       2 UNK         0.1400 
     63 CB          2.7817   -7.1593  -48.7208 C.3       2 UNK        -0.1800 
     64 N           1.0308   -8.6461  -47.7778 N.am      2 UNK        -0.5000 
     65 C           1.3208   -9.9107  -48.1216 C.2       1 UNK         0.5000 
     66 O           2.4710  -10.3151  -48.2878 O.2       1 UNK        -0.5000 
     67 C          -2.0712  -23.1165  -47.0229 C.2       11 UNK         0.5000 
     68 O          -1.9931  -23.5927  -48.1550 O.2       11 UNK        -0.5000 
     69 N          -3.0496  -23.4288  -46.1594 N.am      12 UNK        -0.5000 
     70 CA         -4.0876  -24.4318  -46.4057 C.3       12 UNK         0.1400 
     71 CB         -5.1057  -24.4345  -45.2561 C.3       12 UNK        -0.1800 
     72 C          -3.5032  -25.8383  -46.6173 C.2       12 UNK         0.5000 
     73 O          -3.8811  -26.5094  -47.5790 O.2       12 UNK        -0.5000 
     74 N          -2.5568  -26.2278  -45.7488 N.am      13 UNK        -0.5000 
     75 CA         -1.8160  -27.4891  -45.8283 C.3       13 UNK         0.1400 
     76 CB         -0.9659  -27.6701  -44.5620 C.3       13 UNK        -0.1800 
     77 C          -0.9502  -27.5999  -47.0985 C.2       13 UNK         0.5000 
     78 O          -0.8419  -28.6877  -47.6644 O.2       13 UNK        -0.5000 
     79 N          -0.4164  -26.4663  -47.5732 N.am      14 UNK        -0.5000 
     80 CA          0.2931  -26.3081  -48.8464 C.3       14 UNK         0.1400 
     81 CB          1.2091  -25.0746  -48.7527 C.3       14 UNK        -0.1800 
     82 C          -0.6596  -26.2403  -50.0651 C.2       14 UNK         0.5000 
     83 O          -0.4298  -25.4517  -50.9847 O.2       14 UNK        -0.5000 
     84 N          -1.7166  -27.0657  -50.0501 N.am      15 UNK        -0.5000 
     85 CA         -2.7512  -27.2272  -51.0755 C.3       15 UNK         0.1400 
     86 CB         -2.1618  -27.9327  -52.3149 C.3       15 UNK        -0.1800 
     87 C          -3.4678  -25.9077  -51.4252 C.2       15 UNK         0.5000 
     88 O          -3.6307  -25.5937  -52.6048 O.2       15 UNK        -0.5000 
     89 N          -3.8512  -25.1422  -50.3919 N.am      16 UNK        -0.5000 
     90 CA         -4.4693  -23.8112  -50.4807 C.3       16 UNK         0.1400 
     91 CB         -5.8867  -23.9133  -51.0812 C.3       16 UNK        -0.1800 
     92 C          -3.5733  -22.7936  -51.2191 C.2       16 UNK         0.5000 
     93 O          -4.0558  -22.0466  -52.0736 O.2       16 UNK        -0.5000 
     94 N          -2.2787  -22.8193  -50.8737 N.am      17 UNK        -0.5000 
     95 CA         -1.1580  -22.1008  -51.4832 C.3       17 UNK         0.1400 
     96 CB         -1.2483  -20.5946  -51.1859 C.3       17 UNK        -0.1800 
     97 C          -1.0106  -22.4234  -52.9823 C.2       17 UNK         0.5000 
     98 O          -0.9671  -21.5161  -53.8136 O.2       17 UNK        -0.5000 
     99 N          -0.9556  -23.7281  -53.2858 N.am      18 UNK        -0.5000 
    100 CA        -0.8857  -24.3244  -54.6232 C.3       18 UNK         0.1400 
    101 CB         0.4782  -24.0284  -55.2812 C.3       18 UNK        -0.1800 
    102 C         -2.0891  -23.9314  -55.5074 C.2       18 UNK         0.5000 
    103 O         -1.9123  -23.4362  -56.6223 O.2       18 UNK        -0.5000 
    104 N         -3.2948  -24.1685  -54.9729 N.am      19 UNK        -0.5000 
    105 CA        -4.6073  -23.9331  -55.5796 C.3       19 UNK         0.1400 
    106 CB        -4.8125  -24.8355  -56.8146 C.3       19 UNK        -0.1800 
    107 C         -4.9131  -22.4455  -55.8564 C.2       19 UNK         0.5000 
    108 O         -5.6171  -22.1306  -56.8177 O.2       19 UNK        -0.5000 
    109 N         -4.4173  -21.5549  -54.9870 N.am      20 UNK        -0.5000 
    110 CA        -4.7209  -20.1202  -55.0010 C.3       20 UNK         0.1400 
    111 CB        -3.5116  -19.3494  -54.4551 C.3       20 UNK        -0.1800 
    112 C         -5.9924  -19.7787  -54.1951 C.2       20 UNK         0.5000 
    113 O         -6.4060  -18.6188  -54.1899 O.2       20 UNK        -0.5000 
    114 N         -6.5815  -20.7881  -53.5350 N.am      21 UNK        -0.5000 
    115 CA        -7.7682  -20.7352  -52.6747 C.3       21 UNK         0.1400 
    116 CB        -9.0021  -20.1976  -53.4307 C.3       21 UNK        -0.1800 
    117 C         -7.5116  -20.0181  -51.3325 C.2       21 UNK         0.5000 
    118 O         -8.4412  -19.4637  -50.7440 O.2       21 UNK        -0.5000 
    119 N         -6.2629  -20.0757  -50.8506 N.am      22 UNK        -0.5000 
    120 CA        -5.8350  -19.5269  -49.5513 C.3       22 UNK         0.1400 
    121 C         -6.1562  -20.4371  -48.3245 C.2       22 UNK         0.5000 
    122 N         -6.8119  -21.5802  -48.4829 N.am      22 UNK        -0.7600 
    123 O         -5.8081  -20.0953  -47.1983 O.2       22 UNK        -0.5000 
    124 C124       -4.3387  -19.1299  -49.5659 C.3       23 UNK        -0.0398 
    125 S125       -3.9506  -17.8224  -50.7846 S.3       23 UNK        -0.2404 
    126 C126       -3.2580  -16.4995  -49.7299 C.3       23 UNK        -0.0205 
    127 H127       -0.9320  -10.3718  -43.7354 H         1 UNK         0.0600 
    128 H128       -0.1829  -11.8760  -44.2581 H         1 UNK         0.0600 
    129 H129       -1.9381  -11.6740  -44.3779 H         1 UNK         0.0600 
    130 H130        0.1717  -12.2340  -46.5358 H         1 UNK         0.3000 
    131 H131       -0.7257  -10.3341  -48.5427 H         1 UNK         0.0600 
    132 H132       -0.6354  -12.5998  -49.2493 H         1 UNK         0.0800 
    133 H133        0.5923  -11.7289  -50.1203 H         1 UNK         0.0800 
    134 H134        2.4186  -14.9422  -50.1800 H         1 UNK         0.0800 
    135 H135        1.0919  -14.0617  -50.8856 H         1 UNK         0.0800 
    136 H136       -1.2890  -14.6832  -50.2781 H         1 UNK         0.1150 
    137 H137       -1.8768  -18.5953  -48.6532 H         1 UNK         0.1150 
    138 H138        2.0646  -16.9721  -48.9125 H         1 UNK         0.1150 
    139 H139        0.5364  -20.0531  -48.7856 H         1 UNK         0.0800 
    140 H140        1.8116  -19.1352  -48.0446 H         1 UNK         0.0800 
    141 H141       -1.6592  -20.5606  -47.8149 H         1 UNK         0.0800 
    142 H142       -2.1632  -20.3844  -46.1552 H         1 UNK         0.0800 
    143 H143       -0.0804  -22.3838  -47.1412 H         1 UNK         0.0600 
    144 H144       -0.7464  -21.6687  -44.4769 H         1 UNK         0.3000 
    145 H145        0.4091  -24.6984  -42.9539 H         1 UNK         0.0600 
    146 H146        1.7897  -22.9954  -41.7742 H         1 UNK         0.0600 
    147 H147        1.5058  -21.8362  -43.0715 H         1 UNK         0.0600 
    148 H148        2.4197  -23.3053  -43.3851 H         1 UNK         0.0600 
    149 H149       -0.7690  -22.1372  -42.1487 H         1 UNK         0.3000 
    150 H150       -4.0355  -23.4652  -41.6601 H         1 UNK         0.0600 
    151 H151       -2.7869  -24.1779  -39.6147 H         1 UNK         0.0600 
    152 H152       -3.6529  -22.6737  -39.3463 H         1 UNK         0.0600 
    153 H153       -1.9083  -22.6533  -39.6069 H         1 UNK         0.0600 
    154 H154       -2.9233  -20.9088  -41.0675 H         1 UNK         0.3000 
    155 H155       -3.5364  -19.4484  -44.2862 H         1 UNK         0.0600 
    156 H156       -5.7249  -19.5184  -43.0697 H         1 UNK         0.0600 
    157 H157       -4.9430  -17.9521  -42.9398 H         1 UNK         0.0600 
    158 H158       -4.9063  -19.0711  -41.5769 H         1 UNK         0.0600 
    159 H159       -2.6205  -17.9353  -42.3398 H         1 UNK         0.3000 
    160 H160       -0.5394  -17.4187  -41.6854 H         1 UNK         0.0600 
    161 H161        1.7267  -19.2369  -42.6832 H         1 UNK         0.0600 
    162 H162        1.0731  -19.2350  -41.0496 H         1 UNK         0.0600 
    163 H163        1.9043  -17.8124  -41.6612 H         1 UNK         0.0600 
    164 H164        0.9264  -17.5802  -44.2236 H         1 UNK         0.3000 
    165 H165       -0.6480  -16.7023  -46.2901 H         1 UNK         0.0600 
    166 H166       -1.0044  -13.8227  -45.3721 H         1 UNK         0.0600 
    167 H167       -0.8782  -14.3358  -47.0575 H         1 UNK         0.0600 
    168 H168       -2.2250  -14.8708  -46.0705 H         1 UNK         0.0600 
    169 H169        1.5142  -16.3567  -46.4688 H         1 UNK         0.3000 
    170 H170        3.8901  -15.2068  -44.6117 H         1 UNK         0.0600 
    171 H171        3.3664  -15.5940  -47.6125 H         1 UNK         0.0600 
    172 H172        4.8499  -15.9823  -46.7605 H         1 UNK         0.0600 
    173 H173        3.4064  -16.9066  -46.4279 H         1 UNK         0.0600 
    174 H174        3.1300  -12.8910  -46.0957 H         1 UNK         0.3000 
    175 H175        6.3182  -11.3564  -45.8712 H         1 UNK         0.0600 
    176 H176        4.6000  -11.9305  -48.3407 H         1 UNK         0.0600 
    177 H177        5.6609  -10.5353  -48.1457 H         1 UNK         0.0600 
    178 H178        6.3370  -12.1574  -48.1993 H         1 UNK         0.0600 
    179 H179        3.6562  -10.4487  -46.5353 H         1 UNK         0.3000 
    180 H180        2.2768  -10.0307  -43.7472 H         1 UNK         0.0600 
    181 H181        4.2665   -7.7130  -43.5334 H         1 UNK         0.0600 
    182 H182        3.7759   -8.7994  -42.2428 H         1 UNK         0.0600 
    183 H183        2.6102   -7.6820  -42.9290 H         1 UNK         0.0600 
    184 H184        1.4356   -9.0775  -45.5343 H         1 UNK         0.3000 
    185 H185        1.3996   -6.7167  -47.1445 H         1 UNK         0.0600 
    186 H186        3.4598   -7.9455  -49.0540 H         1 UNK         0.0600 
    187 H187        2.1114   -6.9218  -49.5468 H         1 UNK         0.0600 
    188 H188        3.3836   -6.2707  -48.5275 H         1 UNK         0.0600 
    189 H189        0.0610   -8.4338  -47.5727 H         1 UNK         0.3000 
    190 H190       -3.0984  -22.9467  -45.2647 H         1 UNK         0.3000 
    191 H191       -4.6180  -24.1503  -47.3151 H         1 UNK         0.0600 
    192 H192       -5.6190  -23.4755  -45.1854 H         1 UNK         0.0600 
    193 H193       -4.6292  -24.6313  -44.2949 H         1 UNK         0.0600 
    194 H194       -5.8688  -25.1987  -45.4091 H         1 UNK         0.0600 
    195 H195       -2.3078  -25.6055  -44.9913 H         1 UNK         0.3000 
    196 H196       -2.5487  -28.2980  -45.8607 H         1 UNK         0.0600 
    197 H197       -1.5851  -27.6484  -43.6649 H         1 UNK         0.0600 
    198 H198       -0.2107  -26.8907  -44.4647 H         1 UNK         0.0600 
    199 H199       -0.4463  -28.6290  -44.5758 H         1 UNK         0.0600 
    200 H200       -0.5270  -25.6242  -47.0197 H         1 UNK         0.3000 
    201 H201        0.9309  -27.1815  -48.9946 H         1 UNK         0.0600 
    202 H202        1.8707  -25.1377  -47.8885 H         1 UNK         0.0600 
    203 H203        0.6334  -24.1534  -48.6667 H         1 UNK         0.0600 
    204 H204        1.8402  -24.9855  -49.6378 H         1 UNK         0.0600 
    205 H205       -1.8055  -27.6720  -49.2436 H         1 UNK         0.3000 
    206 H206       -3.5111  -27.8831  -50.6485 H         1 UNK         0.0600 
    207 H207       -1.6986  -28.8815  -52.0444 H         1 UNK         0.0600 
    208 H208       -1.4064  -27.3204  -52.8082 H         1 UNK         0.0600 
    209 H209       -2.9384  -28.1501  -53.0492 H         1 UNK         0.0600 
    210 H210       -3.6595  -25.4848  -49.4569 H         1 UNK         0.3000 
    211 H211       -4.5684  -23.4370  -49.4628 H         1 UNK         0.0600 
    212 H212       -5.8674  -24.2210  -52.1269 H         1 UNK         0.0600 
    213 H213       -6.3984  -22.9547  -51.0353 H         1 UNK         0.0600 
    214 H214       -6.4955  -24.6311  -50.5317 H         1 UNK         0.0600 
    215 H215       -2.0231  -23.4435  -50.1140 H         1 UNK         0.3000 
    216 H216       -0.2558  -22.4762  -50.9978 H         1 UNK         0.0600 
    217 H217       -0.3625  -20.0666  -51.5404 H         1 UNK         0.0600 
    218 H218       -1.3282  -20.4194  -50.1171 H         1 UNK         0.0600 
    219 H219       -2.1141  -20.1380  -51.6586 H         1 UNK         0.0600 
    220 H220       -0.9725  -24.3879  -52.5114 H         1 UNK         0.3000 
    221 H221       -0.9517  -25.4036  -54.4791 H         1 UNK         0.0600 
    222 H222        0.6105  -22.9653  -55.4844 H         1 UNK         0.0600 
    223 H223        1.3008  -24.3529  -54.6440 H         1 UNK         0.0600 
    224 H224        0.5752  -24.5567  -56.2303 H         1 UNK         0.0600 
    225 H225       -3.3280  -24.5980  -54.0478 H         1 UNK         0.3000 
    226 H226       -5.3339  -24.2466  -54.8288 H         1 UNK         0.0600 
    227 H227       -4.6081  -25.8797  -56.5777 H         1 UNK         0.0600 
    228 H228       -5.8413  -24.7819  -57.1724 H         1 UNK         0.0600 
    229 H229       -4.1641  -24.5453  -57.6417 H         1 UNK         0.0600 
    230 H230       -3.8732  -21.8856  -54.1974 H         1 UNK         0.3000 
    231 H231       -4.8884  -19.7935  -56.0292 H         1 UNK         0.0600 
    232 H232       -3.6696  -18.2721  -54.5163 H         1 UNK         0.0600 
    233 H233       -2.6066  -19.5796  -55.0173 H         1 UNK         0.0600 
    234 H234       -3.3313  -19.5930  -53.4102 H         1 UNK         0.0600 
    235 H235       -6.1139  -21.6823  -53.5785 H         1 UNK         0.3000 
    236 H236       -7.9881  -21.7716  -52.4166 H         1 UNK         0.0600 
    237 H237       -8.9220  -19.1302  -53.6373 H         1 UNK         0.0600 
    238 H238       -9.1405  -20.7151  -54.3799 H         1 UNK         0.0600 
    239 H239       -9.9111  -20.3456  -52.8467 H         1 UNK         0.0600 
    240 H240       -5.5496  -20.5407  -51.3990 H         1 UNK         0.3000 
    241 H241       -6.4020  -18.6108  -49.3757 H         1 UNK         0.0600 
    242 H242       -7.0263  -22.1348  -47.6698 H         1 UNK         0.3800 
    243 H243       -7.1677  -21.8502  -49.3832 H         1 UNK         0.3800 
    244 H244       -3.7203  -20.0023  -49.7765 H         1 UNK         0.0800 
    245 H245       -4.0460  -18.7794  -48.5761 H         1 UNK         0.0800 
    246 H246       -3.4761  -15.5457  -50.2123 H         1 UNK         0.0800 
    247 H247       -3.7716  -16.4711  -48.7683 H         1 UNK         0.0800 
@<TRIPOS>BOND
     1    1    2 1    
     2    1  127 1    
     3    1  128 1    
     4    1  129 1    
     5    2    3 2    
     6    2    4 am   BACKBONE|DICT|INTERRES
     7    4    5 1    
     8    4  130 1    
     9    5    6 1    
    10    5   65 1    
    11    5  131 1    
    12    6    7 1    
    13    6  132 1    
    14    6  133 1    
    15    7    8 1    
    16    8    9 1    
    17    8  134 1    
    18    8  135 1    
    19    9   10 ar   
    20    9   14 ar   
    21   10   11 ar   
    22   10  136 1    
    23   11   12 ar   
    24   11  126 1    
    25   12   13 ar   
    26   12  137 1    
    27   13   14 ar   
    28   13   15 1    
    29   14  138 1    
    30   15   16 1    
    31   15  139 1    
    32   15  140 1    
    33   16   17 1    
    34   17   18 1    
    35   17  141 1    
    36   17  142 1    
    37   18   19 1    
    38   18   67 1    
    39   18  143 1    
    40   19   20 am   BACKBONE|DICT|INTERRES
    41   19  144 1    
    42   20   21 2    
    43   20   22 1    
    44   22   23 1    
    45   22   24 1    
    46   22  145 1    
    47   23  146 1    
    48   23  147 1    
    49   23  148 1    
    50   24   25 am   BACKBONE|DICT|INTERRES
    51   24  149 1    
    52   25   26 2    
    53   25   27 1    
    54   27   28 1    
    55   27   29 1    
    56   27  150 1    
    57   28  151 1    
    58   28  152 1    
    59   28  153 1    
    60   29   30 am   BACKBONE|DICT|INTERRES
    61   29  154 1    
    62   30   31 2    
    63   30   32 1    
    64   32   33 1    
    65   32   34 1    
    66   32  155 1    
    67   33  156 1    
    68   33  157 1    
    69   33  158 1    
    70   34   35 am   BACKBONE|DICT|INTERRES
    71   34  159 1    
    72   35   36 2    
    73   35   37 1    
    74   37   38 1    
    75   37   39 1    
    76   37  160 1    
    77   38  161 1    
    78   38  162 1    
    79   38  163 1    
    80   39   40 am   BACKBONE|DICT|INTERRES
    81   39  164 1    
    82   40   41 2    
    83   40   42 1    
    84   42   43 1    
    85   42   44 1    
    86   42  165 1    
    87   43  166 1    
    88   43  167 1    
    89   43  168 1    
    90   44   45 am   BACKBONE|DICT|INTERRES
    91   44  169 1    
    92   45   46 2    
    93   45   47 1    
    94   47   48 1    
    95   47   49 1    
    96   47  170 1    
    97   48  171 1    
    98   48  172 1    
    99   48  173 1    
   100   49   50 am   BACKBONE|DICT|INTERRES
   101   49  174 1    
   102   50   51 2    
   103   50   52 1    
   104   52   53 1    
   105   52   54 1    
   106   52  175 1    
   107   53  176 1    
   108   53  177 1    
   109   53  178 1    
   110   54   55 am   BACKBONE|DICT|INTERRES
   111   54  179 1    
   112   55   56 2    
   113   55   57 1    
   114   57   58 1    
   115   57   59 1    
   116   57  180 1    
   117   58  181 1    
   118   58  182 1    
   119   58  183 1    
   120   59   60 am   BACKBONE|DICT|INTERRES
   121   59  184 1    
   122   60   61 2    
   123   60   62 1    
   124   62   63 1    
   125   62   64 1    
   126   62  185 1    
   127   63  186 1    
   128   63  187 1    
   129   63  188 1    
   130   64   65 am   BACKBONE|DICT|INTERRES
   131   64  189 1    
   132   65   66 2    
   133   67   68 2    
   134   67   69 am   BACKBONE|DICT|INTERRES
   135   69   70 1    
   136   69  190 1    
   137   70   71 1    
   138   70   72 1    
   139   70  191 1    
   140   71  192 1    
   141   71  193 1    
   142   71  194 1    
   143   72   73 2    
   144   72   74 am   BACKBONE|DICT|INTERRES
   145   74   75 1    
   146   74  195 1    
   147   75   76 1    
   148   75   77 1    
   149   75  196 1    
   150   76  197 1    
   151   76  198 1    
   152   76  199 1    
   153   77   78 2    
   154   77   79 am   BACKBONE|DICT|INTERRES
   155   79   80 1    
   156   79  200 1    
   157   80   81 1    
   158   80   82 1    
   159   80  201 1    
   160   81  202 1    
   161   81  203 1    
   162   81  204 1    
   163   82   83 2    
   164   82   84 am   BACKBONE|DICT|INTERRES
   165   84   85 1    
   166   84  205 1    
   167   85   86 1    
   168   85   87 1    
   169   85  206 1    
   170   86  207 1    
   171   86  208 1    
   172   86  209 1    
   173   87   88 2    
   174   87   89 am   BACKBONE|DICT|INTERRES
   175   89   90 1    
   176   89  210 1    
   177   90   91 1    
   178   90   92 1    
   179   90  211 1    
   180   91  212 1    
   181   91  213 1    
   182   91  214 1    
   183   92   93 2    
   184   92   94 am   BACKBONE|DICT|INTERRES
   185   94   95 1    
   186   94  215 1    
   187   95   96 1    
   188   95   97 1    
   189   95  216 1    
   190   96  217 1    
   191   96  218 1    
   192   96  219 1    
   193   97   98 2    
   194   97   99 am   BACKBONE|DICT|INTERRES
   195   99  100 1    
   196   99  220 1    
   197  100  101 1    
   198  100  102 1    
   199  100  221 1    
   200  101  222 1    
   201  101  223 1    
   202  101  224 1    
   203  102  103 2    
   204  102  104 am   BACKBONE|DICT|INTERRES
   205  104  105 1    
   206  104  225 1    
   207  105  106 1    
   208  105  107 1    
   209  105  226 1    
   210  106  227 1    
   211  106  228 1    
   212  106  229 1    
   213  107  108 2    
   214  107  109 am   BACKBONE|DICT|INTERRES
   215  109  110 1    
   216  109  230 1    
   217  110  111 1    
   218  110  112 1    
   219  110  231 1    
   220  111  232 1    
   221  111  233 1    
   222  111  234 1    
   223  112  113 2    
   224  112  114 am   BACKBONE|DICT|INTERRES
   225  114  115 1    
   226  114  235 1    
   227  115  116 1    
   228  115  117 1    
   229  115  236 1    
   230  116  237 1    
   231  116  238 1    
   232  116  239 1    
   233  117  118 2    
   234  117  119 am   BACKBONE|DICT|INTERRES
   235  119  120 1    
   236  119  240 1    
   237  120  121 1    
   238  120  124 1    
   239  120  241 1    
   240  121  122 am   BACKBONE|DICT|INTERRES
   241  121  123 2    
   242  122  242 1    
   243  122  243 1    
   244  124  125 1    
   245  124  244 1    
   246  124  245 1    
   247  125  126 1    
   248  126  246 1    
   249  126  247 1    
@<TRIPOS>SUBSTRUCTURE
     1 UNK         1 GROUP             0       ****    0 ROOT    
