@<TRIPOS>MOLECULE
3R540
247   249    1
SMALL
USER_CHARGES


@<TRIPOS>ATOM
      1 CA          7.0692   -9.8452  -47.4916 C.3       0 UNK        -0.1800 
      2 C           5.8222  -10.7015  -47.6585 C.2       0 UNK         0.5000 
      3 O           4.7404  -10.3030  -47.2246 O.2       0 UNK        -0.5000 
      4 N           5.9609  -11.8716  -48.2951 N.am      1 UNK        -0.5000 
      5 CA          4.8856  -12.8331  -48.5682 C.3       1 UNK         0.1400 
      6 C6          5.4492  -14.2737  -48.6880 C.3       23 UNK        -0.0398 
      7 S7          4.2181  -15.5425  -48.2435 S.3       23 UNK        -0.2404 
      8 C8          3.9785  -16.3816  -49.8387 C.3       23 UNK        -0.0205 
      9 C9          2.9772  -17.5138  -49.6987 C.ar      23 UNK        -0.0193 
     10 C10         1.6138  -17.2725  -49.8935 C.ar      23 UNK        -0.1150 
     11 C11         0.6820  -18.2983  -49.7131 C.ar      23 UNK        -0.0193 
     12 C12         1.1265  -19.5735  -49.3520 C.ar      23 UNK        -0.1150 
     13 C13         2.4868  -19.8285  -49.1641 C.ar      23 UNK        -0.0193 
     14 C14         3.4098  -18.7947  -49.3418 C.ar      23 UNK        -0.1150 
     15 C15         2.9482  -21.2161  -48.7507 C.3       23 UNK        -0.0205 
     16 S16         3.0458  -21.3553  -46.9389 S.3       23 UNK        -0.2404 
     17 C17         2.9412  -23.1600  -46.7092 C.3       23 UNK        -0.0398 
     18 CA          1.5474  -23.6994  -46.2971 C.3       11 UNK         0.1400 
     19 N           1.0253  -23.1377  -45.0471 N.am      11 UNK        -0.5000 
     20 C           0.1101  -23.7642  -44.2912 C.2       10 UNK         0.5000 
     21 O          -0.3455  -24.8774  -44.5602 O.2       10 UNK        -0.5000 
     22 CA         -0.4129  -23.0124  -43.0540 C.3       10 UNK         0.1400 
     23 CB          0.6419  -22.9861  -41.9377 C.3       10 UNK        -0.1800 
     24 N          -0.8316  -21.6469  -43.3656 N.am      10 UNK        -0.5000 
     25 C          -1.8768  -21.3301  -44.1443 C.2       9 UNK         0.5000 
     26 O          -2.6235  -22.1647  -44.6547 O.2       9 UNK        -0.5000 
     27 CA         -2.1044  -19.8327  -44.4393 C.3       9 UNK         0.1400 
     28 CB         -3.0806  -19.2208  -43.4246 C.3       9 UNK        -0.1800 
     29 N          -0.8735  -19.0416  -44.4579 N.am      9 UNK        -0.5000 
     30 C           0.1794  -19.2687  -45.2532 C.2       8 UNK         0.5000 
     31 O           0.2046  -20.1715  -46.0853 O.2       8 UNK        -0.5000 
     32 CA          1.4176  -18.3754  -45.0585 C.3       8 UNK         0.1400 
     33 CB          1.4023  -17.2000  -46.0430 C.3       8 UNK        -0.1800 
     34 N           1.5353  -17.8571  -43.6947 N.am      8 UNK        -0.5000 
     35 C           1.8990  -18.5816  -42.6282 C.2       7 UNK         0.5000 
     36 O           2.1674  -19.7820  -42.6776 O.2       7 UNK        -0.5000 
     37 CA          1.9621  -17.8392  -41.2795 C.3       7 UNK         0.1400 
     38 CB          3.3253  -17.1522  -41.1068 C.3       7 UNK        -0.1800 
     39 N           0.8992  -16.8409  -41.1420 N.am      7 UNK        -0.5000 
     40 C          -0.3754  -17.1381  -40.8534 C.2       6 UNK         0.5000 
     41 O          -0.7708  -18.2773  -40.6051 O.2       6 UNK        -0.5000 
     42 CA         -1.3871  -15.9721  -40.8757 C.3       6 UNK         0.1400 
     43 CB         -1.4588  -15.2966  -39.4979 C.3       6 UNK        -0.1800 
     44 N          -1.1284  -14.9518  -41.9015 N.am      6 UNK        -0.5000 
     45 C          -1.0410  -15.1964  -43.2158 C.2       5 UNK         0.5000 
     46 O          -1.0851  -16.3323  -43.6890 O.2       5 UNK        -0.5000 
     47 CA         -0.8234  -13.9826  -44.1445 C.3       5 UNK         0.1400 
     48 CB          0.5969  -13.4202  -43.9696 C.3       5 UNK        -0.1800 
     49 N          -1.0024  -14.3297  -45.5557 N.am      5 UNK        -0.5000 
     50 C          -2.1425  -14.7348  -46.1272 C.2       4 UNK         0.5000 
     51 O          -3.2423  -14.6758  -45.5735 O.2       4 UNK        -0.5000 
     52 CA         -2.0163  -15.2869  -47.5635 C.3       4 UNK         0.1400 
     53 CB         -3.2696  -16.0677  -48.0008 C.3       4 UNK        -0.1800 
     54 N          -1.7546  -14.2271  -48.5359 N.am      4 UNK        -0.5000 
     55 C          -0.6027  -13.5614  -48.6831 C.2       3 UNK         0.5000 
     56 O           0.4189  -13.8010  -48.0316 O.2       3 UNK        -0.5000 
     57 CA         -0.6122  -12.4184  -49.7103 C.3       3 UNK         0.1400 
     58 CB         -1.6154  -11.3158  -49.3137 C.3       3 UNK        -0.1800 
     59 N           0.7265  -11.8477  -49.8117 N.am      3 UNK        -0.5000 
     60 C           1.1962  -11.1332  -50.8402 C.2       2 UNK         0.5000 
     61 O           0.5428  -10.8929  -51.8566 O.2       2 UNK        -0.5000 
     62 CA          2.6245  -10.5679  -50.7168 C.3       2 UNK         0.1400 
     63 CB          2.5802   -9.0577  -50.4345 C.3       2 UNK        -0.1800 
     64 N           3.4182  -11.2111  -49.6690 N.am      2 UNK        -0.5000 
     65 C           4.0502  -12.3840  -49.7913 C.2       1 UNK         0.5000 
     66 O           4.0251  -13.0580  -50.8220 O.2       1 UNK        -0.5000 
     67 C           0.5050  -23.6349  -47.4317 C.2       11 UNK         0.5000 
     68 O           0.4831  -24.5394  -48.2645 O.2       11 UNK        -0.5000 
     69 N          -0.3785  -22.6233  -47.4200 N.am      12 UNK        -0.5000 
     70 CA         -1.5210  -22.5167  -48.3298 C.3       12 UNK         0.1400 
     71 CB         -2.2647  -21.1897  -48.1170 C.3       12 UNK        -0.1800 
     72 C          -2.5013  -23.6887  -48.1704 C.2       12 UNK         0.5000 
     73 O          -2.9575  -24.2321  -49.1751 O.2       12 UNK        -0.5000 
     74 N          -2.8017  -24.0698  -46.9215 N.am      13 UNK        -0.5000 
     75 CA         -3.6377  -25.2246  -46.5943 C.3       13 UNK         0.1400 
     76 CB         -3.9471  -25.2331  -45.0906 C.3       13 UNK        -0.1800 
     77 C          -3.0008  -26.5537  -47.0374 C.2       13 UNK         0.5000 
     78 O          -3.6991  -27.3980  -47.5983 O.2       13 UNK        -0.5000 
     79 N          -1.6836  -26.6943  -46.8270 N.am      14 UNK        -0.5000 
     80 CA         -0.8937  -27.8510  -47.2592 C.3       14 UNK         0.1400 
     81 CB          0.5119  -27.7700  -46.6454 C.3       14 UNK        -0.1800 
     82 C          -0.8143  -27.9876  -48.7934 C.2       14 UNK         0.5000 
     83 O          -0.8975  -29.1016  -49.3111 O.2       14 UNK        -0.5000 
     84 N          -0.6860  -26.8511  -49.4912 N.am      15 UNK        -0.5000 
     85 CA         -0.6671  -26.7498  -50.9527 C.3       15 UNK         0.1400 
     86 CB         -0.0422  -25.3993  -51.3405 C.3       15 UNK        -0.1800 
     87 C          -2.0571  -26.8957  -51.6064 C.2       15 UNK         0.5000 
     88 O          -2.1310  -27.0047  -52.8307 O.2       15 UNK        -0.5000 
     89 N          -3.1238  -26.8626  -50.7934 N.am      16 UNK        -0.5000 
     90 CA         -4.5427  -26.8575  -51.1698 C.3       16 UNK         0.1400 
     91 CB         -4.9321  -28.1395  -51.9349 C.3       16 UNK        -0.1800 
     92 C          -4.9840  -25.5633  -51.8904 C.2       16 UNK         0.5000 
     93 O          -6.0045  -25.5587  -52.5805 O.2       16 UNK        -0.5000 
     94 N          -4.2294  -24.4764  -51.6824 N.am      17 UNK        -0.5000 
     95 CA         -4.5881  -23.1111  -52.0631 C.3       17 UNK         0.1400 
     96 CB         -3.3126  -22.2550  -52.1151 C.3       17 UNK        -0.1800 
     97 C          -5.6029  -22.5103  -51.0739 C.2       17 UNK         0.5000 
     98 O          -6.4690  -21.7347  -51.4815 O.2       17 UNK        -0.5000 
     99 N          -5.4693  -22.8965  -49.7936 N.am      18 UNK        -0.5000 
    100 CA        -6.3830  -22.6703  -48.6656 C.3       18 UNK         0.1400 
    101 CB        -7.6479  -23.5315  -48.8538 C.3       18 UNK        -0.1800 
    102 C         -6.7240  -21.1922  -48.3749 C.2       18 UNK         0.5000 
    103 O         -7.7604  -20.9166  -47.7696 O.2       18 UNK        -0.5000 
    104 N         -5.8637  -20.2720  -48.8356 N.am      19 UNK        -0.5000 
    105 CA        -6.0270  -18.8124  -48.8406 C.3       19 UNK         0.1400 
    106 CB        -6.1518  -18.2543  -47.4072 C.3       19 UNK        -0.1800 
    107 C         -7.1537  -18.3071  -49.7744 C.2       19 UNK         0.5000 
    108 O         -7.4518  -17.1117  -49.7656 O.2       19 UNK        -0.5000 
    109 N         -7.7378  -19.2016  -50.5862 N.am      20 UNK        -0.5000 
    110 CA        -8.6425  -18.8696  -51.6855 C.3       20 UNK         0.1400 
    111 CB        -9.5683  -20.0629  -51.9699 C.3       20 UNK        -0.1800 
    112 C         -7.8199  -18.4889  -52.9270 C.2       20 UNK         0.5000 
    113 O         -8.0783  -17.4539  -53.5427 O.2       20 UNK        -0.5000 
    114 N         -6.7986  -19.3039  -53.2197 N.am      21 UNK        -0.5000 
    115 CA        -5.6521  -18.9314  -54.0441 C.3       21 UNK         0.1400 
    116 CB        -5.1768  -20.1662  -54.8250 C.3       21 UNK        -0.1800 
    117 C         -4.5430  -18.3700  -53.1319 C.2       21 UNK         0.5000 
    118 O         -4.6392  -18.4950  -51.9101 O.2       21 UNK        -0.5000 
    119 N         -3.5382  -17.7277  -53.7396 N.am      22 UNK        -0.5000 
    120 CA        -2.3854  -17.0254  -53.1296 C.3       22 UNK         0.1400 
    121 C         -2.6909  -15.8584  -52.1381 C.2       22 UNK         0.5000 
    122 N         -3.9234  -15.6551  -51.6943 N.am      22 UNK        -0.7600 
    123 O         -1.7947  -15.0892  -51.8046 O.2       22 UNK        -0.5000 
    124 C124       -1.2436  -17.9652  -52.6349 C.3       23 UNK        -0.0398 
    125 S125       -1.6048  -18.9763  -51.1561 S.3       23 UNK        -0.2404 
    126 C126       -0.8060  -18.0136  -49.8343 C.3       23 UNK        -0.0205 
    127 H127        6.9300   -8.8813  -47.9812 H         1 UNK         0.0600 
    128 H128        7.9496  -10.3221  -47.9228 H         1 UNK         0.0600 
    129 H129        7.2626   -9.6669  -46.4339 H         1 UNK         0.0600 
    130 H130        6.8693  -12.1223  -48.6595 H         1 UNK         0.3000 
    131 H131        4.2120  -12.8177  -47.7080 H         1 UNK         0.0600 
    132 H132        6.2747  -14.4045  -47.9869 H         1 UNK         0.0800 
    133 H133        5.8753  -14.4668  -49.6741 H         1 UNK         0.0800 
    134 H134        4.9336  -16.7675  -50.1980 H         1 UNK         0.0800 
    135 H135        3.6298  -15.6664  -50.5846 H         1 UNK         0.0800 
    136 H136        1.2780  -16.2770  -50.1492 H         1 UNK         0.1150 
    137 H137        0.4105  -20.3667  -49.1977 H         1 UNK         0.1150 
    138 H138        4.4620  -18.9815  -49.1792 H         1 UNK         0.1150 
    139 H139        2.2580  -21.9616  -49.1479 H         1 UNK         0.0800 
    140 H140        3.9243  -21.4370  -49.1849 H         1 UNK         0.0800 
    141 H141        3.6626  -23.4254  -45.9355 H         1 UNK         0.0800 
    142 H142        3.2925  -23.6640  -47.6115 H         1 UNK         0.0800 
    143 H143        1.7042  -24.7645  -46.1133 H         1 UNK         0.0600 
    144 H144        1.3196  -22.2002  -44.8110 H         1 UNK         0.3000 
    145 H145       -1.2853  -23.5536  -42.6813 H         1 UNK         0.0600 
    146 H146        0.2511  -22.5115  -41.0374 H         1 UNK         0.0600 
    147 H147        0.9469  -23.9974  -41.6661 H         1 UNK         0.0600 
    148 H148        1.5381  -22.4431  -42.2396 H         1 UNK         0.0600 
    149 H149       -0.2532  -20.8984  -43.0102 H         1 UNK         0.3000 
    150 H150       -2.5548  -19.7528  -45.4293 H         1 UNK         0.0600 
    151 H151       -4.0250  -19.7664  -43.4125 H         1 UNK         0.0600 
    152 H152       -3.3072  -18.1833  -43.6721 H         1 UNK         0.0600 
    153 H153       -2.6736  -19.2427  -42.4132 H         1 UNK         0.0600 
    154 H154       -0.8578  -18.2069  -43.8784 H         1 UNK         0.3000 
    155 H155        2.3004  -18.9811  -45.2704 H         1 UNK         0.0600 
    156 H156        1.3780  -17.5602  -47.0699 H         1 UNK         0.0600 
    157 H157        2.2931  -16.5808  -45.9387 H         1 UNK         0.0600 
    158 H158        0.5305  -16.5660  -45.8973 H         1 UNK         0.0600 
    159 H159        1.2575  -16.8977  -43.5548 H         1 UNK         0.3000 
    160 H160        1.8550  -18.5808  -40.4847 H         1 UNK         0.0600 
    161 H161        3.4914  -16.3858  -41.8650 H         1 UNK         0.0600 
    162 H162        4.1387  -17.8747  -41.1867 H         1 UNK         0.0600 
    163 H163        3.4070  -16.6796  -40.1278 H         1 UNK         0.0600 
    164 H164        1.1432  -15.8777  -41.3187 H         1 UNK         0.3000 
    165 H165       -2.3666  -16.4040  -41.0919 H         1 UNK         0.0600 
    166 H166       -2.2502  -14.5476  -39.4657 H         1 UNK         0.0600 
    167 H167       -1.6724  -16.0259  -38.7152 H         1 UNK         0.0600 
    168 H168       -0.5194  -14.8053  -39.2413 H         1 UNK         0.0600 
    169 H169       -1.0658  -13.9977  -41.5767 H         1 UNK         0.3000 
    170 H170       -1.5518  -13.2128  -43.8829 H         1 UNK         0.0600 
    171 H171        0.7733  -13.0949  -42.9438 H         1 UNK         0.0600 
    172 H172        1.3567  -14.1636  -44.2151 H         1 UNK         0.0600 
    173 H173        0.7586  -12.5547  -44.6128 H         1 UNK         0.0600 
    174 H174       -0.1674  -14.3404  -46.1305 H         1 UNK         0.3000 
    175 H175       -1.1742  -15.9815  -47.5760 H         1 UNK         0.0600 
    176 H176       -4.1585  -15.4359  -48.0115 H         1 UNK         0.0600 
    177 H177       -3.1535  -16.4901  -48.9981 H         1 UNK         0.0600 
    178 H178       -3.4622  -16.8975  -47.3200 H         1 UNK         0.0600 
    179 H179       -2.5390  -13.9533  -49.1078 H         1 UNK         0.3000 
    180 H180       -0.8937  -12.8392  -50.6771 H         1 UNK         0.0600 
    181 H181       -1.6227  -10.5036  -50.0406 H         1 UNK         0.0600 
    182 H182       -1.3741  -10.8886  -48.3395 H         1 UNK         0.0600 
    183 H183       -2.6337  -11.7018  -49.2609 H         1 UNK         0.0600 
    184 H184        1.3363  -12.0685  -49.0349 H         1 UNK         0.3000 
    185 H185        3.1208  -10.7187  -51.6778 H         1 UNK         0.0600 
    186 H186        2.0254   -8.5295  -51.2112 H         1 UNK         0.0600 
    187 H187        2.0974   -8.8413  -49.4807 H         1 UNK         0.0600 
    188 H188        3.5835   -8.6320  -50.4071 H         1 UNK         0.0600 
    189 H189        3.5384  -10.6995  -48.8004 H         1 UNK         0.3000 
    190 H190       -0.2435  -21.8615  -46.7586 H         1 UNK         0.3000 
    191 H191       -1.1270  -22.5317  -49.3477 H         1 UNK         0.0600 
    192 H192       -1.5777  -20.3506  -48.0437 H         1 UNK         0.0600 
    193 H193       -2.9358  -20.9868  -48.9515 H         1 UNK         0.0600 
    194 H194       -2.8693  -21.2016  -47.2109 H         1 UNK         0.0600 
    195 H195       -2.4420  -23.5316  -46.1394 H         1 UNK         0.3000 
    196 H196       -4.5823  -25.1180  -47.1315 H         1 UNK         0.0600 
    197 H197       -4.5772  -26.0829  -44.8254 H         1 UNK         0.0600 
    198 H198       -4.4790  -24.3288  -44.7943 H         1 UNK         0.0600 
    199 H199       -3.0387  -25.2965  -44.4911 H         1 UNK         0.0600 
    200 H200       -1.1907  -25.9601  -46.3330 H         1 UNK         0.3000 
    201 H201       -1.3807  -28.7481  -46.8711 H         1 UNK         0.0600 
    202 H202        0.4660  -27.6893  -45.5591 H         1 UNK         0.0600 
    203 H203        1.0680  -26.9122  -47.0226 H         1 UNK         0.0600 
    204 H204        1.0910  -28.6634  -46.8821 H         1 UNK         0.0600 
    205 H205       -0.5405  -25.9831  -48.9821 H         1 UNK         0.3000 
    206 H206       -0.0341  -27.5467  -51.3481 H         1 UNK         0.0600 
    207 H207        0.9677  -25.3030  -50.9414 H         1 UNK         0.0600 
    208 H208        0.0267  -25.2924  -52.4237 H         1 UNK         0.0600 
    209 H209       -0.6319  -24.5623  -50.9644 H         1 UNK         0.0600 
    210 H210       -2.9433  -26.7546  -49.8039 H         1 UNK         0.3000 
    211 H211       -5.0911  -26.8668  -50.2268 H         1 UNK         0.0600 
    212 H212       -4.5017  -28.1639  -52.9361 H         1 UNK         0.0600 
    213 H213       -6.0144  -28.2135  -52.0460 H         1 UNK         0.0600 
    214 H214       -4.6004  -29.0316  -51.4035 H         1 UNK         0.0600 
    215 H215       -3.4507  -24.5698  -51.0387 H         1 UNK         0.3000 
    216 H216       -5.0457  -23.1229  -53.0541 H         1 UNK         0.0600 
    217 H217       -3.5425  -21.2079  -52.3120 H         1 UNK         0.0600 
    218 H218       -2.6425  -22.5963  -52.9040 H         1 UNK         0.0600 
    219 H219       -2.7627  -22.2882  -51.1753 H         1 UNK         0.0600 
    220 H220       -4.6789  -23.5000  -49.5877 H         1 UNK         0.3000 
    221 H221       -5.8638  -23.0332  -47.7777 H         1 UNK         0.0600 
    222 H222       -8.2436  -23.1885  -49.7007 H         1 UNK         0.0600 
    223 H223       -7.3906  -24.5765  -49.0273 H         1 UNK         0.0600 
    224 H224       -8.2849  -23.5003  -47.9691 H         1 UNK         0.0600 
    225 H225       -5.0679  -20.6101  -49.3567 H         1 UNK         0.3000 
    226 H226       -5.0997  -18.4172  -49.2576 H         1 UNK         0.0600 
    227 H227       -5.3465  -18.6192  -46.7696 H         1 UNK         0.0600 
    228 H228       -6.0965  -17.1653  -47.4074 H         1 UNK         0.0600 
    229 H229       -7.0994  -18.5268  -46.9430 H         1 UNK         0.0600 
    230 H230       -7.3902  -20.1535  -50.5696 H         1 UNK         0.3000 
    231 H231       -9.2622  -18.0154  -51.4046 H         1 UNK         0.0600 
    232 H232       -9.0091  -20.9542  -52.2566 H         1 UNK         0.0600 
    233 H233      -10.2597  -19.8335  -52.7815 H         1 UNK         0.0600 
    234 H234      -10.1660  -20.3128  -51.0931 H         1 UNK         0.0600 
    235 H235       -6.6537  -20.1067  -52.6157 H         1 UNK         0.3000 
    236 H236       -5.9346  -18.1553  -54.7584 H         1 UNK         0.0600 
    237 H237       -5.9527  -20.5185  -55.5048 H         1 UNK         0.0600 
    238 H238       -4.2962  -19.9417  -55.4277 H         1 UNK         0.0600 
    239 H239       -4.9216  -20.9907  -54.1629 H         1 UNK         0.0600 
    240 H240       -3.5745  -17.6608  -54.7466 H         1 UNK         0.3000 
    241 H241       -1.9607  -16.4980  -53.9846 H         1 UNK         0.0600 
    242 H242       -4.6272  -16.3576  -51.8703 H         1 UNK         0.3800 
    243 H243       -4.1245  -14.8756  -51.0922 H         1 UNK         0.3800 
    244 H244       -0.9810  -18.6547  -53.4377 H         1 UNK         0.0800 
    245 H245       -0.3367  -17.3866  -52.4515 H         1 UNK         0.0800 
    246 H246       -0.9825  -16.9505  -49.9968 H         1 UNK         0.0800 
    247 H247       -1.2839  -18.2534  -48.8851 H         1 UNK         0.0800 
@<TRIPOS>BOND
     1    1    2 1    
     2    1  127 1    
     3    1  128 1    
     4    1  129 1    
     5    2    3 2    
     6    2    4 am   BACKBONE|DICT|INTERRES
     7    4    5 1    
     8    4  130 1    
     9    5    6 1    
    10    5   65 1    
    11    5  131 1    
    12    6    7 1    
    13    6  132 1    
    14    6  133 1    
    15    7    8 1    
    16    8    9 1    
    17    8  134 1    
    18    8  135 1    
    19    9   10 ar   
    20    9   14 ar   
    21   10   11 ar   
    22   10  136 1    
    23   11   12 ar   
    24   11  126 1    
    25   12   13 ar   
    26   12  137 1    
    27   13   14 ar   
    28   13   15 1    
    29   14  138 1    
    30   15   16 1    
    31   15  139 1    
    32   15  140 1    
    33   16   17 1    
    34   17   18 1    
    35   17  141 1    
    36   17  142 1    
    37   18   19 1    
    38   18   67 1    
    39   18  143 1    
    40   19   20 am   BACKBONE|DICT|INTERRES
    41   19  144 1    
    42   20   21 2    
    43   20   22 1    
    44   22   23 1    
    45   22   24 1    
    46   22  145 1    
    47   23  146 1    
    48   23  147 1    
    49   23  148 1    
    50   24   25 am   BACKBONE|DICT|INTERRES
    51   24  149 1    
    52   25   26 2    
    53   25   27 1    
    54   27   28 1    
    55   27   29 1    
    56   27  150 1    
    57   28  151 1    
    58   28  152 1    
    59   28  153 1    
    60   29   30 am   BACKBONE|DICT|INTERRES
    61   29  154 1    
    62   30   31 2    
    63   30   32 1    
    64   32   33 1    
    65   32   34 1    
    66   32  155 1    
    67   33  156 1    
    68   33  157 1    
    69   33  158 1    
    70   34   35 am   BACKBONE|DICT|INTERRES
    71   34  159 1    
    72   35   36 2    
    73   35   37 1    
    74   37   38 1    
    75   37   39 1    
    76   37  160 1    
    77   38  161 1    
    78   38  162 1    
    79   38  163 1    
    80   39   40 am   BACKBONE|DICT|INTERRES
    81   39  164 1    
    82   40   41 2    
    83   40   42 1    
    84   42   43 1    
    85   42   44 1    
    86   42  165 1    
    87   43  166 1    
    88   43  167 1    
    89   43  168 1    
    90   44   45 am   BACKBONE|DICT|INTERRES
    91   44  169 1    
    92   45   46 2    
    93   45   47 1    
    94   47   48 1    
    95   47   49 1    
    96   47  170 1    
    97   48  171 1    
    98   48  172 1    
    99   48  173 1    
   100   49   50 am   BACKBONE|DICT|INTERRES
   101   49  174 1    
   102   50   51 2    
   103   50   52 1    
   104   52   53 1    
   105   52   54 1    
   106   52  175 1    
   107   53  176 1    
   108   53  177 1    
   109   53  178 1    
   110   54   55 am   BACKBONE|DICT|INTERRES
   111   54  179 1    
   112   55   56 2    
   113   55   57 1    
   114   57   58 1    
   115   57   59 1    
   116   57  180 1    
   117   58  181 1    
   118   58  182 1    
   119   58  183 1    
   120   59   60 am   BACKBONE|DICT|INTERRES
   121   59  184 1    
   122   60   61 2    
   123   60   62 1    
   124   62   63 1    
   125   62   64 1    
   126   62  185 1    
   127   63  186 1    
   128   63  187 1    
   129   63  188 1    
   130   64   65 am   BACKBONE|DICT|INTERRES
   131   64  189 1    
   132   65   66 2    
   133   67   68 2    
   134   67   69 am   BACKBONE|DICT|INTERRES
   135   69   70 1    
   136   69  190 1    
   137   70   71 1    
   138   70   72 1    
   139   70  191 1    
   140   71  192 1    
   141   71  193 1    
   142   71  194 1    
   143   72   73 2    
   144   72   74 am   BACKBONE|DICT|INTERRES
   145   74   75 1    
   146   74  195 1    
   147   75   76 1    
   148   75   77 1    
   149   75  196 1    
   150   76  197 1    
   151   76  198 1    
   152   76  199 1    
   153   77   78 2    
   154   77   79 am   BACKBONE|DICT|INTERRES
   155   79   80 1    
   156   79  200 1    
   157   80   81 1    
   158   80   82 1    
   159   80  201 1    
   160   81  202 1    
   161   81  203 1    
   162   81  204 1    
   163   82   83 2    
   164   82   84 am   BACKBONE|DICT|INTERRES
   165   84   85 1    
   166   84  205 1    
   167   85   86 1    
   168   85   87 1    
   169   85  206 1    
   170   86  207 1    
   171   86  208 1    
   172   86  209 1    
   173   87   88 2    
   174   87   89 am   BACKBONE|DICT|INTERRES
   175   89   90 1    
   176   89  210 1    
   177   90   91 1    
   178   90   92 1    
   179   90  211 1    
   180   91  212 1    
   181   91  213 1    
   182   91  214 1    
   183   92   93 2    
   184   92   94 am   BACKBONE|DICT|INTERRES
   185   94   95 1    
   186   94  215 1    
   187   95   96 1    
   188   95   97 1    
   189   95  216 1    
   190   96  217 1    
   191   96  218 1    
   192   96  219 1    
   193   97   98 2    
   194   97   99 am   BACKBONE|DICT|INTERRES
   195   99  100 1    
   196   99  220 1    
   197  100  101 1    
   198  100  102 1    
   199  100  221 1    
   200  101  222 1    
   201  101  223 1    
   202  101  224 1    
   203  102  103 2    
   204  102  104 am   BACKBONE|DICT|INTERRES
   205  104  105 1    
   206  104  225 1    
   207  105  106 1    
   208  105  107 1    
   209  105  226 1    
   210  106  227 1    
   211  106  228 1    
   212  106  229 1    
   213  107  108 2    
   214  107  109 am   BACKBONE|DICT|INTERRES
   215  109  110 1    
   216  109  230 1    
   217  110  111 1    
   218  110  112 1    
   219  110  231 1    
   220  111  232 1    
   221  111  233 1    
   222  111  234 1    
   223  112  113 2    
   224  112  114 am   BACKBONE|DICT|INTERRES
   225  114  115 1    
   226  114  235 1    
   227  115  116 1    
   228  115  117 1    
   229  115  236 1    
   230  116  237 1    
   231  116  238 1    
   232  116  239 1    
   233  117  118 2    
   234  117  119 am   BACKBONE|DICT|INTERRES
   235  119  120 1    
   236  119  240 1    
   237  120  121 1    
   238  120  124 1    
   239  120  241 1    
   240  121  122 am   BACKBONE|DICT|INTERRES
   241  121  123 2    
   242  122  242 1    
   243  122  243 1    
   244  124  125 1    
   245  124  244 1    
   246  124  245 1    
   247  125  126 1    
   248  126  246 1    
   249  126  247 1    
@<TRIPOS>SUBSTRUCTURE
     1 UNK         1 GROUP             0       ****    0 ROOT    
