@<TRIPOS>MOLECULE
3R540
247   249    1
SMALL
USER_CHARGES


@<TRIPOS>ATOM
      1 CA          0.2292  -13.6921  -53.4757 C.3       0 UNK        -0.1800 
      2 C           1.2470  -13.8876  -52.3610 C.2       0 UNK         0.5000 
      3 O           2.3668  -13.3854  -52.4590 O.2       0 UNK        -0.5000 
      4 N           0.8606  -14.6194  -51.3092 N.am      1 UNK        -0.5000 
      5 CA          1.6574  -14.8401  -50.0985 C.3       1 UNK         0.1400 
      6 C6          1.3454  -16.2277  -49.4687 C.3       23 UNK        -0.0398 
      7 S7          2.8371  -17.0639  -48.8312 S.3       23 UNK        -0.2404 
      8 C8          3.6991  -17.5475  -50.3675 C.3       23 UNK        -0.0205 
      9 C9          3.1710  -18.8447  -50.9625 C.ar      23 UNK        -0.0193 
     10 C10         2.0488  -18.8371  -51.7963 C.ar      23 UNK        -0.1150 
     11 C11         1.5738  -20.0225  -52.3628 C.ar      23 UNK        -0.0193 
     12 C12         2.2486  -21.2209  -52.1067 C.ar      23 UNK        -0.1150 
     13 C13         3.3787  -21.2447  -51.2822 C.ar      23 UNK        -0.0193 
     14 C14         3.8325  -20.0512  -50.7122 C.ar      23 UNK        -0.1150 
     15 C15         4.1154  -22.5584  -51.0292 C.3       23 UNK        -0.0205 
     16 S16         4.2318  -23.0026  -49.2615 S.3       23 UNK        -0.2404 
     17 C17         2.4840  -22.8888  -48.7598 C.3       23 UNK        -0.0398 
     18 CA          2.0950  -23.7665  -47.5449 C.3       11 UNK         0.1400 
     19 N           2.9797  -23.5248  -46.3980 N.am      11 UNK        -0.5000 
     20 C           2.8781  -24.0580  -45.1724 C.2       10 UNK         0.5000 
     21 O           2.0260  -24.8881  -44.8535 O.2       10 UNK        -0.5000 
     22 CA          3.8471  -23.5248  -44.0960 C.3       10 UNK         0.1400 
     23 CB          5.1148  -22.8555  -44.6733 C.3       10 UNK        -0.1800 
     24 N           3.1746  -22.6141  -43.1593 N.am      10 UNK        -0.5000 
     25 C           2.4808  -21.5062  -43.4654 C.2       9 UNK         0.5000 
     26 O           2.2875  -21.1276  -44.6236 O.2       9 UNK        -0.5000 
     27 CA          1.8723  -20.7276  -42.2749 C.3       9 UNK         0.1400 
     28 CB          2.9202  -20.4024  -41.1890 C.3       9 UNK        -0.1800 
     29 N           1.1523  -19.5130  -42.6801 N.am      9 UNK        -0.5000 
     30 C           1.6490  -18.4241  -43.2896 C.2       8 UNK         0.5000 
     31 O           2.8488  -18.2391  -43.5004 O.2       8 UNK        -0.5000 
     32 CA          0.6433  -17.3432  -43.7419 C.3       8 UNK         0.1400 
     33 CB          0.5424  -17.2686  -45.2764 C.3       8 UNK        -0.1800 
     34 N          -0.6998  -17.4826  -43.1650 N.am      8 UNK        -0.5000 
     35 C          -0.9950  -17.1812  -41.8927 C.2       7 UNK         0.5000 
     36 O          -0.1716  -16.7469  -41.0865 O.2       7 UNK        -0.5000 
     37 CA         -2.4456  -17.4093  -41.4317 C.3       7 UNK         0.1400 
     38 CB         -3.3283  -16.2130  -41.8204 C.3       7 UNK        -0.1800 
     39 N          -3.0640  -18.6398  -41.9281 N.am      7 UNK        -0.5000 
     40 C          -2.6277  -19.8921  -41.7426 C.2       6 UNK         0.5000 
     41 O          -1.5492  -20.1689  -41.2179 O.2       6 UNK        -0.5000 
     42 CA         -3.5398  -21.0372  -42.2353 C.3       6 UNK         0.1400 
     43 CB         -4.6956  -21.2982  -41.2520 C.3       6 UNK        -0.1800 
     44 N          -4.0239  -20.8698  -43.6108 N.am      6 UNK        -0.5000 
     45 C          -4.8195  -19.9188  -44.1145 C.2       5 UNK         0.5000 
     46 O          -5.4355  -19.0955  -43.4327 O.2       5 UNK        -0.5000 
     47 CA         -4.8883  -19.8484  -45.6519 C.3       5 UNK         0.1400 
     48 CB         -6.1122  -20.6102  -46.1811 C.3       5 UNK        -0.1800 
     49 N          -4.9229  -18.4712  -46.1530 N.am      5 UNK        -0.5000 
     50 C          -4.0454  -17.4965  -45.8637 C.2       4 UNK         0.5000 
     51 O          -3.0505  -17.6566  -45.1485 O.2       4 UNK        -0.5000 
     52 CA         -4.3367  -16.1253  -46.5129 C.3       4 UNK         0.1400 
     53 CB         -5.7923  -15.6782  -46.2838 C.3       4 UNK        -0.1800 
     54 N          -3.4539  -15.0688  -46.0210 N.am      4 UNK        -0.5000 
     55 C          -2.1967  -14.8614  -46.4252 C.2       3 UNK         0.5000 
     56 O          -1.6394  -15.5148  -47.3147 O.2       3 UNK        -0.5000 
     57 CA         -1.4462  -13.7133  -45.7283 C.3       3 UNK         0.1400 
     58 CB         -1.4080  -13.8862  -44.1958 C.3       3 UNK        -0.1800 
     59 N          -0.0927  -13.6546  -46.2644 N.am      3 UNK        -0.5000 
     60 C           0.7625  -12.6317  -46.1731 C.2       2 UNK         0.5000 
     61 O           0.5104  -11.5781  -45.5871 O.2       2 UNK        -0.5000 
     62 CA          2.1384  -12.8128  -46.8483 C.3       2 UNK         0.1400 
     63 CB          3.1914  -13.2172  -45.8047 C.3       2 UNK        -0.1800 
     64 N           2.1520  -13.7998  -47.9335 N.am      2 UNK        -0.5000 
     65 C           1.4977  -13.6742  -49.0957 C.2       1 UNK         0.5000 
     66 O           0.7983  -12.6972  -49.3750 O.2       1 UNK        -0.5000 
     67 C           0.6065  -23.5170  -47.2136 C.2       11 UNK         0.5000 
     68 O          -0.2683  -24.2340  -47.7050 O.2       11 UNK        -0.5000 
     69 N           0.3462  -22.5188  -46.3571 N.am      12 UNK        -0.5000 
     70 CA         -0.9883  -22.0804  -45.9631 C.3       12 UNK         0.1400 
     71 CB         -0.8701  -20.7774  -45.1662 C.3       12 UNK        -0.1800 
     72 C          -1.7711  -23.1276  -45.1572 C.2       12 UNK         0.5000 
     73 O          -2.9981  -23.0419  -45.1270 O.2       12 UNK        -0.5000 
     74 N          -1.0804  -24.1054  -44.5521 N.am      13 UNK        -0.5000 
     75 CA         -1.6947  -25.2503  -43.8739 C.3       13 UNK         0.1400 
     76 CB         -0.6268  -25.9883  -43.0539 C.3       13 UNK        -0.1800 
     77 C          -2.3950  -26.2166  -44.8522 C.2       13 UNK         0.5000 
     78 O          -3.3338  -26.9056  -44.4537 O.2       13 UNK        -0.5000 
     79 N          -1.9547  -26.2177  -46.1185 N.am      14 UNK        -0.5000 
     80 CA         -2.5848  -26.9199  -47.2381 C.3       14 UNK         0.1400 
     81 CB         -1.4767  -27.5116  -48.1266 C.3       14 UNK        -0.1800 
     82 C          -3.5105  -25.9861  -48.0494 C.2       14 UNK         0.5000 
     83 O          -3.9626  -26.3737  -49.1270 O.2       14 UNK        -0.5000 
     84 N          -3.7549  -24.7699  -47.5341 N.am      15 UNK        -0.5000 
     85 CA         -4.5200  -23.6689  -48.1286 C.3       15 UNK         0.1400 
     86 CB         -5.9997  -24.0547  -48.3285 C.3       15 UNK        -0.1800 
     87 C          -3.8800  -23.0694  -49.3983 C.2       15 UNK         0.5000 
     88 O          -4.5612  -22.3703  -50.1473 O.2       15 UNK        -0.5000 
     89 N          -2.5798  -23.3090  -49.6116 N.am      16 UNK        -0.5000 
     90 CA         -1.8049  -22.7013  -50.6860 C.3       16 UNK         0.1400 
     91 CB         -0.7322  -23.6942  -51.1610 C.3       16 UNK        -0.1800 
     92 C          -1.2197  -21.3803  -50.1651 C.2       16 UNK         0.5000 
     93 O          -0.1438  -21.3792  -49.5722 O.2       16 UNK        -0.5000 
     94 N          -1.9725  -20.2887  -50.3269 N.am      17 UNK        -0.5000 
     95 CA         -1.6498  -18.9717  -49.7829 C.3       17 UNK         0.1400 
     96 CB         -2.1015  -18.9186  -48.3165 C.3       17 UNK        -0.1800 
     97 C          -2.2959  -17.8721  -50.6421 C.2       17 UNK         0.5000 
     98 O          -2.7905  -18.1719  -51.7339 O.2       17 UNK        -0.5000 
     99 N          -2.2672  -16.6187  -50.1600 N.am      18 UNK        -0.5000 
    100 CA        -2.8454  -15.4595  -50.8460 C.3       18 UNK         0.1400 
    101 CB        -2.5135  -14.1725  -50.0771 C.3       18 UNK        -0.1800 
    102 C         -4.3683  -15.5904  -51.0054 C.2       18 UNK         0.5000 
    103 O         -5.0524  -15.9225  -50.0352 O.2       18 UNK        -0.5000 
    104 N         -4.8583  -15.3601  -52.2293 N.am      19 UNK        -0.5000 
    105 CA        -6.2453  -15.4529  -52.7073 C.3       19 UNK         0.1400 
    106 CB        -7.1785  -14.5066  -51.9280 C.3       19 UNK        -0.1800 
    107 C         -6.8063  -16.8888  -52.7424 C.2       19 UNK         0.5000 
    108 O         -7.5691  -17.2176  -53.6514 O.2       19 UNK        -0.5000 
    109 N         -6.4038  -17.7215  -51.7761 N.am      20 UNK        -0.5000 
    110 CA        -6.7336  -19.1384  -51.6635 C.3       20 UNK         0.1400 
    111 CB        -6.2990  -19.6322  -50.2754 C.3       20 UNK        -0.1800 
    112 C         -6.1074  -19.9938  -52.7830 C.2       20 UNK         0.5000 
    113 O         -6.7077  -20.9956  -53.1750 O.2       20 UNK        -0.5000 
    114 N         -4.9432  -19.5744  -53.2997 N.am      21 UNK        -0.5000 
    115 CA        -4.2733  -20.2064  -54.4348 C.3       21 UNK         0.1400 
    116 CB        -3.3886  -21.3681  -53.9538 C.3       21 UNK        -0.1800 
    117 C         -3.4487  -19.1969  -55.2450 C.2       21 UNK         0.5000 
    118 O         -3.5726  -19.1648  -56.4702 O.2       21 UNK        -0.5000 
    119 N         -2.6127  -18.4102  -54.5584 N.am      22 UNK        -0.5000 
    120 CA        -1.6686  -17.4623  -55.1682 C.3       22 UNK         0.1400 
    121 C         -2.2291  -16.0163  -55.1804 C.2       22 UNK         0.5000 
    122 N         -1.8060  -15.1917  -56.1278 N.am      22 UNK        -0.7600 
    123 O         -3.0128  -15.6161  -54.3239 O.2       22 UNK        -0.5000 
    124 C124       -0.2874  -17.5217  -54.4652 C.3       23 UNK        -0.0398 
    125 S125        0.5641  -19.1074  -54.7918 S.3       23 UNK        -0.2404 
    126 C126        0.3228  -20.0148  -53.2323 C.3       23 UNK        -0.0205 
    127 H127        0.5855  -14.1539  -54.3963 H         1 UNK         0.0600 
    128 H128        0.0782  -12.6292  -53.6634 H         1 UNK         0.0600 
    129 H129       -0.7368  -14.1298  -53.2253 H         1 UNK         0.0600 
    130 H130       -0.0876  -14.9586  -51.2736 H         1 UNK         0.3000 
    131 H131        2.7073  -14.8182  -50.3943 H         1 UNK         0.0600 
    132 H132        0.6161  -16.1524  -48.6605 H         1 UNK         0.0800 
    133 H133        0.8798  -16.8902  -50.1943 H         1 UNK         0.0800 
    134 H134        3.6387  -16.7534  -51.1118 H         1 UNK         0.0800 
    135 H135        4.7608  -17.6557  -50.1404 H         1 UNK         0.0800 
    136 H136        1.5487  -17.9072  -52.0189 H         1 UNK         0.1150 
    137 H137        1.8939  -22.1395  -52.5507 H         1 UNK         0.1150 
    138 H138        4.7066  -20.0636  -50.0764 H         1 UNK         0.1150 
    139 H139        3.6319  -23.3792  -51.5613 H         1 UNK         0.0800 
    140 H140        5.1231  -22.4813  -51.4391 H         1 UNK         0.0800 
    141 H141        1.8711  -23.1561  -49.6203 H         1 UNK         0.0800 
    142 H142        2.2774  -21.8361  -48.5544 H         1 UNK         0.0800 
    143 H143        2.2002  -24.8167  -47.8231 H         1 UNK         0.0600 
    144 H144        3.6961  -22.8293  -46.5482 H         1 UNK         0.3000 
    145 H145        4.1671  -24.3925  -43.5174 H         1 UNK         0.0600 
    146 H146        5.8192  -22.6123  -43.8777 H         1 UNK         0.0600 
    147 H147        5.6317  -23.5216  -45.3656 H         1 UNK         0.0600 
    148 H148        4.8917  -21.9295  -45.2046 H         1 UNK         0.0600 
    149 H149        3.2434  -22.8773  -42.1865 H         1 UNK         0.3000 
    150 H150        1.1197  -21.3805  -41.8306 H         1 UNK         0.0600 
    151 H151        3.3061  -21.3092  -40.7232 H         1 UNK         0.0600 
    152 H152        2.4860  -19.7962  -40.3937 H         1 UNK         0.0600 
    153 H153        3.7726  -19.8579  -41.5964 H         1 UNK         0.0600 
    154 H154        0.1544  -19.5355  -42.5140 H         1 UNK         0.3000 
    155 H155        1.0628  -16.3930  -43.4040 H         1 UNK         0.0600 
    156 H156       -0.2321  -17.9202  -45.6766 H         1 UNK         0.0600 
    157 H157        0.3012  -16.2571  -45.5889 H         1 UNK         0.0600 
    158 H158        1.4823  -17.5301  -45.7649 H         1 UNK         0.0600 
    159 H159       -1.4471  -17.7788  -43.7856 H         1 UNK         0.3000 
    160 H160       -2.4308  -17.4775  -40.3422 H         1 UNK         0.0600 
    161 H161       -4.3287  -16.3074  -41.3980 H         1 UNK         0.0600 
    162 H162       -3.4301  -16.1243  -42.9024 H         1 UNK         0.0600 
    163 H163       -2.9063  -15.2773  -41.4514 H         1 UNK         0.0600 
    164 H164       -3.9509  -18.5345  -42.4140 H         1 UNK         0.3000 
    165 H165       -2.9235  -21.9377  -42.2542 H         1 UNK         0.0600 
    166 H166       -5.3016  -22.1451  -41.5739 H         1 UNK         0.0600 
    167 H167       -4.3125  -21.5315  -40.2578 H         1 UNK         0.0600 
    168 H168       -5.3531  -20.4346  -41.1508 H         1 UNK         0.0600 
    169 H169       -3.6414  -21.5524  -44.2606 H         1 UNK         0.3000 
    170 H170       -3.9930  -20.3175  -46.0634 H         1 UNK         0.0600 
    171 H171       -6.1118  -21.6434  -45.8306 H         1 UNK         0.0600 
    172 H172       -7.0444  -20.1520  -45.8483 H         1 UNK         0.0600 
    173 H173       -6.1202  -20.6384  -47.2710 H         1 UNK         0.0600 
    174 H174       -5.7191  -18.2359  -46.7257 H         1 UNK         0.3000 
    175 H175       -4.1755  -16.2377  -47.5860 H         1 UNK         0.0600 
    176 H176       -5.9702  -14.6905  -46.7100 H         1 UNK         0.0600 
    177 H177       -6.0369  -15.6344  -45.2216 H         1 UNK         0.0600 
    178 H178       -6.5014  -16.3556  -46.7602 H         1 UNK         0.0600 
    179 H179       -3.8205  -14.5039  -45.2702 H         1 UNK         0.3000 
    180 H180       -1.9614  -12.7836  -45.9772 H         1 UNK         0.0600 
    181 H181       -0.9184  -14.8157  -43.9119 H         1 UNK         0.0600 
    182 H182       -2.4103  -13.8968  -43.7679 H         1 UNK         0.0600 
    183 H183       -0.8701  -13.0699  -43.7144 H         1 UNK         0.0600 
    184 H184        0.1563  -14.4607  -46.8218 H         1 UNK         0.3000 
    185 H185        2.4250  -11.8466  -47.2687 H         1 UNK         0.0600 
    186 H186        2.9680  -14.1903  -45.3649 H         1 UNK         0.0600 
    187 H187        4.1869  -13.2677  -46.2462 H         1 UNK         0.0600 
    188 H188        3.2352  -12.4918  -44.9912 H         1 UNK         0.0600 
    189 H189        2.7085  -14.6291  -47.7764 H         1 UNK         0.3000 
    190 H190        1.1254  -22.0039  -45.9553 H         1 UNK         0.3000 
    191 H191       -1.5467  -21.8819  -46.8796 H         1 UNK         0.0600 
    192 H192       -0.1136  -20.1267  -45.6006 H         1 UNK         0.0600 
    193 H193       -1.8070  -20.2236  -45.1603 H         1 UNK         0.0600 
    194 H194       -0.5931  -20.9683  -44.1304 H         1 UNK         0.0600 
    195 H195       -0.0715  -24.1253  -44.6462 H         1 UNK         0.3000 
    196 H196       -2.4517  -24.8700  -43.1846 H         1 UNK         0.0600 
    197 H197       -1.0722  -26.7963  -42.4723 H         1 UNK         0.0600 
    198 H198       -0.1313  -25.3167  -42.3525 H         1 UNK         0.0600 
    199 H199        0.1378  -26.4298  -43.6940 H         1 UNK         0.0600 
    200 H200       -1.1891  -25.6023  -46.3699 H         1 UNK         0.3000 
    201 H201       -3.1983  -27.7433  -46.8674 H         1 UNK         0.0600 
    202 H202       -0.8160  -28.1611  -47.5523 H         1 UNK         0.0600 
    203 H203       -0.8661  -26.7322  -48.5837 H         1 UNK         0.0600 
    204 H204       -1.8982  -28.1126  -48.9332 H         1 UNK         0.0600 
    205 H205       -3.3524  -24.5590  -46.6300 H         1 UNK         0.3000 
    206 H206       -4.4964  -22.8662  -47.3916 H         1 UNK         0.0600 
    207 H207       -6.4294  -24.4576  -47.4114 H         1 UNK         0.0600 
    208 H208       -6.5958  -23.1853  -48.6086 H         1 UNK         0.0600 
    209 H209       -6.1228  -24.7996  -49.1148 H         1 UNK         0.0600 
    210 H210       -2.0529  -23.8452  -48.9327 H         1 UNK         0.3000 
    211 H211       -2.4485  -22.4894  -51.5388 H         1 UNK         0.0600 
    212 H212       -0.0989  -24.0357  -50.3444 H         1 UNK         0.0600 
    213 H213       -0.0900  -23.2436  -51.9169 H         1 UNK         0.0600 
    214 H214       -1.1912  -24.5756  -51.6088 H         1 UNK         0.0600 
    215 H215       -2.8439  -20.3443  -50.8376 H         1 UNK         0.3000 
    216 H216       -0.5698  -18.8189  -49.8305 H         1 UNK         0.0600 
    217 H217       -1.8189  -17.9830  -47.8397 H         1 UNK         0.0600 
    218 H218       -1.6369  -19.7108  -47.7337 H         1 UNK         0.0600 
    219 H219       -3.1819  -19.0335  -48.2378 H         1 UNK         0.0600 
    220 H220       -1.9291  -16.4495  -49.2188 H         1 UNK         0.3000 
    221 H221       -2.3789  -15.3995  -51.8295 H         1 UNK         0.0600 
    222 H222       -3.0891  -14.0958  -49.1542 H         1 UNK         0.0600 
    223 H223       -1.4600  -14.1169  -49.8126 H         1 UNK         0.0600 
    224 H224       -2.7473  -13.2923  -50.6769 H         1 UNK         0.0600 
    225 H225       -4.1784  -15.2219  -52.9766 H         1 UNK         0.3000 
    226 H226       -6.2177  -15.1072  -53.7418 H         1 UNK         0.0600 
    227 H227       -6.8018  -13.4839  -51.9395 H         1 UNK         0.0600 
    228 H228       -8.1738  -14.4918  -52.3736 H         1 UNK         0.0600 
    229 H229       -7.2949  -14.8106  -50.8875 H         1 UNK         0.0600 
    230 H230       -5.8180  -17.3255  -51.0469 H         1 UNK         0.3000 
    231 H231       -7.8186  -19.2361  -51.7376 H         1 UNK         0.0600 
    232 H232       -5.2165  -19.5835  -50.1504 H         1 UNK         0.0600 
    233 H233       -6.6048  -20.6673  -50.1206 H         1 UNK         0.0600 
    234 H234       -6.7552  -19.0394  -49.4826 H         1 UNK         0.0600 
    235 H235       -4.5084  -18.7433  -52.9176 H         1 UNK         0.3000 
    236 H236       -5.0298  -20.6097  -55.1119 H         1 UNK         0.0600 
    237 H237       -2.6037  -21.0136  -53.2869 H         1 UNK         0.0600 
    238 H238       -3.9739  -22.1197  -53.4238 H         1 UNK         0.0600 
    239 H239       -2.9042  -21.8650  -54.7952 H         1 UNK         0.0600 
    240 H240       -2.6182  -18.4315  -53.5424 H         1 UNK         0.3000 
    241 H241       -1.5117  -17.7411  -56.2124 H         1 UNK         0.0600 
    242 H242       -1.1655  -15.4897  -56.8471 H         1 UNK         0.3800 
    243 H243       -2.1577  -14.2473  -56.1418 H         1 UNK         0.3800 
    244 H244        0.3668  -16.7313  -54.8370 H         1 UNK         0.0800 
    245 H245       -0.3876  -17.3495  -53.3927 H         1 UNK         0.0800 
    246 H246        0.0266  -21.0356  -53.4772 H         1 UNK         0.0800 
    247 H247       -0.5086  -19.5889  -52.6721 H         1 UNK         0.0800 
@<TRIPOS>BOND
     1    1    2 1    
     2    1  127 1    
     3    1  128 1    
     4    1  129 1    
     5    2    3 2    
     6    2    4 am   BACKBONE|DICT|INTERRES
     7    4    5 1    
     8    4  130 1    
     9    5    6 1    
    10    5   65 1    
    11    5  131 1    
    12    6    7 1    
    13    6  132 1    
    14    6  133 1    
    15    7    8 1    
    16    8    9 1    
    17    8  134 1    
    18    8  135 1    
    19    9   10 ar   
    20    9   14 ar   
    21   10   11 ar   
    22   10  136 1    
    23   11   12 ar   
    24   11  126 1    
    25   12   13 ar   
    26   12  137 1    
    27   13   14 ar   
    28   13   15 1    
    29   14  138 1    
    30   15   16 1    
    31   15  139 1    
    32   15  140 1    
    33   16   17 1    
    34   17   18 1    
    35   17  141 1    
    36   17  142 1    
    37   18   19 1    
    38   18   67 1    
    39   18  143 1    
    40   19   20 am   BACKBONE|DICT|INTERRES
    41   19  144 1    
    42   20   21 2    
    43   20   22 1    
    44   22   23 1    
    45   22   24 1    
    46   22  145 1    
    47   23  146 1    
    48   23  147 1    
    49   23  148 1    
    50   24   25 am   BACKBONE|DICT|INTERRES
    51   24  149 1    
    52   25   26 2    
    53   25   27 1    
    54   27   28 1    
    55   27   29 1    
    56   27  150 1    
    57   28  151 1    
    58   28  152 1    
    59   28  153 1    
    60   29   30 am   BACKBONE|DICT|INTERRES
    61   29  154 1    
    62   30   31 2    
    63   30   32 1    
    64   32   33 1    
    65   32   34 1    
    66   32  155 1    
    67   33  156 1    
    68   33  157 1    
    69   33  158 1    
    70   34   35 am   BACKBONE|DICT|INTERRES
    71   34  159 1    
    72   35   36 2    
    73   35   37 1    
    74   37   38 1    
    75   37   39 1    
    76   37  160 1    
    77   38  161 1    
    78   38  162 1    
    79   38  163 1    
    80   39   40 am   BACKBONE|DICT|INTERRES
    81   39  164 1    
    82   40   41 2    
    83   40   42 1    
    84   42   43 1    
    85   42   44 1    
    86   42  165 1    
    87   43  166 1    
    88   43  167 1    
    89   43  168 1    
    90   44   45 am   BACKBONE|DICT|INTERRES
    91   44  169 1    
    92   45   46 2    
    93   45   47 1    
    94   47   48 1    
    95   47   49 1    
    96   47  170 1    
    97   48  171 1    
    98   48  172 1    
    99   48  173 1    
   100   49   50 am   BACKBONE|DICT|INTERRES
   101   49  174 1    
   102   50   51 2    
   103   50   52 1    
   104   52   53 1    
   105   52   54 1    
   106   52  175 1    
   107   53  176 1    
   108   53  177 1    
   109   53  178 1    
   110   54   55 am   BACKBONE|DICT|INTERRES
   111   54  179 1    
   112   55   56 2    
   113   55   57 1    
   114   57   58 1    
   115   57   59 1    
   116   57  180 1    
   117   58  181 1    
   118   58  182 1    
   119   58  183 1    
   120   59   60 am   BACKBONE|DICT|INTERRES
   121   59  184 1    
   122   60   61 2    
   123   60   62 1    
   124   62   63 1    
   125   62   64 1    
   126   62  185 1    
   127   63  186 1    
   128   63  187 1    
   129   63  188 1    
   130   64   65 am   BACKBONE|DICT|INTERRES
   131   64  189 1    
   132   65   66 2    
   133   67   68 2    
   134   67   69 am   BACKBONE|DICT|INTERRES
   135   69   70 1    
   136   69  190 1    
   137   70   71 1    
   138   70   72 1    
   139   70  191 1    
   140   71  192 1    
   141   71  193 1    
   142   71  194 1    
   143   72   73 2    
   144   72   74 am   BACKBONE|DICT|INTERRES
   145   74   75 1    
   146   74  195 1    
   147   75   76 1    
   148   75   77 1    
   149   75  196 1    
   150   76  197 1    
   151   76  198 1    
   152   76  199 1    
   153   77   78 2    
   154   77   79 am   BACKBONE|DICT|INTERRES
   155   79   80 1    
   156   79  200 1    
   157   80   81 1    
   158   80   82 1    
   159   80  201 1    
   160   81  202 1    
   161   81  203 1    
   162   81  204 1    
   163   82   83 2    
   164   82   84 am   BACKBONE|DICT|INTERRES
   165   84   85 1    
   166   84  205 1    
   167   85   86 1    
   168   85   87 1    
   169   85  206 1    
   170   86  207 1    
   171   86  208 1    
   172   86  209 1    
   173   87   88 2    
   174   87   89 am   BACKBONE|DICT|INTERRES
   175   89   90 1    
   176   89  210 1    
   177   90   91 1    
   178   90   92 1    
   179   90  211 1    
   180   91  212 1    
   181   91  213 1    
   182   91  214 1    
   183   92   93 2    
   184   92   94 am   BACKBONE|DICT|INTERRES
   185   94   95 1    
   186   94  215 1    
   187   95   96 1    
   188   95   97 1    
   189   95  216 1    
   190   96  217 1    
   191   96  218 1    
   192   96  219 1    
   193   97   98 2    
   194   97   99 am   BACKBONE|DICT|INTERRES
   195   99  100 1    
   196   99  220 1    
   197  100  101 1    
   198  100  102 1    
   199  100  221 1    
   200  101  222 1    
   201  101  223 1    
   202  101  224 1    
   203  102  103 2    
   204  102  104 am   BACKBONE|DICT|INTERRES
   205  104  105 1    
   206  104  225 1    
   207  105  106 1    
   208  105  107 1    
   209  105  226 1    
   210  106  227 1    
   211  106  228 1    
   212  106  229 1    
   213  107  108 2    
   214  107  109 am   BACKBONE|DICT|INTERRES
   215  109  110 1    
   216  109  230 1    
   217  110  111 1    
   218  110  112 1    
   219  110  231 1    
   220  111  232 1    
   221  111  233 1    
   222  111  234 1    
   223  112  113 2    
   224  112  114 am   BACKBONE|DICT|INTERRES
   225  114  115 1    
   226  114  235 1    
   227  115  116 1    
   228  115  117 1    
   229  115  236 1    
   230  116  237 1    
   231  116  238 1    
   232  116  239 1    
   233  117  118 2    
   234  117  119 am   BACKBONE|DICT|INTERRES
   235  119  120 1    
   236  119  240 1    
   237  120  121 1    
   238  120  124 1    
   239  120  241 1    
   240  121  122 am   BACKBONE|DICT|INTERRES
   241  121  123 2    
   242  122  242 1    
   243  122  243 1    
   244  124  125 1    
   245  124  244 1    
   246  124  245 1    
   247  125  126 1    
   248  126  246 1    
   249  126  247 1    
@<TRIPOS>SUBSTRUCTURE
     1 UNK         1 GROUP             0       ****    0 ROOT    
