@<TRIPOS>MOLECULE
3R540
247   249    1
SMALL
USER_CHARGES


@<TRIPOS>ATOM
      1 CA         -3.3084  -13.2899  -50.7369 C.3       0 UNK        -0.1800 
      2 C          -2.0474  -13.5785  -49.9352 C.2       0 UNK         0.5000 
      3 O          -1.7323  -12.8447  -48.9989 O.2       0 UNK        -0.5000 
      4 N          -1.3302  -14.6507  -50.2938 N.am      1 UNK        -0.5000 
      5 CA         -0.0768  -15.0850  -49.6578 C.3       1 UNK         0.1400 
      6 C6          0.6980  -16.0938  -50.5382 C.3       23 UNK        -0.0398 
      7 S7          0.9614  -15.5432  -52.2612 S.3       23 UNK        -0.2404 
      8 C8          2.2695  -16.6858  -52.8222 C.3       23 UNK        -0.0205 
      9 C9          1.9588  -18.1297  -52.4570 C.ar      23 UNK        -0.0193 
     10 C10         1.0137  -18.8584  -53.1830 C.ar      23 UNK        -0.1150 
     11 C11         0.6770  -20.1598  -52.7985 C.ar      23 UNK        -0.0193 
     12 C12         1.2801  -20.7241  -51.6706 C.ar      23 UNK        -0.1150 
     13 C13         2.2350  -20.0074  -50.9441 C.ar      23 UNK        -0.0193 
     14 C14         2.5845  -18.7193  -51.3559 C.ar      23 UNK        -0.1150 
     15 C15         2.8793  -20.6165  -49.7070 C.3       23 UNK        -0.0205 
     16 S16         2.6341  -19.6012  -48.2109 S.3       23 UNK        -0.2404 
     17 C17         0.8129  -19.5076  -48.0942 C.3       23 UNK        -0.0398 
     18 CA          0.1451  -20.8444  -47.6874 C.3       11 UNK         0.1400 
     19 N           0.7358  -21.4073  -46.4708 N.am      11 UNK        -0.5000 
     20 C           0.9696  -22.7100  -46.2594 C.2       10 UNK         0.5000 
     21 O           0.8001  -23.5807  -47.1115 O.2       10 UNK        -0.5000 
     22 CA          1.4753  -23.1189  -44.8587 C.3       10 UNK         0.1400 
     23 CB          2.9855  -23.3989  -44.8956 C.3       10 UNK        -0.1800 
     24 N           1.2080  -22.1190  -43.8218 N.am      10 UNK        -0.5000 
     25 C          -0.0094  -21.7481  -43.4015 C.2       9 UNK         0.5000 
     26 O          -1.0507  -22.2748  -43.7913 O.2       9 UNK        -0.5000 
     27 CA         -0.0799  -20.5282  -42.4631 C.3       9 UNK         0.1400 
     28 CB         -0.1673  -20.9690  -40.9959 C.3       9 UNK        -0.1800 
     29 N           1.0541  -19.6146  -42.6256 N.am      9 UNK        -0.5000 
     30 C           1.3244  -18.8976  -43.7261 C.2       8 UNK         0.5000 
     31 O           0.6159  -18.9307  -44.7331 O.2       8 UNK        -0.5000 
     32 CA          2.6014  -18.0292  -43.6935 C.3       8 UNK         0.1400 
     33 CB          2.5990  -16.9306  -44.7699 C.3       8 UNK        -0.1800 
     34 N           2.8252  -17.4330  -42.3701 N.am      8 UNK        -0.5000 
     35 C           3.4737  -18.0388  -41.3635 C.2       7 UNK         0.5000 
     36 O           3.9652  -19.1628  -41.4749 O.2       7 UNK        -0.5000 
     37 CA          3.5173  -17.3399  -39.9888 C.3       7 UNK         0.1400 
     38 CB          4.8609  -17.5467  -39.2581 C.3       7 UNK        -0.1800 
     39 N           3.1229  -15.9292  -40.0058 N.am      7 UNK        -0.5000 
     40 C           3.7960  -14.8808  -40.5050 C.2       6 UNK         0.5000 
     41 O           4.8928  -14.9730  -41.0575 O.2       6 UNK        -0.5000 
     42 CA          3.1270  -13.4953  -40.3683 C.3       6 UNK         0.1400 
     43 CB          3.2751  -12.6688  -41.6579 C.3       6 UNK        -0.1800 
     44 N           1.7028  -13.6202  -40.0511 N.am      6 UNK        -0.5000 
     45 C           1.1476  -13.4567  -38.8424 C.2       5 UNK         0.5000 
     46 O           1.7742  -13.0917  -37.8475 O.2       5 UNK        -0.5000 
     47 CA         -0.3574  -13.7792  -38.7107 C.3       5 UNK         0.1400 
     48 CB         -1.1870  -12.4873  -38.7608 C.3       5 UNK        -0.1800 
     49 N          -0.8553  -14.7003  -39.7372 N.am      5 UNK        -0.5000 
     50 C          -0.5028  -15.9884  -39.8592 C.2       4 UNK         0.5000 
     51 O           0.2436  -16.5681  -39.0708 O.2       4 UNK        -0.5000 
     52 CA         -0.9976  -16.7285  -41.1189 C.3       4 UNK         0.1400 
     53 CB         -2.3126  -17.4707  -40.8440 C.3       4 UNK        -0.1800 
     54 N          -1.1648  -15.8588  -42.2890 N.am      4 UNK        -0.5000 
     55 C          -0.1918  -15.1292  -42.8491 C.2       3 UNK         0.5000 
     56 O           0.9661  -15.1208  -42.4281 O.2       3 UNK        -0.5000 
     57 CA         -0.5778  -14.2888  -44.0805 C.3       3 UNK         0.1400 
     58 CB          0.5121  -13.2745  -44.4682 C.3       3 UNK        -0.1800 
     59 N          -0.8477  -15.1458  -45.2301 N.am      3 UNK        -0.5000 
     60 C          -1.9669  -15.8430  -45.4429 C.2       2 UNK         0.5000 
     61 O          -2.9295  -15.8104  -44.6732 O.2       2 UNK        -0.5000 
     62 CA         -2.0129  -16.7191  -46.7153 C.3       2 UNK         0.1400 
     63 CB         -3.4240  -17.2511  -47.0075 C.3       2 UNK        -0.1800 
     64 N          -1.5444  -16.0520  -47.9318 N.am      2 UNK        -0.5000 
     65 C          -0.2931  -15.7000  -48.2552 C.2       1 UNK         0.5000 
     66 O           0.6710  -15.8607  -47.5072 O.2       1 UNK        -0.5000 
     67 C          -1.3795  -20.6587  -47.5274 C.2       11 UNK         0.5000 
     68 O          -2.0599  -20.4030  -48.5206 O.2       11 UNK        -0.5000 
     69 N          -1.8952  -20.7762  -46.2945 N.am      12 UNK        -0.5000 
     70 CA         -3.3203  -20.7313  -45.9857 C.3       12 UNK         0.1400 
     71 CB         -3.5378  -20.1173  -44.5913 C.3       12 UNK        -0.1800 
     72 C          -3.9311  -22.1351  -46.0863 C.2       12 UNK         0.5000 
     73 O          -4.9137  -22.3218  -46.8074 O.2       12 UNK        -0.5000 
     74 N          -3.3177  -23.0935  -45.3799 N.am      13 UNK        -0.5000 
     75 CA         -3.6631  -24.5122  -45.4048 C.3       13 UNK         0.1400 
     76 CB         -2.9181  -25.2193  -44.2627 C.3       13 UNK        -0.1800 
     77 C          -3.3059  -25.1543  -46.7564 C.2       13 UNK         0.5000 
     78 O          -2.3212  -24.7531  -47.3796 O.2       13 UNK        -0.5000 
     79 N          -4.1138  -26.1366  -47.1815 N.am      14 UNK        -0.5000 
     80 CA         -4.0307  -26.9349  -48.4178 C.3       14 UNK         0.1400 
     81 CB         -2.7199  -27.7422  -48.4786 C.3       14 UNK        -0.1800 
     82 C          -4.2524  -26.1374  -49.7210 C.2       14 UNK         0.5000 
     83 O          -4.9810  -26.5998  -50.5989 O.2       14 UNK        -0.5000 
     84 N          -3.6532  -24.9458  -49.8112 N.am      15 UNK        -0.5000 
     85 CA         -3.7933  -23.9846  -50.9041 C.3       15 UNK         0.1400 
     86 CB         -2.5891  -23.0358  -50.8713 C.3       15 UNK        -0.1800 
     87 C          -5.1136  -23.1879  -50.8640 C.2       15 UNK         0.5000 
     88 O          -5.3887  -22.4504  -51.8119 O.2       15 UNK        -0.5000 
     89 N          -5.8886  -23.3460  -49.7789 N.am      16 UNK        -0.5000 
     90 CA         -7.2217  -22.7898  -49.5326 C.3       16 UNK         0.1400 
     91 CB         -8.2466  -23.3958  -50.5144 C.3       16 UNK        -0.1800 
     92 C          -7.2198  -21.2513  -49.5400 C.2       16 UNK         0.5000 
     93 O          -7.8494  -20.6336  -50.3978 O.2       16 UNK        -0.5000 
     94 N          -6.4707  -20.6622  -48.5977 N.am      17 UNK        -0.5000 
     95 CA         -6.2502  -19.2166  -48.4483 C.3       17 UNK         0.1400 
     96 CB         -7.5592  -18.4830  -48.0877 C.3       17 UNK        -0.1800 
     97 C          -5.5247  -18.6068  -49.6682 C.2       17 UNK         0.5000 
     98 O          -5.8472  -17.4980  -50.0963 O.2       17 UNK        -0.5000 
     99 N          -4.5618  -19.3704  -50.2063 N.am      18 UNK        -0.5000 
    100 CA        -3.7408  -19.0909  -51.3890 C.3       18 UNK         0.1400 
    101 CB        -2.8454  -17.8541  -51.1646 C.3       18 UNK        -0.1800 
    102 C         -4.5288  -19.0275  -52.7179 C.2       18 UNK         0.5000 
    103 O         -3.9710  -18.5905  -53.7264 O.2       18 UNK        -0.5000 
    104 N         -5.7835  -19.5080  -52.7306 N.am      19 UNK        -0.5000 
    105 CA        -6.6604  -19.5634  -53.9072 C.3       19 UNK         0.1400 
    106 CB        -8.0730  -19.9843  -53.4800 C.3       19 UNK        -0.1800 
    107 C         -6.1443  -20.4878  -55.0265 C.2       19 UNK         0.5000 
    108 O         -6.5268  -20.3074  -56.1832 O.2       19 UNK        -0.5000 
    109 N         -5.2555  -21.4279  -54.6748 N.am      20 UNK        -0.5000 
    110 CA        -4.4896  -22.2661  -55.5992 C.3       20 UNK         0.1400 
    111 CB        -3.6891  -23.2923  -54.7824 C.3       20 UNK        -0.1800 
    112 C         -3.5480  -21.4801  -56.5397 C.2       20 UNK         0.5000 
    113 O         -3.1232  -22.0376  -57.5526 O.2       20 UNK        -0.5000 
    114 N         -3.2289  -20.2212  -56.1935 N.am      21 UNK        -0.5000 
    115 CA        -2.4081  -19.2343  -56.9118 C.3       21 UNK         0.1400 
    116 CB        -2.9745  -18.9364  -58.3130 C.3       21 UNK        -0.1800 
    117 C         -0.9049  -19.5681  -56.9715 C.2       21 UNK         0.5000 
    118 O         -0.0858  -18.6755  -56.7497 O.2       21 UNK        -0.5000 
    119 N         -0.5764  -20.8424  -57.2102 N.am      22 UNK        -0.5000 
    120 CA         0.7734  -21.4269  -57.2031 C.3       22 UNK         0.1400 
    121 C          1.7098  -20.8559  -58.3160 C.2       22 UNK         0.5000 
    122 N          3.0183  -21.0617  -58.2310 N.am      22 UNK        -0.7600 
    123 O          1.2609  -20.2719  -59.3007 O.2       22 UNK        -0.5000 
    124 C124        1.4052  -21.4186  -55.7798 C.3       23 UNK        -0.0398 
    125 S125        0.3885  -22.3075  -54.5451 S.3       23 UNK        -0.2404 
    126 C126       -0.3561  -20.9489  -53.5855 C.3       23 UNK        -0.0205 
    127 H127       -3.2380  -12.3091  -51.2072 H         1 UNK         0.0600 
    128 H128       -4.1790  -13.2934  -50.0809 H         1 UNK         0.0600 
    129 H129       -3.4704  -14.0318  -51.5193 H         1 UNK         0.0600 
    130 H130       -1.6168  -15.1919  -51.0969 H         1 UNK         0.3000 
    131 H131        0.5529  -14.2026  -49.5256 H         1 UNK         0.0600 
    132 H132        1.6735  -16.2961  -50.0918 H         1 UNK         0.0800 
    133 H133        0.1707  -17.0491  -50.5732 H         1 UNK         0.0800 
    134 H134        3.2219  -16.3778  -52.3877 H         1 UNK         0.0800 
    135 H135        2.3829  -16.5966  -53.9035 H         1 UNK         0.0800 
    136 H136        0.5304  -18.4043  -54.0371 H         1 UNK         0.1150 
    137 H137        1.0058  -21.7241  -51.3646 H         1 UNK         0.1150 
    138 H138        3.3152  -18.1599  -50.7886 H         1 UNK         0.1150 
    139 H139        2.4985  -21.6219  -49.5213 H         1 UNK         0.0800 
    140 H140        3.9498  -20.7243  -49.8858 H         1 UNK         0.0800 
    141 H141        0.4132  -19.1524  -49.0453 H         1 UNK         0.0800 
    142 H142        0.5818  -18.7285  -47.3670 H         1 UNK         0.0800 
    143 H143        0.2803  -21.5436  -48.5146 H         1 UNK         0.0600 
    144 H144        0.9225  -20.7391  -45.7327 H         1 UNK         0.3000 
    145 H145        0.9587  -24.0401  -44.5809 H         1 UNK         0.0600 
    146 H146        3.5535  -22.5051  -45.1573 H         1 UNK         0.0600 
    147 H147        3.3451  -23.7567  -43.9306 H         1 UNK         0.0600 
    148 H148        3.2230  -24.1661  -45.6338 H         1 UNK         0.0600 
    149 H149        2.0096  -21.6322  -43.4485 H         1 UNK         0.3000 
    150 H150       -0.9899  -19.9774  -42.7096 H         1 UNK         0.0600 
    151 H151       -1.0217  -21.6283  -40.8370 H         1 UNK         0.0600 
    152 H152       -0.2920  -20.1121  -40.3334 H         1 UNK         0.0600 
    153 H153        0.7276  -21.5085  -40.6832 H         1 UNK         0.0600 
    154 H154        1.7140  -19.5689  -41.8615 H         1 UNK         0.3000 
    155 H155        3.4340  -18.6952  -43.9286 H         1 UNK         0.0600 
    156 H156        2.5859  -17.3655  -45.7703 H         1 UNK         0.0600 
    157 H157        3.4880  -16.3039  -44.7003 H         1 UNK         0.0600 
    158 H158        1.7270  -16.2858  -44.6919 H         1 UNK         0.0600 
    159 H159        2.3899  -16.5298  -42.2093 H         1 UNK         0.3000 
    160 H160        2.7537  -17.8399  -39.3914 H         1 UNK         0.0600 
    161 H161        4.8639  -17.0497  -38.2880 H         1 UNK         0.0600 
    162 H162        5.7026  -17.1642  -39.8357 H         1 UNK         0.0600 
    163 H163        5.0487  -18.6057  -39.0775 H         1 UNK         0.0600 
    164 H164        2.2169  -15.7452  -39.5931 H         1 UNK         0.3000 
    165 H165        3.6457  -12.9658  -39.5669 H         1 UNK         0.0600 
    166 H166        2.8767  -13.1987  -42.5232 H         1 UNK         0.0600 
    167 H167        2.7549  -11.7142  -41.5786 H         1 UNK         0.0600 
    168 H168        4.3233  -12.4496  -41.8643 H         1 UNK         0.0600 
    169 H169        1.1318  -13.9774  -40.8094 H         1 UNK         0.3000 
    170 H170       -0.5082  -14.2469  -37.7355 H         1 UNK         0.0600 
    171 H171       -1.0892  -11.9833  -39.7232 H         1 UNK         0.0600 
    172 H172       -2.2449  -12.6904  -38.5929 H         1 UNK         0.0600 
    173 H173       -0.8661  -11.7862  -37.9891 H         1 UNK         0.0600 
    174 H174       -1.4711  -14.3084  -40.4344 H         1 UNK         0.3000 
    175 H175       -0.2380  -17.4697  -41.3704 H         1 UNK         0.0600 
    176 H176       -3.1247  -16.7791  -40.6168 H         1 UNK         0.0600 
    177 H177       -2.6129  -18.0711  -41.7032 H         1 UNK         0.0600 
    178 H178       -2.2092  -18.1485  -39.9955 H         1 UNK         0.0600 
    179 H179       -2.0746  -15.8553  -42.7370 H         1 UNK         0.3000 
    180 H180       -1.4813  -13.7284  -43.8317 H         1 UNK         0.0600 
    181 H181        1.4472  -13.7665  -44.7392 H         1 UNK         0.0600 
    182 H182        0.7232  -12.5942  -43.6424 H         1 UNK         0.0600 
    183 H183        0.1984  -12.6659  -45.3166 H         1 UNK         0.0600 
    184 H184       -0.0941  -15.2646  -45.9022 H         1 UNK         0.3000 
    185 H185       -1.3646  -17.5753  -46.5210 H         1 UNK         0.0600 
    186 H186       -3.3896  -17.9824  -47.8132 H         1 UNK         0.0600 
    187 H187       -3.8629  -17.7397  -46.1390 H         1 UNK         0.0600 
    188 H188       -4.1030  -16.4512  -47.3053 H         1 UNK         0.0600 
    189 H189       -2.2610  -15.8303  -48.6066 H         1 UNK         0.3000 
    190 H190       -1.2808  -21.0431  -45.5377 H         1 UNK         0.3000 
    191 H191       -3.8204  -20.0973  -46.7142 H         1 UNK         0.0600 
    192 H192       -3.2052  -20.7766  -43.7902 H         1 UNK         0.0600 
    193 H193       -3.0024  -19.1740  -44.4818 H         1 UNK         0.0600 
    194 H194       -4.5958  -19.9142  -44.4222 H         1 UNK         0.0600 
    195 H195       -2.4990  -22.8443  -44.8311 H         1 UNK         0.3000 
    196 H196       -4.7382  -24.6059  -45.2378 H         1 UNK         0.0600 
    197 H197       -3.1822  -24.7915  -43.2953 H         1 UNK         0.0600 
    198 H198       -1.8363  -25.1372  -44.3792 H         1 UNK         0.0600 
    199 H199       -3.1666  -26.2808  -44.2288 H         1 UNK         0.0600 
    200 H200       -4.9025  -26.3707  -46.5940 H         1 UNK         0.3000 
    201 H201       -4.8491  -27.6541  -48.3551 H         1 UNK         0.0600 
    202 H202       -2.7159  -28.4110  -49.3402 H         1 UNK         0.0600 
    203 H203       -2.5952  -28.3586  -47.5883 H         1 UNK         0.0600 
    204 H204       -1.8449  -27.0974  -48.5653 H         1 UNK         0.0600 
    205 H205       -3.0579  -24.6723  -49.0311 H         1 UNK         0.3000 
    206 H206       -3.7751  -24.5284  -51.8504 H         1 UNK         0.0600 
    207 H207       -2.6845  -22.2645  -51.6328 H         1 UNK         0.0600 
    208 H208       -1.6578  -23.5698  -51.0604 H         1 UNK         0.0600 
    209 H209       -2.5012  -22.5396  -49.9058 H         1 UNK         0.0600 
    210 H210       -5.5215  -23.9273  -49.0397 H         1 UNK         0.3000 
    211 H211       -7.5085  -23.0972  -48.5258 H         1 UNK         0.0600 
    212 H212       -8.2591  -24.4836  -50.4475 H         1 UNK         0.0600 
    213 H213       -9.2545  -23.0440  -50.2915 H         1 UNK         0.0600 
    214 H214       -8.0290  -23.1276  -51.5488 H         1 UNK         0.0600 
    215 H215       -5.9663  -21.2633  -47.9487 H         1 UNK         0.3000 
    216 H216       -5.5826  -19.0930  -47.5988 H         1 UNK         0.0600 
    217 H217       -7.3619  -17.4419  -47.8292 H         1 UNK         0.0600 
    218 H218       -8.2697  -18.4824  -48.9146 H         1 UNK         0.0600 
    219 H219       -8.0450  -18.9432  -47.2274 H         1 UNK         0.0600 
    220 H220       -4.3659  -20.2538  -49.7567 H         1 UNK         0.3000 
    221 H221       -3.0740  -19.9473  -51.4880 H         1 UNK         0.0600 
    222 H222       -3.4287  -16.9348  -51.1121 H         1 UNK         0.0600 
    223 H223       -2.2760  -17.9481  -50.2398 H         1 UNK         0.0600 
    224 H224       -2.1244  -17.7396  -51.9752 H         1 UNK         0.0600 
    225 H225       -6.1637  -19.8940  -51.8752 H         1 UNK         0.3000 
    226 H226       -6.7170  -18.5547  -54.3210 H         1 UNK         0.0600 
    227 H227       -8.4790  -19.3035  -52.7316 H         1 UNK         0.0600 
    228 H228       -8.7576  -19.9786  -54.3290 H         1 UNK         0.0600 
    229 H229       -8.0791  -20.9913  -53.0609 H         1 UNK         0.0600 
    230 H230       -5.0815  -21.5633  -53.6844 H         1 UNK         0.3000 
    231 H231       -5.2010  -22.8047  -56.2282 H         1 UNK         0.0600 
    232 H232       -3.1133  -23.9513  -55.4335 H         1 UNK         0.0600 
    233 H233       -4.3509  -23.9225  -54.1883 H         1 UNK         0.0600 
    234 H234       -2.9865  -22.8063  -54.1047 H         1 UNK         0.0600 
    235 H235       -3.6134  -19.8717  -55.3221 H         1 UNK         0.3000 
    236 H236       -2.4959  -18.3165  -56.3280 H         1 UNK         0.0600 
    237 H237       -4.0238  -18.6458  -58.2599 H         1 UNK         0.0600 
    238 H238       -2.4318  -18.1152  -58.7826 H         1 UNK         0.0600 
    239 H239       -2.8969  -19.7970  -58.9777 H         1 UNK         0.0600 
    240 H240       -1.3397  -21.4825  -57.4091 H         1 UNK         0.3000 
    241 H241        0.6261  -22.4695  -57.4860 H         1 UNK         0.0600 
    242 H242        3.6128  -20.7088  -58.9653 H         1 UNK         0.3800 
    243 H243        3.4330  -21.5671  -57.4643 H         1 UNK         0.3800 
    244 H244        2.3748  -21.9167  -55.7861 H         1 UNK         0.0800 
    245 H245        1.5981  -20.3973  -55.4524 H         1 UNK         0.0800 
    246 H246       -0.9273  -20.2951  -54.2429 H         1 UNK         0.0800 
    247 H247       -1.0763  -21.3724  -52.8893 H         1 UNK         0.0800 
@<TRIPOS>BOND
     1    1    2 1    
     2    1  127 1    
     3    1  128 1    
     4    1  129 1    
     5    2    3 2    
     6    2    4 am   BACKBONE|DICT|INTERRES
     7    4    5 1    
     8    4  130 1    
     9    5    6 1    
    10    5   65 1    
    11    5  131 1    
    12    6    7 1    
    13    6  132 1    
    14    6  133 1    
    15    7    8 1    
    16    8    9 1    
    17    8  134 1    
    18    8  135 1    
    19    9   10 ar   
    20    9   14 ar   
    21   10   11 ar   
    22   10  136 1    
    23   11   12 ar   
    24   11  126 1    
    25   12   13 ar   
    26   12  137 1    
    27   13   14 ar   
    28   13   15 1    
    29   14  138 1    
    30   15   16 1    
    31   15  139 1    
    32   15  140 1    
    33   16   17 1    
    34   17   18 1    
    35   17  141 1    
    36   17  142 1    
    37   18   19 1    
    38   18   67 1    
    39   18  143 1    
    40   19   20 am   BACKBONE|DICT|INTERRES
    41   19  144 1    
    42   20   21 2    
    43   20   22 1    
    44   22   23 1    
    45   22   24 1    
    46   22  145 1    
    47   23  146 1    
    48   23  147 1    
    49   23  148 1    
    50   24   25 am   BACKBONE|DICT|INTERRES
    51   24  149 1    
    52   25   26 2    
    53   25   27 1    
    54   27   28 1    
    55   27   29 1    
    56   27  150 1    
    57   28  151 1    
    58   28  152 1    
    59   28  153 1    
    60   29   30 am   BACKBONE|DICT|INTERRES
    61   29  154 1    
    62   30   31 2    
    63   30   32 1    
    64   32   33 1    
    65   32   34 1    
    66   32  155 1    
    67   33  156 1    
    68   33  157 1    
    69   33  158 1    
    70   34   35 am   BACKBONE|DICT|INTERRES
    71   34  159 1    
    72   35   36 2    
    73   35   37 1    
    74   37   38 1    
    75   37   39 1    
    76   37  160 1    
    77   38  161 1    
    78   38  162 1    
    79   38  163 1    
    80   39   40 am   BACKBONE|DICT|INTERRES
    81   39  164 1    
    82   40   41 2    
    83   40   42 1    
    84   42   43 1    
    85   42   44 1    
    86   42  165 1    
    87   43  166 1    
    88   43  167 1    
    89   43  168 1    
    90   44   45 am   BACKBONE|DICT|INTERRES
    91   44  169 1    
    92   45   46 2    
    93   45   47 1    
    94   47   48 1    
    95   47   49 1    
    96   47  170 1    
    97   48  171 1    
    98   48  172 1    
    99   48  173 1    
   100   49   50 am   BACKBONE|DICT|INTERRES
   101   49  174 1    
   102   50   51 2    
   103   50   52 1    
   104   52   53 1    
   105   52   54 1    
   106   52  175 1    
   107   53  176 1    
   108   53  177 1    
   109   53  178 1    
   110   54   55 am   BACKBONE|DICT|INTERRES
   111   54  179 1    
   112   55   56 2    
   113   55   57 1    
   114   57   58 1    
   115   57   59 1    
   116   57  180 1    
   117   58  181 1    
   118   58  182 1    
   119   58  183 1    
   120   59   60 am   BACKBONE|DICT|INTERRES
   121   59  184 1    
   122   60   61 2    
   123   60   62 1    
   124   62   63 1    
   125   62   64 1    
   126   62  185 1    
   127   63  186 1    
   128   63  187 1    
   129   63  188 1    
   130   64   65 am   BACKBONE|DICT|INTERRES
   131   64  189 1    
   132   65   66 2    
   133   67   68 2    
   134   67   69 am   BACKBONE|DICT|INTERRES
   135   69   70 1    
   136   69  190 1    
   137   70   71 1    
   138   70   72 1    
   139   70  191 1    
   140   71  192 1    
   141   71  193 1    
   142   71  194 1    
   143   72   73 2    
   144   72   74 am   BACKBONE|DICT|INTERRES
   145   74   75 1    
   146   74  195 1    
   147   75   76 1    
   148   75   77 1    
   149   75  196 1    
   150   76  197 1    
   151   76  198 1    
   152   76  199 1    
   153   77   78 2    
   154   77   79 am   BACKBONE|DICT|INTERRES
   155   79   80 1    
   156   79  200 1    
   157   80   81 1    
   158   80   82 1    
   159   80  201 1    
   160   81  202 1    
   161   81  203 1    
   162   81  204 1    
   163   82   83 2    
   164   82   84 am   BACKBONE|DICT|INTERRES
   165   84   85 1    
   166   84  205 1    
   167   85   86 1    
   168   85   87 1    
   169   85  206 1    
   170   86  207 1    
   171   86  208 1    
   172   86  209 1    
   173   87   88 2    
   174   87   89 am   BACKBONE|DICT|INTERRES
   175   89   90 1    
   176   89  210 1    
   177   90   91 1    
   178   90   92 1    
   179   90  211 1    
   180   91  212 1    
   181   91  213 1    
   182   91  214 1    
   183   92   93 2    
   184   92   94 am   BACKBONE|DICT|INTERRES
   185   94   95 1    
   186   94  215 1    
   187   95   96 1    
   188   95   97 1    
   189   95  216 1    
   190   96  217 1    
   191   96  218 1    
   192   96  219 1    
   193   97   98 2    
   194   97   99 am   BACKBONE|DICT|INTERRES
   195   99  100 1    
   196   99  220 1    
   197  100  101 1    
   198  100  102 1    
   199  100  221 1    
   200  101  222 1    
   201  101  223 1    
   202  101  224 1    
   203  102  103 2    
   204  102  104 am   BACKBONE|DICT|INTERRES
   205  104  105 1    
   206  104  225 1    
   207  105  106 1    
   208  105  107 1    
   209  105  226 1    
   210  106  227 1    
   211  106  228 1    
   212  106  229 1    
   213  107  108 2    
   214  107  109 am   BACKBONE|DICT|INTERRES
   215  109  110 1    
   216  109  230 1    
   217  110  111 1    
   218  110  112 1    
   219  110  231 1    
   220  111  232 1    
   221  111  233 1    
   222  111  234 1    
   223  112  113 2    
   224  112  114 am   BACKBONE|DICT|INTERRES
   225  114  115 1    
   226  114  235 1    
   227  115  116 1    
   228  115  117 1    
   229  115  236 1    
   230  116  237 1    
   231  116  238 1    
   232  116  239 1    
   233  117  118 2    
   234  117  119 am   BACKBONE|DICT|INTERRES
   235  119  120 1    
   236  119  240 1    
   237  120  121 1    
   238  120  124 1    
   239  120  241 1    
   240  121  122 am   BACKBONE|DICT|INTERRES
   241  121  123 2    
   242  122  242 1    
   243  122  243 1    
   244  124  125 1    
   245  124  244 1    
   246  124  245 1    
   247  125  126 1    
   248  126  246 1    
   249  126  247 1    
@<TRIPOS>SUBSTRUCTURE
     1 UNK         1 GROUP             0       ****    0 ROOT    
