@<TRIPOS>MOLECULE
3R540
247   249    1
SMALL
USER_CHARGES


@<TRIPOS>ATOM
      1 CA          7.6105   -8.7307  -49.8180 C.3       0 UNK        -0.1800 
      2 C           6.7605   -9.9084  -49.3618 C.2       0 UNK         0.5000 
      3 O           7.2007  -10.6921  -48.5203 O.2       0 UNK        -0.5000 
      4 N           5.5494  -10.0357  -49.9119 N.am      1 UNK        -0.5000 
      5 CA          4.5795  -11.0750  -49.5795 C.3       1 UNK         0.1400 
      6 C6          4.9262  -12.4473  -50.2216 C.3       23 UNK        -0.0398 
      7 S7          3.8172  -13.7991  -49.6915 S.3       23 UNK        -0.2404 
      8 C8          4.4546  -15.1570  -50.7159 C.3       23 UNK        -0.0205 
      9 C9          3.4171  -16.2492  -50.9258 C.ar      23 UNK        -0.0193 
     10 C10         2.4222  -16.0841  -51.8924 C.ar      23 UNK        -0.1150 
     11 C11         1.5146  -17.1113  -52.1643 C.ar      23 UNK        -0.0193 
     12 C12         1.6007  -18.3120  -51.4493 C.ar      23 UNK        -0.1150 
     13 C13         2.5871  -18.4865  -50.4717 C.ar      23 UNK        -0.0193 
     14 C14         3.4864  -17.4473  -50.2096 C.ar      23 UNK        -0.1150 
     15 C15         2.7374  -19.8152  -49.7425 C.3       23 UNK        -0.0205 
     16 S16         1.9473  -19.7995  -48.1034 S.3       23 UNK        -0.2404 
     17 C17         0.3064  -20.5089  -48.4619 C.3       23 UNK        -0.0398 
     18 CA          0.1336  -21.9561  -47.9386 C.3       11 UNK         0.1400 
     19 N           0.3185  -22.0748  -46.4858 N.am      11 UNK        -0.5000 
     20 C           0.2657  -23.2250  -45.7948 C.2       10 UNK         0.5000 
     21 O           0.1401  -24.3344  -46.3142 O.2       10 UNK        -0.5000 
     22 CA          0.2960  -23.1175  -44.2606 C.3       10 UNK         0.1400 
     23 CB          1.7367  -23.0249  -43.7350 C.3       10 UNK        -0.1800 
     24 N          -0.4918  -21.9824  -43.7785 N.am      10 UNK        -0.5000 
     25 C          -1.8323  -21.9329  -43.8009 C.2       9 UNK         0.5000 
     26 O          -2.5417  -22.8563  -44.1962 O.2       9 UNK        -0.5000 
     27 CA         -2.4926  -20.6172  -43.3478 C.3       9 UNK         0.1400 
     28 CB         -2.6232  -20.5723  -41.8184 C.3       9 UNK        -0.1800 
     29 N          -1.7578  -19.4399  -43.8046 N.am      9 UNK        -0.5000 
     30 C          -1.5986  -19.0976  -45.0909 C.2       8 UNK         0.5000 
     31 O          -2.1388  -19.6881  -46.0251 O.2       8 UNK        -0.5000 
     32 CA         -0.6183  -17.9477  -45.3840 C.3       8 UNK         0.1400 
     33 CB         -1.3684  -16.6178  -45.5363 C.3       8 UNK        -0.1800 
     34 N           0.4392  -17.8268  -44.3731 N.am      8 UNK        -0.5000 
     35 C           1.3823  -18.7623  -44.1708 C.2       7 UNK         0.5000 
     36 O           1.4208  -19.8168  -44.8026 O.2       7 UNK        -0.5000 
     37 CA          2.4275  -18.5290  -43.0644 C.3       7 UNK         0.1400 
     38 CB          3.8030  -18.1997  -43.6618 C.3       7 UNK        -0.1800 
     39 N           2.0407  -17.4815  -42.1212 N.am      7 UNK        -0.5000 
     40 C           1.1756  -17.6644  -41.1136 C.2       6 UNK         0.5000 
     41 O           0.6382  -18.7445  -40.8660 O.2       6 UNK        -0.5000 
     42 CA          0.8231  -16.4300  -40.2592 C.3       6 UNK         0.1400 
     43 CB          1.7445  -16.3432  -39.0333 C.3       6 UNK        -0.1800 
     44 N           0.8858  -15.1651  -40.9970 N.am      6 UNK        -0.5000 
     45 C           0.1284  -14.8640  -42.0600 C.2       5 UNK         0.5000 
     46 O          -0.7137  -15.6312  -42.5255 O.2       5 UNK        -0.5000 
     47 CA          0.3555  -13.5040  -42.7476 C.3       5 UNK         0.1400 
     48 CB          1.3123  -12.5571  -41.9882 C.3       5 UNK        -0.1800 
     49 N           0.7948  -13.6739  -44.1358 N.am      5 UNK        -0.5000 
     50 C           1.8988  -14.2978  -44.5747 C.2       4 UNK         0.5000 
     51 O           2.6916  -14.8698  -43.8247 O.2       4 UNK        -0.5000 
     52 CA          2.1724  -14.2911  -46.0981 C.3       4 UNK         0.1400 
     53 CB          2.4638  -15.7071  -46.6251 C.3       4 UNK        -0.1800 
     54 N           1.1040  -13.7046  -46.9141 N.am      4 UNK        -0.5000 
     55 C           0.8205  -12.4026  -47.0198 C.2       3 UNK         0.5000 
     56 O           1.4164  -11.5199  -46.4004 O.2       3 UNK        -0.5000 
     57 CA         -0.3003  -12.0189  -47.9949 C.3       3 UNK         0.1400 
     58 CB         -1.3631  -11.1292  -47.3294 C.3       3 UNK        -0.1800 
     59 N           0.3315  -11.2988  -49.0869 N.am      3 UNK        -0.5000 
     60 C           0.1159  -11.4919  -50.3900 C.2       2 UNK         0.5000 
     61 O          -0.7985  -12.1832  -50.8392 O.2       2 UNK        -0.5000 
     62 CA          1.1246  -10.8432  -51.3602 C.3       2 UNK         0.1400 
     63 CB          0.7913   -9.3626  -51.6269 C.3       2 UNK        -0.1800 
     64 N           2.5251  -11.0390  -50.9500 N.am      2 UNK        -0.5000 
     65 C           3.1829  -10.5123  -49.9052 C.2       1 UNK         0.5000 
     66 O           2.7176   -9.6315  -49.1808 O.2       1 UNK        -0.5000 
     67 C          -1.2390  -22.5112  -48.3685 C.2       11 UNK         0.5000 
     68 O          -1.2988  -23.3549  -49.2631 O.2       11 UNK        -0.5000 
     69 N          -2.3030  -22.0667  -47.6834 N.am      12 UNK        -0.5000 
     70 CA         -3.6736  -22.5187  -47.9009 C.3       12 UNK         0.1400 
     71 CB         -4.6427  -21.6632  -47.0731 C.3       12 UNK        -0.1800 
     72 C          -3.8586  -24.0143  -47.5990 C.2       12 UNK         0.5000 
     73 O          -4.4623  -24.7160  -48.4081 O.2       12 UNK        -0.5000 
     74 N          -3.3081  -24.4930  -46.4731 N.am      13 UNK        -0.5000 
     75 CA         -3.3496  -25.8995  -46.0613 C.3       13 UNK         0.1400 
     76 CB         -2.7307  -26.0576  -44.6653 C.3       13 UNK        -0.1800 
     77 C          -2.6711  -26.8509  -47.0634 C.2       13 UNK         0.5000 
     78 O          -3.2025  -27.9312  -47.3222 O.2       13 UNK        -0.5000 
     79 N          -1.5508  -26.4159  -47.6580 N.am      14 UNK        -0.5000 
     80 CA         -0.8420  -27.1345  -48.7218 C.3       14 UNK         0.1400 
     81 CB          0.5066  -26.4488  -48.9870 C.3       14 UNK        -0.1800 
     82 C          -1.6562  -27.2658  -50.0272 C.2       14 UNK         0.5000 
     83 O          -1.4292  -28.2067  -50.7883 O.2       14 UNK        -0.5000 
     84 N          -2.6060  -26.3473  -50.2439 N.am      15 UNK        -0.5000 
     85 CA         -3.5668  -26.3502  -51.3472 C.3       15 UNK         0.1400 
     86 CB         -3.6832  -24.9162  -51.8870 C.3       15 UNK        -0.1800 
     87 C          -4.9453  -26.8984  -50.9182 C.2       15 UNK         0.5000 
     88 O          -5.9184  -26.7185  -51.6518 O.2       15 UNK        -0.5000 
     89 N          -5.0260  -27.5255  -49.7325 N.am      16 UNK        -0.5000 
     90 CA         -6.2219  -28.1106  -49.1101 C.3       16 UNK         0.1400 
     91 CB         -6.6789  -29.3561  -49.8974 C.3       16 UNK        -0.1800 
     92 C          -7.3679  -27.0981  -48.8818 C.2       16 UNK         0.5000 
     93 O          -8.5390  -27.4802  -48.8951 O.2       16 UNK        -0.5000 
     94 N          -7.0037  -25.8202  -48.6993 N.am      17 UNK        -0.5000 
     95 CA         -7.8584  -24.6376  -48.5558 C.3       17 UNK         0.1400 
     96 CB         -8.7187  -24.7292  -47.2791 C.3       17 UNK        -0.1800 
     97 C          -8.6916  -24.2940  -49.8109 C.2       17 UNK         0.5000 
     98 O          -9.5878  -23.4527  -49.7256 O.2       17 UNK        -0.5000 
     99 N          -8.3830  -24.9168  -50.9579 N.am      18 UNK        -0.5000 
    100 CA        -9.0560  -24.6744  -52.2359 C.3       18 UNK         0.1400 
    101 CB        -8.9379  -25.9349  -53.1067 C.3       18 UNK        -0.1800 
    102 C         -8.4898  -23.4507  -52.9814 C.2       18 UNK         0.5000 
    103 O         -9.1545  -22.9273  -53.8767 O.2       18 UNK        -0.5000 
    104 N         -7.2789  -23.0225  -52.6100 N.am      19 UNK        -0.5000 
    105 CA        -6.5306  -21.9119  -53.1865 C.3       19 UNK         0.1400 
    106 CB        -5.9645  -22.3207  -54.5644 C.3       19 UNK        -0.1800 
    107 C         -5.4209  -21.5084  -52.1989 C.2       19 UNK         0.5000 
    108 O         -5.4167  -21.9803  -51.0594 O.2       19 UNK        -0.5000 
    109 N         -4.4942  -20.6585  -52.6643 N.am      20 UNK        -0.5000 
    110 CA        -3.2449  -20.2573  -52.0041 C.3       20 UNK         0.1400 
    111 CB        -2.2929  -21.4597  -51.8625 C.3       20 UNK        -0.1800 
    112 C         -3.4282  -19.4800  -50.6836 C.2       20 UNK         0.5000 
    113 O         -2.5378  -19.4929  -49.8324 O.2       20 UNK        -0.5000 
    114 N         -4.5460  -18.7474  -50.5660 N.am      21 UNK        -0.5000 
    115 CA        -4.8675  -17.8544  -49.4428 C.3       21 UNK         0.1400 
    116 CB        -6.3125  -17.3586  -49.6039 C.3       21 UNK        -0.1800 
    117 C         -3.8938  -16.6640  -49.2826 C.2       21 UNK         0.5000 
    118 O         -3.8724  -16.0280  -48.2293 O.2       21 UNK        -0.5000 
    119 N         -3.0972  -16.4059  -50.3249 N.am      22 UNK        -0.5000 
    120 CA        -1.8849  -15.5773  -50.3221 C.3       22 UNK         0.1400 
    121 C         -0.7502  -16.0895  -49.3888 C.2       22 UNK         0.5000 
    122 N         -0.6995  -17.3655  -49.0324 N.am      22 UNK        -0.7600 
    123 O          0.0933  -15.3072  -48.9686 O.2       22 UNK        -0.5000 
    124 C124       -1.3553  -15.3772  -51.7683 C.3       23 UNK        -0.0398 
    125 S125       -1.2270  -16.9427  -52.7156 S.3       23 UNK        -0.2404 
    126 C126        0.4994  -16.9439  -53.2875 C.3       23 UNK        -0.0205 
    127 H127        8.5439   -9.0880  -50.2532 H         1 UNK         0.0600 
    128 H128        7.0973   -8.1248  -50.5652 H         1 UNK         0.0600 
    129 H129        7.8518   -8.0909  -48.9691 H         1 UNK         0.0600 
    130 H130        5.2232   -9.3406  -50.5703 H         1 UNK         0.3000 
    131 H131        4.5931  -11.2095  -48.4953 H         1 UNK         0.0600 
    132 H132        4.9272  -12.3756  -51.3103 H         1 UNK         0.0800 
    133 H133        5.9408  -12.7355  -49.9433 H         1 UNK         0.0800 
    134 H134        4.7627  -14.7742  -51.6899 H         1 UNK         0.0800 
    135 H135        5.3536  -15.5634  -50.2499 H         1 UNK         0.0800 
    136 H136        2.3763  -15.1619  -52.4542 H         1 UNK         0.1150 
    137 H137        0.9109  -19.1145  -51.6691 H         1 UNK         0.1150 
    138 H138        4.2595  -17.5842  -49.4667 H         1 UNK         0.1150 
    139 H139        2.3459  -20.6352  -50.3462 H         1 UNK         0.0800 
    140 H140        3.7986  -20.0294  -49.6078 H         1 UNK         0.0800 
    141 H141        0.1245  -20.4632  -49.5369 H         1 UNK         0.0800 
    142 H142       -0.4439  -19.8623  -48.0105 H         1 UNK         0.0800 
    143 H143        0.8971  -22.5777  -48.4109 H         1 UNK         0.0600 
    144 H144        0.4945  -21.2135  -45.9788 H         1 UNK         0.3000 
    145 H145       -0.1449  -24.0296  -43.8536 H         1 UNK         0.0600 
    146 H146        1.7570  -22.9564  -42.6473 H         1 UNK         0.0600 
    147 H147        2.3062  -23.9118  -44.0154 H         1 UNK         0.0600 
    148 H148        2.2662  -22.1614  -44.1362 H         1 UNK         0.0600 
    149 H149        0.0240  -21.1561  -43.5116 H         1 UNK         0.3000 
    150 H150       -3.4948  -20.5799  -43.7800 H         1 UNK         0.0600 
    151 H151       -3.1807  -21.4341  -41.4490 H         1 UNK         0.0600 
    152 H152       -3.1557  -19.6779  -41.4944 H         1 UNK         0.0600 
    153 H153       -1.6479  -20.5769  -41.3297 H         1 UNK         0.0600 
    154 H154       -1.2726  -18.9011  -43.1015 H         1 UNK         0.3000 
    155 H155       -0.1325  -18.1668  -46.3353 H         1 UNK         0.0600 
    156 H156       -0.6862  -15.7893  -45.7206 H         1 UNK         0.0600 
    157 H157       -1.9620  -16.3820  -44.6536 H         1 UNK         0.0600 
    158 H158       -2.0543  -16.6637  -46.3819 H         1 UNK         0.0600 
    159 H159        0.4071  -17.0114  -43.7738 H         1 UNK         0.3000 
    160 H160        2.5265  -19.4710  -42.5204 H         1 UNK         0.0600 
    161 H161        3.8012  -17.2426  -44.1795 H         1 UNK         0.0600 
    162 H162        4.1115  -18.9610  -44.3798 H         1 UNK         0.0600 
    163 H163        4.5672  -18.1568  -42.8858 H         1 UNK         0.0600 
    164 H164        2.4052  -16.5531  -42.2990 H         1 UNK         0.3000 
    165 H165       -0.2027  -16.5588  -39.9076 H         1 UNK         0.0600 
    166 H166        2.7844  -16.1851  -39.3220 H         1 UNK         0.0600 
    167 H167        1.4499  -15.5261  -38.3746 H         1 UNK         0.0600 
    168 H168        1.7025  -17.2624  -38.4472 H         1 UNK         0.0600 
    169 H169        1.5726  -14.4926  -40.6881 H         1 UNK         0.3000 
    170 H170       -0.6212  -13.0198  -42.7894 H         1 UNK         0.0600 
    171 H171        0.9526  -12.3603  -40.9775 H         1 UNK         0.0600 
    172 H172        2.3228  -12.9601  -41.9119 H         1 UNK         0.0600 
    173 H173        1.3829  -11.5938  -42.4936 H         1 UNK         0.0600 
    174 H174        0.1972  -13.2590  -44.8347 H         1 UNK         0.3000 
    175 H175        3.0719  -13.6914  -46.2504 H         1 UNK         0.0600 
    176 H176        2.6698  -15.6981  -47.6951 H         1 UNK         0.0600 
    177 H177        3.3373  -16.1394  -46.1392 H         1 UNK         0.0600 
    178 H178        1.6238  -16.3799  -46.4630 H         1 UNK         0.0600 
    179 H179        0.6334  -14.3501  -47.5488 H         1 UNK         0.3000 
    180 H180       -0.7867  -12.9243  -48.3615 H         1 UNK         0.0600 
    181 H181       -0.9360  -10.1982  -46.9545 H         1 UNK         0.0600 
    182 H182       -1.8286  -11.6426  -46.4875 H         1 UNK         0.0600 
    183 H183       -2.1548  -10.8728  -48.0335 H         1 UNK         0.0600 
    184 H184        1.1164  -10.7099  -48.8217 H         1 UNK         0.3000 
    185 H185        1.0248  -11.3712  -52.3100 H         1 UNK         0.0600 
    186 H186        0.7968   -8.7668  -50.7141 H         1 UNK         0.0600 
    187 H187        1.5013   -8.9176  -52.3239 H         1 UNK         0.0600 
    188 H188       -0.2016   -9.2657  -52.0674 H         1 UNK         0.0600 
    189 H189        2.9957  -11.7778  -51.4533 H         1 UNK         0.3000 
    190 H190       -2.1746  -21.3318  -46.9925 H         1 UNK         0.3000 
    191 H191       -3.9035  -22.3637  -48.9558 H         1 UNK         0.0600 
    192 H192       -4.5639  -20.6110  -47.3459 H         1 UNK         0.0600 
    193 H193       -5.6760  -21.9676  -47.2434 H         1 UNK         0.0600 
    194 H194       -4.4434  -21.7471  -46.0043 H         1 UNK         0.0600 
    195 H195       -2.8630  -23.8466  -45.8275 H         1 UNK         0.3000 
    196 H196       -4.4008  -26.1885  -45.9985 H         1 UNK         0.0600 
    197 H197       -2.7615  -27.0978  -44.3389 H         1 UNK         0.0600 
    198 H198       -3.2732  -25.4704  -43.9244 H         1 UNK         0.0600 
    199 H199       -1.6884  -25.7394  -44.6504 H         1 UNK         0.0600 
    200 H200       -1.1528  -25.5286  -47.3653 H         1 UNK         0.3000 
    201 H201       -0.6414  -28.1455  -48.3616 H         1 UNK         0.0600 
    202 H202        1.1170  -26.4170  -48.0843 H         1 UNK         0.0600 
    203 H203        0.3761  -25.4251  -49.3379 H         1 UNK         0.0600 
    204 H204        1.0761  -26.9860  -49.7463 H         1 UNK         0.0600 
    205 H205       -2.7302  -25.6123  -49.5578 H         1 UNK         0.3000 
    206 H206       -3.2079  -26.9876  -52.1573 H         1 UNK         0.0600 
    207 H207       -2.7155  -24.5422  -52.2209 H         1 UNK         0.0600 
    208 H208       -4.3632  -24.8615  -52.7378 H         1 UNK         0.0600 
    209 H209       -4.0567  -24.2381  -51.1202 H         1 UNK         0.0600 
    210 H210       -4.1828  -27.5907  -49.1744 H         1 UNK         0.3000 
    211 H211       -5.9142  -28.4422  -48.1177 H         1 UNK         0.0600 
    212 H212       -7.0619  -29.0926  -50.8838 H         1 UNK         0.0600 
    213 H213       -7.4725  -29.8857  -49.3691 H         1 UNK         0.0600 
    214 H214       -5.8574  -30.0595  -50.0331 H         1 UNK         0.0600 
    215 H215       -6.0065  -25.6087  -48.7039 H         1 UNK         0.3000 
    216 H216       -7.1733  -23.7989  -48.4252 H         1 UNK         0.0600 
    217 H217       -8.1051  -24.9529  -46.4063 H         1 UNK         0.0600 
    218 H218       -9.4842  -25.5011  -47.3596 H         1 UNK         0.0600 
    219 H219       -9.2281  -23.7855  -47.0813 H         1 UNK         0.0600 
    220 H220       -7.6246  -25.5899  -50.9673 H         1 UNK         0.3000 
    221 H221      -10.1168  -24.4905  -52.0530 H         1 UNK         0.0600 
    222 H222       -7.9017  -26.1447  -53.3738 H         1 UNK         0.0600 
    223 H223       -9.3357  -26.8099  -52.5922 H         1 UNK         0.0600 
    224 H224       -9.4978  -25.8206  -54.0357 H         1 UNK         0.0600 
    225 H225       -6.8242  -23.4570  -51.8169 H         1 UNK         0.3000 
    226 H226       -7.1994  -21.0572  -53.3033 H         1 UNK         0.0600 
    227 H227       -6.7531  -22.6544  -55.2387 H         1 UNK         0.0600 
    228 H228       -5.4655  -21.4867  -55.0580 H         1 UNK         0.0600 
    229 H229       -5.2416  -23.1324  -54.4737 H         1 UNK         0.0600 
    230 H230       -4.6073  -20.3117  -53.6066 H         1 UNK         0.3000 
    231 H231       -2.7657  -19.5554  -52.6870 H         1 UNK         0.0600 
    232 H232       -1.3126  -21.1499  -51.4995 H         1 UNK         0.0600 
    233 H233       -2.1402  -21.9590  -52.8190 H         1 UNK         0.0600 
    234 H234       -2.6853  -22.1937  -51.1607 H         1 UNK         0.0600 
    235 H235       -5.2214  -18.7905  -51.3147 H         1 UNK         0.3000 
    236 H236       -4.8056  -18.4414  -48.5245 H         1 UNK         0.0600 
    237 H237       -6.6024  -16.7195  -48.7688 H         1 UNK         0.0600 
    238 H238       -6.4387  -16.7798  -50.5197 H         1 UNK         0.0600 
    239 H239       -7.0148  -18.1920  -49.6318 H         1 UNK         0.0600 
    240 H240       -3.2053  -16.9836  -51.1446 H         1 UNK         0.3000 
    241 H241       -2.1707  -14.5971  -49.9364 H         1 UNK         0.0600 
    242 H242       -1.3879  -18.0359  -49.3619 H         1 UNK         0.3800 
    243 H243        0.0869  -17.6730  -48.4873 H         1 UNK         0.3800 
    244 H244       -2.0379  -14.7217  -52.3101 H         1 UNK         0.0800 
    245 H245       -0.3966  -14.8551  -51.7654 H         1 UNK         0.0800 
    246 H246        0.6278  -17.7634  -53.9957 H         1 UNK         0.0800 
    247 H247        0.6856  -16.0278  -53.8502 H         1 UNK         0.0800 
@<TRIPOS>BOND
     1    1    2 1    
     2    1  127 1    
     3    1  128 1    
     4    1  129 1    
     5    2    3 2    
     6    2    4 am   BACKBONE|DICT|INTERRES
     7    4    5 1    
     8    4  130 1    
     9    5    6 1    
    10    5   65 1    
    11    5  131 1    
    12    6    7 1    
    13    6  132 1    
    14    6  133 1    
    15    7    8 1    
    16    8    9 1    
    17    8  134 1    
    18    8  135 1    
    19    9   10 ar   
    20    9   14 ar   
    21   10   11 ar   
    22   10  136 1    
    23   11   12 ar   
    24   11  126 1    
    25   12   13 ar   
    26   12  137 1    
    27   13   14 ar   
    28   13   15 1    
    29   14  138 1    
    30   15   16 1    
    31   15  139 1    
    32   15  140 1    
    33   16   17 1    
    34   17   18 1    
    35   17  141 1    
    36   17  142 1    
    37   18   19 1    
    38   18   67 1    
    39   18  143 1    
    40   19   20 am   BACKBONE|DICT|INTERRES
    41   19  144 1    
    42   20   21 2    
    43   20   22 1    
    44   22   23 1    
    45   22   24 1    
    46   22  145 1    
    47   23  146 1    
    48   23  147 1    
    49   23  148 1    
    50   24   25 am   BACKBONE|DICT|INTERRES
    51   24  149 1    
    52   25   26 2    
    53   25   27 1    
    54   27   28 1    
    55   27   29 1    
    56   27  150 1    
    57   28  151 1    
    58   28  152 1    
    59   28  153 1    
    60   29   30 am   BACKBONE|DICT|INTERRES
    61   29  154 1    
    62   30   31 2    
    63   30   32 1    
    64   32   33 1    
    65   32   34 1    
    66   32  155 1    
    67   33  156 1    
    68   33  157 1    
    69   33  158 1    
    70   34   35 am   BACKBONE|DICT|INTERRES
    71   34  159 1    
    72   35   36 2    
    73   35   37 1    
    74   37   38 1    
    75   37   39 1    
    76   37  160 1    
    77   38  161 1    
    78   38  162 1    
    79   38  163 1    
    80   39   40 am   BACKBONE|DICT|INTERRES
    81   39  164 1    
    82   40   41 2    
    83   40   42 1    
    84   42   43 1    
    85   42   44 1    
    86   42  165 1    
    87   43  166 1    
    88   43  167 1    
    89   43  168 1    
    90   44   45 am   BACKBONE|DICT|INTERRES
    91   44  169 1    
    92   45   46 2    
    93   45   47 1    
    94   47   48 1    
    95   47   49 1    
    96   47  170 1    
    97   48  171 1    
    98   48  172 1    
    99   48  173 1    
   100   49   50 am   BACKBONE|DICT|INTERRES
   101   49  174 1    
   102   50   51 2    
   103   50   52 1    
   104   52   53 1    
   105   52   54 1    
   106   52  175 1    
   107   53  176 1    
   108   53  177 1    
   109   53  178 1    
   110   54   55 am   BACKBONE|DICT|INTERRES
   111   54  179 1    
   112   55   56 2    
   113   55   57 1    
   114   57   58 1    
   115   57   59 1    
   116   57  180 1    
   117   58  181 1    
   118   58  182 1    
   119   58  183 1    
   120   59   60 am   BACKBONE|DICT|INTERRES
   121   59  184 1    
   122   60   61 2    
   123   60   62 1    
   124   62   63 1    
   125   62   64 1    
   126   62  185 1    
   127   63  186 1    
   128   63  187 1    
   129   63  188 1    
   130   64   65 am   BACKBONE|DICT|INTERRES
   131   64  189 1    
   132   65   66 2    
   133   67   68 2    
   134   67   69 am   BACKBONE|DICT|INTERRES
   135   69   70 1    
   136   69  190 1    
   137   70   71 1    
   138   70   72 1    
   139   70  191 1    
   140   71  192 1    
   141   71  193 1    
   142   71  194 1    
   143   72   73 2    
   144   72   74 am   BACKBONE|DICT|INTERRES
   145   74   75 1    
   146   74  195 1    
   147   75   76 1    
   148   75   77 1    
   149   75  196 1    
   150   76  197 1    
   151   76  198 1    
   152   76  199 1    
   153   77   78 2    
   154   77   79 am   BACKBONE|DICT|INTERRES
   155   79   80 1    
   156   79  200 1    
   157   80   81 1    
   158   80   82 1    
   159   80  201 1    
   160   81  202 1    
   161   81  203 1    
   162   81  204 1    
   163   82   83 2    
   164   82   84 am   BACKBONE|DICT|INTERRES
   165   84   85 1    
   166   84  205 1    
   167   85   86 1    
   168   85   87 1    
   169   85  206 1    
   170   86  207 1    
   171   86  208 1    
   172   86  209 1    
   173   87   88 2    
   174   87   89 am   BACKBONE|DICT|INTERRES
   175   89   90 1    
   176   89  210 1    
   177   90   91 1    
   178   90   92 1    
   179   90  211 1    
   180   91  212 1    
   181   91  213 1    
   182   91  214 1    
   183   92   93 2    
   184   92   94 am   BACKBONE|DICT|INTERRES
   185   94   95 1    
   186   94  215 1    
   187   95   96 1    
   188   95   97 1    
   189   95  216 1    
   190   96  217 1    
   191   96  218 1    
   192   96  219 1    
   193   97   98 2    
   194   97   99 am   BACKBONE|DICT|INTERRES
   195   99  100 1    
   196   99  220 1    
   197  100  101 1    
   198  100  102 1    
   199  100  221 1    
   200  101  222 1    
   201  101  223 1    
   202  101  224 1    
   203  102  103 2    
   204  102  104 am   BACKBONE|DICT|INTERRES
   205  104  105 1    
   206  104  225 1    
   207  105  106 1    
   208  105  107 1    
   209  105  226 1    
   210  106  227 1    
   211  106  228 1    
   212  106  229 1    
   213  107  108 2    
   214  107  109 am   BACKBONE|DICT|INTERRES
   215  109  110 1    
   216  109  230 1    
   217  110  111 1    
   218  110  112 1    
   219  110  231 1    
   220  111  232 1    
   221  111  233 1    
   222  111  234 1    
   223  112  113 2    
   224  112  114 am   BACKBONE|DICT|INTERRES
   225  114  115 1    
   226  114  235 1    
   227  115  116 1    
   228  115  117 1    
   229  115  236 1    
   230  116  237 1    
   231  116  238 1    
   232  116  239 1    
   233  117  118 2    
   234  117  119 am   BACKBONE|DICT|INTERRES
   235  119  120 1    
   236  119  240 1    
   237  120  121 1    
   238  120  124 1    
   239  120  241 1    
   240  121  122 am   BACKBONE|DICT|INTERRES
   241  121  123 2    
   242  122  242 1    
   243  122  243 1    
   244  124  125 1    
   245  124  244 1    
   246  124  245 1    
   247  125  126 1    
   248  126  246 1    
   249  126  247 1    
@<TRIPOS>SUBSTRUCTURE
     1 UNK         1 GROUP             0       ****    0 ROOT    
