@<TRIPOS>MOLECULE
3R540
247   249    1
SMALL
USER_CHARGES


@<TRIPOS>ATOM
      1 CA          1.5873  -13.3184  -48.7538 C.3       0 UNK        -0.1800 
      2 C           2.5961  -14.4494  -48.6258 C.2       0 UNK         0.5000 
      3 O           2.2041  -15.5829  -48.3450 O.2       0 UNK        -0.5000 
      4 N           3.8868  -14.1382  -48.8190 N.am      1 UNK        -0.5000 
      5 CA          5.0675  -15.0166  -48.7595 C.3       1 UNK         0.1400 
      6 C6          5.0296  -16.1688  -49.7994 C.3       23 UNK        -0.0398 
      7 S7          6.6832  -16.7999  -50.2424 S.3       23 UNK        -0.2404 
      8 C8          6.6676  -16.7009  -52.0630 C.3       23 UNK        -0.0205 
      9 C9          5.7843  -17.7646  -52.7058 C.ar      23 UNK        -0.0193 
     10 C10         4.6439  -17.3990  -53.4278 C.ar      23 UNK        -0.1150 
     11 C11         3.8443  -18.3644  -54.0515 C.ar      23 UNK        -0.0193 
     12 C12         4.2139  -19.7138  -53.9538 C.ar      23 UNK        -0.1150 
     13 C13         5.3435  -20.0956  -53.2265 C.ar      23 UNK        -0.0193 
     14 C14         6.1277  -19.1160  -52.6109 C.ar      23 UNK        -0.1150 
     15 C15         5.7413  -21.5619  -53.1357 C.3       23 UNK        -0.0205 
     16 S16         5.4695  -22.2535  -51.4734 S.3       23 UNK        -0.2404 
     17 C17         3.7040  -22.7203  -51.5130 C.3       23 UNK        -0.0398 
     18 CA          3.0807  -22.6377  -50.0927 C.3       11 UNK         0.1400 
     19 N           2.9260  -21.2507  -49.6426 N.am      11 UNK        -0.5000 
     20 C           1.9599  -20.3937  -49.9969 C.2       10 UNK         0.5000 
     21 O           0.9867  -20.6920  -50.6913 O.2       10 UNK        -0.5000 
     22 CA          2.1474  -18.9349  -49.5382 C.3       10 UNK         0.1400 
     23 CB          2.2356  -18.0325  -50.7764 C.3       10 UNK        -0.1800 
     24 N           1.0982  -18.3971  -48.6729 N.am      10 UNK        -0.5000 
     25 C           0.4492  -19.0090  -47.6759 C.2       9 UNK         0.5000 
     26 O           0.6162  -20.1848  -47.3543 O.2       9 UNK        -0.5000 
     27 CA         -0.5672  -18.1285  -46.9245 C.3       9 UNK         0.1400 
     28 CB         -1.7865  -17.8008  -47.8015 C.3       9 UNK        -0.1800 
     29 N          -1.0509  -18.7284  -45.6841 N.am      9 UNK        -0.5000 
     30 C          -0.3349  -18.8855  -44.5662 C.2       8 UNK         0.5000 
     31 O           0.8321  -18.5129  -44.4418 O.2       8 UNK        -0.5000 
     32 CA         -1.0901  -19.4954  -43.3721 C.3       8 UNK         0.1400 
     33 CB         -0.2051  -19.6645  -42.1256 C.3       8 UNK        -0.1800 
     34 N          -2.2307  -18.6520  -43.0239 N.am      8 UNK        -0.5000 
     35 C          -3.4512  -18.7259  -43.5677 C.2       7 UNK         0.5000 
     36 O          -3.7398  -19.5394  -44.4455 O.2       7 UNK        -0.5000 
     37 CA         -4.5096  -17.6978  -43.1156 C.3       7 UNK         0.1400 
     38 CB         -5.7910  -18.3819  -42.5993 C.3       7 UNK        -0.1800 
     39 N          -4.0137  -16.6881  -42.1692 N.am      7 UNK        -0.5000 
     40 C          -3.6833  -16.8345  -40.8749 C.2       6 UNK         0.5000 
     41 O          -3.7908  -17.8955  -40.2602 O.2       6 UNK        -0.5000 
     42 CA         -3.1001  -15.6007  -40.1520 C.3       6 UNK         0.1400 
     43 CB         -1.8625  -15.9752  -39.3167 C.3       6 UNK        -0.1800 
     44 N          -2.7158  -14.5543  -41.1002 N.am      6 UNK        -0.5000 
     45 C          -3.4090  -13.4368  -41.3571 C.2       5 UNK         0.5000 
     46 O          -4.4375  -13.1181  -40.7601 O.2       5 UNK        -0.5000 
     47 CA         -2.8815  -12.5298  -42.4905 C.3       5 UNK         0.1400 
     48 CB         -2.0688  -11.3636  -41.9077 C.3       5 UNK        -0.1800 
     49 N          -2.0563  -13.2352  -43.4761 N.am      5 UNK        -0.5000 
     50 C          -2.4878  -14.2107  -44.2882 C.2       4 UNK         0.5000 
     51 O          -3.6581  -14.5880  -44.3366 O.2       4 UNK        -0.5000 
     52 CA         -1.4254  -14.9378  -45.1352 C.3       4 UNK         0.1400 
     53 CB         -1.3389  -14.3204  -46.5388 C.3       4 UNK        -0.1800 
     54 N          -0.0855  -14.9676  -44.5364 N.am      4 UNK        -0.5000 
     55 C           0.2177  -15.4899  -43.3395 C.2       3 UNK         0.5000 
     56 O          -0.6186  -15.9927  -42.5857 O.2       3 UNK        -0.5000 
     57 CA          1.6999  -15.4409  -42.9432 C.3       3 UNK         0.1400 
     58 CB          1.9680  -15.9807  -41.5265 C.3       3 UNK        -0.1800 
     59 N           2.4898  -16.1997  -43.9117 N.am      3 UNK        -0.5000 
     60 C           3.6570  -15.7971  -44.4298 C.2       2 UNK         0.5000 
     61 O           4.1620  -14.7009  -44.1808 O.2       2 UNK        -0.5000 
     62 CA          4.4027  -16.7532  -45.3809 C.3       2 UNK         0.1400 
     63 CB          3.8366  -18.1834  -45.4407 C.3       2 UNK        -0.1800 
     64 N           4.3772  -16.1955  -46.7253 N.am      2 UNK        -0.5000 
     65 C           5.3672  -15.5372  -47.3344 C.2       1 UNK         0.5000 
     66 O           6.4706  -15.3292  -46.8270 O.2       1 UNK        -0.5000 
     67 C           1.7881  -23.4652  -49.8924 C.2       11 UNK         0.5000 
     68 O           1.4500  -23.7603  -48.7441 O.2       11 UNK        -0.5000 
     69 N           1.0833  -23.8285  -50.9749 N.am      12 UNK        -0.5000 
     70 CA         -0.1362  -24.6388  -50.9097 C.3       12 UNK         0.1400 
     71 CB         -0.4189  -25.2578  -52.2868 C.3       12 UNK        -0.1800 
     72 C          -1.3725  -23.8709  -50.4029 C.2       12 UNK         0.5000 
     73 O          -2.3510  -24.5142  -50.0203 O.2       12 UNK        -0.5000 
     74 N          -1.3278  -22.5294  -50.3878 N.am      13 UNK        -0.5000 
     75 CA         -2.4531  -21.6898  -49.9721 C.3       13 UNK         0.1400 
     76 CB         -2.2082  -20.2309  -50.3790 C.3       13 UNK        -0.1800 
     77 C          -2.7788  -21.8028  -48.4710 C.2       13 UNK         0.5000 
     78 O          -3.9316  -21.5897  -48.0997 O.2       13 UNK        -0.5000 
     79 N          -1.7957  -22.1791  -47.6383 N.am      14 UNK        -0.5000 
     80 CA         -1.9742  -22.4476  -46.2078 C.3       14 UNK         0.1400 
     81 CB         -0.6154  -22.7373  -45.5505 C.3       14 UNK        -0.1800 
     82 C          -2.9431  -23.6099  -45.9293 C.2       14 UNK         0.5000 
     83 O          -3.7514  -23.5187  -45.0060 O.2       14 UNK        -0.5000 
     84 N          -2.8765  -24.6630  -46.7570 N.am      15 UNK        -0.5000 
     85 CA         -3.7581  -25.8317  -46.6819 C.3       15 UNK         0.1400 
     86 CB         -3.1870  -26.9547  -47.5608 C.3       15 UNK        -0.1800 
     87 C          -5.2100  -25.5088  -47.0843 C.2       15 UNK         0.5000 
     88 O          -6.1352  -26.1693  -46.6116 O.2       15 UNK        -0.5000 
     89 N          -5.3791  -24.4813  -47.9254 N.am      16 UNK        -0.5000 
     90 CA         -6.6673  -23.9350  -48.3452 C.3       16 UNK         0.1400 
     91 CB         -6.5266  -23.4226  -49.7867 C.3       16 UNK        -0.1800 
     92 C          -7.1653  -22.8057  -47.4217 C.2       16 UNK         0.5000 
     93 O          -8.2270  -22.2477  -47.6929 O.2       16 UNK        -0.5000 
     94 N          -6.3904  -22.4492  -46.3848 N.am      17 UNK        -0.5000 
     95 CA         -6.6173  -21.3333  -45.4583 C.3       17 UNK         0.1400 
     96 CB         -7.8234  -21.6251  -44.5416 C.3       17 UNK        -0.1800 
     97 C          -6.7194  -19.9704  -46.1812 C.2       17 UNK         0.5000 
     98 O          -7.5704  -19.1473  -45.8407 O.2       17 UNK        -0.5000 
     99 N          -5.8591  -19.7835  -47.1928 N.am      18 UNK        -0.5000 
    100 CA        -5.7363  -18.6229  -48.0796 C.3       18 UNK         0.1400 
    101 CB        -5.4258  -17.3421  -47.2761 C.3       18 UNK        -0.1800 
    102 C         -6.9156  -18.4360  -49.0605 C.2       18 UNK         0.5000 
    103 O         -6.9865  -17.3973  -49.7186 O.2       18 UNK        -0.5000 
    104 N         -7.8071  -19.4321  -49.1746 N.am      19 UNK        -0.5000 
    105 CA        -8.9847  -19.3933  -50.0484 C.3       19 UNK         0.1400 
    106 CB       -10.1087  -20.2264  -49.4115 C.3       19 UNK        -0.1800 
    107 C         -8.7055  -19.8751  -51.4875 C.2       19 UNK         0.5000 
    108 O         -9.6156  -19.8253  -52.3168 O.2       19 UNK        -0.5000 
    109 N         -7.4823  -20.3405  -51.7688 N.am      20 UNK        -0.5000 
    110 CA        -7.0446  -20.8214  -53.0781 C.3       20 UNK         0.1400 
    111 CB        -7.1620  -22.3552  -53.1293 C.3       20 UNK        -0.1800 
    112 C         -5.6055  -20.3600  -53.3563 C.2       20 UNK         0.5000 
    113 O         -4.9582  -19.7817  -52.4788 O.2       20 UNK        -0.5000 
    114 N         -5.1468  -20.6201  -54.5871 N.am      21 UNK        -0.5000 
    115 CA        -3.8174  -20.2845  -55.0981 C.3       21 UNK         0.1400 
    116 CB        -3.7838  -20.5889  -56.6050 C.3       21 UNK        -0.1800 
    117 C         -2.6717  -21.0207  -54.3752 C.2       21 UNK         0.5000 
    118 O         -2.8857  -22.0667  -53.7583 O.2       21 UNK        -0.5000 
    119 N         -1.4667  -20.4541  -54.4951 N.am      22 UNK        -0.5000 
    120 CA        -0.2352  -20.9235  -53.8437 C.3       22 UNK         0.1400 
    121 C          0.3869  -22.2365  -54.4016 C.2       22 UNK         0.5000 
    122 N         -0.0679  -22.7634  -55.5312 N.am      22 UNK        -0.7600 
    123 O          1.2848  -22.7993  -53.7811 O.2       22 UNK        -0.5000 
    124 C124        0.8027  -19.7800  -53.7418 C.3       23 UNK        -0.0398 
    125 S125        1.4266  -19.1811  -55.3513 S.3       23 UNK        -0.2404 
    126 C126        2.6048  -17.8890  -54.8166 C.3       23 UNK        -0.0205 
    127 H127        0.7406  -13.6370  -49.3619 H         1 UNK         0.0600 
    128 H128        2.0260  -12.4357  -49.2196 H         1 UNK         0.0600 
    129 H129        1.2157  -13.0368  -47.7691 H         1 UNK         0.0600 
    130 H130        4.1089  -13.1716  -49.0140 H         1 UNK         0.3000 
    131 H131        5.8987  -14.3626  -49.0294 H         1 UNK         0.0600 
    132 H132        4.4396  -17.0053  -49.4304 H         1 UNK         0.0800 
    133 H133        4.5359  -15.8258  -50.7091 H         1 UNK         0.0800 
    134 H134        6.3643  -15.6987  -52.3699 H         1 UNK         0.0800 
    135 H135        7.6881  -16.8313  -52.4258 H         1 UNK         0.0800 
    136 H136        4.3750  -16.3548  -53.5062 H         1 UNK         0.1150 
    137 H137        3.6287  -20.4803  -54.4399 H         1 UNK         0.1150 
    138 H138        7.0101  -19.4063  -52.0578 H         1 UNK         0.1150 
    139 H139        5.2072  -22.1621  -53.8743 H         1 UNK         0.0800 
    140 H140        6.8003  -21.6535  -53.3810 H         1 UNK         0.0800 
    141 H141        3.6459  -23.7319  -51.9181 H         1 UNK         0.0800 
    142 H142        3.1724  -22.0678  -52.2057 H         1 UNK         0.0800 
    143 H143        3.7941  -23.0908  -49.4021 H         1 UNK         0.0600 
    144 H144        3.6657  -20.9167  -49.0429 H         1 UNK         0.3000 
    145 H145        3.0829  -18.8597  -48.9821 H         1 UNK         0.0600 
    146 H146        2.4094  -16.9905  -50.5200 H         1 UNK         0.0600 
    147 H147        3.0511  -18.3558  -51.4195 H         1 UNK         0.0600 
    148 H148        1.3159  -18.0632  -51.3584 H         1 UNK         0.0600 
    149 H149        0.9206  -17.4106  -48.8078 H         1 UNK         0.3000 
    150 H150       -0.0563  -17.1969  -46.6735 H         1 UNK         0.0600 
    151 H151       -2.4042  -17.0317  -47.3404 H         1 UNK         0.0600 
    152 H152       -1.4940  -17.4258  -48.7830 H         1 UNK         0.0600 
    153 H153       -2.4135  -18.6789  -47.9529 H         1 UNK         0.0600 
    154 H154       -2.0046  -19.0673  -45.6816 H         1 UNK         0.3000 
    155 H155       -1.4389  -20.4859  -43.6694 H         1 UNK         0.0600 
    156 H156       -0.7506  -20.1596  -41.3222 H         1 UNK         0.0600 
    157 H157        0.1418  -18.7031  -41.7480 H         1 UNK         0.0600 
    158 H158        0.6733  -20.2723  -42.3462 H         1 UNK         0.0600 
    159 H159       -2.0385  -17.8945  -42.3823 H         1 UNK         0.3000 
    160 H160       -4.7825  -17.1429  -44.0142 H         1 UNK         0.0600 
    161 H161       -5.5933  -19.0396  -41.7529 H         1 UNK         0.0600 
    162 H162       -6.2448  -18.9925  -43.3784 H         1 UNK         0.0600 
    163 H163       -6.5353  -17.6476  -42.2914 H         1 UNK         0.0600 
    164 H164       -3.8722  -15.7738  -42.5825 H         1 UNK         0.3000 
    165 H165       -3.8701  -15.2328  -39.4713 H         1 UNK         0.0600 
    166 H166       -1.0798  -16.4206  -39.9320 H         1 UNK         0.0600 
    167 H167       -1.4415  -15.0998  -38.8221 H         1 UNK         0.0600 
    168 H168       -2.1161  -16.6946  -38.5372 H         1 UNK         0.0600 
    169 H169       -1.8980  -14.7666  -41.6627 H         1 UNK         0.3000 
    170 H170       -3.7487  -12.1186  -43.0113 H         1 UNK         0.0600 
    171 H171       -2.6610  -10.7947  -41.1895 H         1 UNK         0.0600 
    172 H172       -1.1749  -11.7150  -41.3908 H         1 UNK         0.0600 
    173 H173       -1.7559  -10.6707  -42.6890 H         1 UNK         0.0600 
    174 H174       -1.0769  -12.9927  -43.5010 H         1 UNK         0.3000 
    175 H175       -1.7590  -15.9718  -45.2319 H         1 UNK         0.0600 
    176 H176       -1.0061  -13.2826  -46.5005 H         1 UNK         0.0600 
    177 H177       -0.6467  -14.8711  -47.1756 H         1 UNK         0.0600 
    178 H178       -2.3118  -14.3345  -47.0321 H         1 UNK         0.0600 
    179 H179        0.6652  -14.5867  -45.0938 H         1 UNK         0.3000 
    180 H180        1.9817  -14.3863  -42.9587 H         1 UNK         0.0600 
    181 H181        1.7444  -17.0445  -41.4527 H         1 UNK         0.0600 
    182 H182        1.3601  -15.4612  -40.7846 H         1 UNK         0.0600 
    183 H183        3.0119  -15.8409  -41.2458 H         1 UNK         0.0600 
    184 H184        2.0913  -17.0966  -44.1857 H         1 UNK         0.3000 
    185 H185        5.4296  -16.8201  -45.0161 H         1 UNK         0.0600 
    186 H186        3.7195  -18.6138  -44.4453 H         1 UNK         0.0600 
    187 H187        2.8708  -18.2140  -45.9438 H         1 UNK         0.0600 
    188 H188        4.5078  -18.8391  -45.9954 H         1 UNK         0.0600 
    189 H189        3.4816  -16.2172  -47.2080 H         1 UNK         0.3000 
    190 H190        1.3574  -23.5025  -51.8972 H         1 UNK         0.3000 
    191 H191        0.0414  -25.4597  -50.2116 H         1 UNK         0.0600 
    192 H192        0.4604  -25.7622  -52.6876 H         1 UNK         0.0600 
    193 H193       -1.2171  -25.9981  -52.2205 H         1 UNK         0.0600 
    194 H194       -0.7385  -24.5069  -53.0088 H         1 UNK         0.0600 
    195 H195       -0.4718  -22.0503  -50.6522 H         1 UNK         0.3000 
    196 H196       -3.3359  -22.0325  -50.5167 H         1 UNK         0.0600 
    197 H197       -3.0601  -19.6047  -50.1148 H         1 UNK         0.0600 
    198 H198       -2.0739  -20.1365  -51.4551 H         1 UNK         0.0600 
    199 H199       -1.3272  -19.8171  -49.8925 H         1 UNK         0.0600 
    200 H200       -0.8621  -22.2952  -48.0098 H         1 UNK         0.3000 
    201 H201       -2.3962  -21.5512  -45.7503 H         1 UNK         0.0600 
    202 H202        0.0301  -21.8615  -45.5606 H         1 UNK         0.0600 
    203 H203       -0.0879  -23.5472  -46.0559 H         1 UNK         0.0600 
    204 H204       -0.7376  -23.0257  -44.5055 H         1 UNK         0.0600 
    205 H205       -2.2164  -24.6414  -47.5221 H         1 UNK         0.3000 
    206 H206       -3.7716  -26.1817  -45.6476 H         1 UNK         0.0600 
    207 H207       -2.1731  -27.2171  -47.2584 H         1 UNK         0.0600 
    208 H208       -3.7936  -27.8577  -47.4808 H         1 UNK         0.0600 
    209 H209       -3.1616  -26.6708  -48.6132 H         1 UNK         0.0600 
    210 H210       -4.5579  -23.9927  -48.2545 H         1 UNK         0.3000 
    211 H211       -7.4226  -24.7233  -48.3360 H         1 UNK         0.0600 
    212 H212       -5.8193  -22.5955  -49.8561 H         1 UNK         0.0600 
    213 H213       -7.4840  -23.0683  -50.1711 H         1 UNK         0.0600 
    214 H214       -6.1833  -24.2145  -50.4525 H         1 UNK         0.0600 
    215 H215       -5.5231  -22.9516  -46.2460 H         1 UNK         0.3000 
    216 H216       -5.7303  -21.2795  -44.8264 H         1 UNK         0.0600 
    217 H217       -7.7100  -22.5841  -44.0363 H         1 UNK         0.0600 
    218 H218       -8.7604  -21.6476  -45.0987 H         1 UNK         0.0600 
    219 H219       -7.9213  -20.8620  -43.7688 H         1 UNK         0.0600 
    220 H220       -5.2075  -20.5396  -47.4017 H         1 UNK         0.3000 
    221 H221       -4.8674  -18.8303  -48.7041 H         1 UNK         0.0600 
    222 H222       -6.2977  -16.9860  -46.7269 H         1 UNK         0.0600 
    223 H223       -4.6258  -17.5114  -46.5561 H         1 UNK         0.0600 
    224 H224       -5.1053  -16.5348  -47.9354 H         1 UNK         0.0600 
    225 H225       -7.7071  -20.2547  -48.5922 H         1 UNK         0.3000 
    226 H226       -9.3403  -18.3631  -50.1172 H         1 UNK         0.0600 
    227 H227      -10.2704  -19.9484  -48.3697 H         1 UNK         0.0600 
    228 H228      -11.0516  -20.0747  -49.9382 H         1 UNK         0.0600 
    229 H229       -9.8881  -21.2933  -49.4465 H         1 UNK         0.0600 
    230 H230       -6.7555  -20.2687  -51.0706 H         1 UNK         0.3000 
    231 H231       -7.6763  -20.3905  -53.8578 H         1 UNK         0.0600 
    232 H232       -7.0194  -22.7262  -54.1446 H         1 UNK         0.0600 
    233 H233       -6.4105  -22.8349  -52.5030 H         1 UNK         0.0600 
    234 H234       -8.1447  -22.6925  -52.7991 H         1 UNK         0.0600 
    235 H235       -5.7444  -21.1256  -55.2240 H         1 UNK         0.3000 
    236 H236       -3.6725  -19.2115  -54.9555 H         1 UNK         0.0600 
    237 H237       -4.5557  -20.0330  -57.1377 H         1 UNK         0.0600 
    238 H238       -2.8259  -20.3083  -57.0446 H         1 UNK         0.0600 
    239 H239       -3.9372  -21.6506  -56.8033 H         1 UNK         0.0600 
    240 H240       -1.3670  -19.6210  -55.0570 H         1 UNK         0.3000 
    241 H241       -0.5136  -21.1782  -52.8213 H         1 UNK         0.0600 
    242 H242       -0.8102  -22.3162  -56.0433 H         1 UNK         0.3800 
    243 H243        0.3394  -23.6174  -55.8768 H         1 UNK         0.3800 
    244 H244        1.6444  -20.0956  -53.1269 H         1 UNK         0.0800 
    245 H245        0.3520  -18.9368  -53.2190 H         1 UNK         0.0800 
    246 H246        2.9400  -17.3512  -55.7043 H         1 UNK         0.0800 
    247 H247        2.0629  -17.1652  -54.2056 H         1 UNK         0.0800 
@<TRIPOS>BOND
     1    1    2 1    
     2    1  127 1    
     3    1  128 1    
     4    1  129 1    
     5    2    3 2    
     6    2    4 am   BACKBONE|DICT|INTERRES
     7    4    5 1    
     8    4  130 1    
     9    5    6 1    
    10    5   65 1    
    11    5  131 1    
    12    6    7 1    
    13    6  132 1    
    14    6  133 1    
    15    7    8 1    
    16    8    9 1    
    17    8  134 1    
    18    8  135 1    
    19    9   10 ar   
    20    9   14 ar   
    21   10   11 ar   
    22   10  136 1    
    23   11   12 ar   
    24   11  126 1    
    25   12   13 ar   
    26   12  137 1    
    27   13   14 ar   
    28   13   15 1    
    29   14  138 1    
    30   15   16 1    
    31   15  139 1    
    32   15  140 1    
    33   16   17 1    
    34   17   18 1    
    35   17  141 1    
    36   17  142 1    
    37   18   19 1    
    38   18   67 1    
    39   18  143 1    
    40   19   20 am   BACKBONE|DICT|INTERRES
    41   19  144 1    
    42   20   21 2    
    43   20   22 1    
    44   22   23 1    
    45   22   24 1    
    46   22  145 1    
    47   23  146 1    
    48   23  147 1    
    49   23  148 1    
    50   24   25 am   BACKBONE|DICT|INTERRES
    51   24  149 1    
    52   25   26 2    
    53   25   27 1    
    54   27   28 1    
    55   27   29 1    
    56   27  150 1    
    57   28  151 1    
    58   28  152 1    
    59   28  153 1    
    60   29   30 am   BACKBONE|DICT|INTERRES
    61   29  154 1    
    62   30   31 2    
    63   30   32 1    
    64   32   33 1    
    65   32   34 1    
    66   32  155 1    
    67   33  156 1    
    68   33  157 1    
    69   33  158 1    
    70   34   35 am   BACKBONE|DICT|INTERRES
    71   34  159 1    
    72   35   36 2    
    73   35   37 1    
    74   37   38 1    
    75   37   39 1    
    76   37  160 1    
    77   38  161 1    
    78   38  162 1    
    79   38  163 1    
    80   39   40 am   BACKBONE|DICT|INTERRES
    81   39  164 1    
    82   40   41 2    
    83   40   42 1    
    84   42   43 1    
    85   42   44 1    
    86   42  165 1    
    87   43  166 1    
    88   43  167 1    
    89   43  168 1    
    90   44   45 am   BACKBONE|DICT|INTERRES
    91   44  169 1    
    92   45   46 2    
    93   45   47 1    
    94   47   48 1    
    95   47   49 1    
    96   47  170 1    
    97   48  171 1    
    98   48  172 1    
    99   48  173 1    
   100   49   50 am   BACKBONE|DICT|INTERRES
   101   49  174 1    
   102   50   51 2    
   103   50   52 1    
   104   52   53 1    
   105   52   54 1    
   106   52  175 1    
   107   53  176 1    
   108   53  177 1    
   109   53  178 1    
   110   54   55 am   BACKBONE|DICT|INTERRES
   111   54  179 1    
   112   55   56 2    
   113   55   57 1    
   114   57   58 1    
   115   57   59 1    
   116   57  180 1    
   117   58  181 1    
   118   58  182 1    
   119   58  183 1    
   120   59   60 am   BACKBONE|DICT|INTERRES
   121   59  184 1    
   122   60   61 2    
   123   60   62 1    
   124   62   63 1    
   125   62   64 1    
   126   62  185 1    
   127   63  186 1    
   128   63  187 1    
   129   63  188 1    
   130   64   65 am   BACKBONE|DICT|INTERRES
   131   64  189 1    
   132   65   66 2    
   133   67   68 2    
   134   67   69 am   BACKBONE|DICT|INTERRES
   135   69   70 1    
   136   69  190 1    
   137   70   71 1    
   138   70   72 1    
   139   70  191 1    
   140   71  192 1    
   141   71  193 1    
   142   71  194 1    
   143   72   73 2    
   144   72   74 am   BACKBONE|DICT|INTERRES
   145   74   75 1    
   146   74  195 1    
   147   75   76 1    
   148   75   77 1    
   149   75  196 1    
   150   76  197 1    
   151   76  198 1    
   152   76  199 1    
   153   77   78 2    
   154   77   79 am   BACKBONE|DICT|INTERRES
   155   79   80 1    
   156   79  200 1    
   157   80   81 1    
   158   80   82 1    
   159   80  201 1    
   160   81  202 1    
   161   81  203 1    
   162   81  204 1    
   163   82   83 2    
   164   82   84 am   BACKBONE|DICT|INTERRES
   165   84   85 1    
   166   84  205 1    
   167   85   86 1    
   168   85   87 1    
   169   85  206 1    
   170   86  207 1    
   171   86  208 1    
   172   86  209 1    
   173   87   88 2    
   174   87   89 am   BACKBONE|DICT|INTERRES
   175   89   90 1    
   176   89  210 1    
   177   90   91 1    
   178   90   92 1    
   179   90  211 1    
   180   91  212 1    
   181   91  213 1    
   182   91  214 1    
   183   92   93 2    
   184   92   94 am   BACKBONE|DICT|INTERRES
   185   94   95 1    
   186   94  215 1    
   187   95   96 1    
   188   95   97 1    
   189   95  216 1    
   190   96  217 1    
   191   96  218 1    
   192   96  219 1    
   193   97   98 2    
   194   97   99 am   BACKBONE|DICT|INTERRES
   195   99  100 1    
   196   99  220 1    
   197  100  101 1    
   198  100  102 1    
   199  100  221 1    
   200  101  222 1    
   201  101  223 1    
   202  101  224 1    
   203  102  103 2    
   204  102  104 am   BACKBONE|DICT|INTERRES
   205  104  105 1    
   206  104  225 1    
   207  105  106 1    
   208  105  107 1    
   209  105  226 1    
   210  106  227 1    
   211  106  228 1    
   212  106  229 1    
   213  107  108 2    
   214  107  109 am   BACKBONE|DICT|INTERRES
   215  109  110 1    
   216  109  230 1    
   217  110  111 1    
   218  110  112 1    
   219  110  231 1    
   220  111  232 1    
   221  111  233 1    
   222  111  234 1    
   223  112  113 2    
   224  112  114 am   BACKBONE|DICT|INTERRES
   225  114  115 1    
   226  114  235 1    
   227  115  116 1    
   228  115  117 1    
   229  115  236 1    
   230  116  237 1    
   231  116  238 1    
   232  116  239 1    
   233  117  118 2    
   234  117  119 am   BACKBONE|DICT|INTERRES
   235  119  120 1    
   236  119  240 1    
   237  120  121 1    
   238  120  124 1    
   239  120  241 1    
   240  121  122 am   BACKBONE|DICT|INTERRES
   241  121  123 2    
   242  122  242 1    
   243  122  243 1    
   244  124  125 1    
   245  124  244 1    
   246  124  245 1    
   247  125  126 1    
   248  126  246 1    
   249  126  247 1    
@<TRIPOS>SUBSTRUCTURE
     1 UNK         1 GROUP             0       ****    0 ROOT    
