@<TRIPOS>MOLECULE
3R540
247   249    1
SMALL
USER_CHARGES


@<TRIPOS>ATOM
      1 CA          4.2279  -10.7859  -46.1624 C.3       0 UNK        -0.1800 
      2 C           4.0549  -11.7770  -47.3041 C.2       0 UNK         0.5000 
      3 O           4.8195  -11.7437  -48.2674 O.2       0 UNK        -0.5000 
      4 N           3.0417  -12.6466  -47.2032 N.am      1 UNK        -0.5000 
      5 CA          2.6680  -13.6960  -48.1646 C.3       1 UNK         0.1400 
      6 C6          3.8357  -14.6635  -48.5391 C.3       23 UNK        -0.0398 
      7 S7          3.4094  -16.4275  -48.3311 S.3       23 UNK        -0.2404 
      8 C8          2.9850  -16.9379  -50.0291 C.3       23 UNK        -0.0205 
      9 C9          1.7386  -17.8107  -50.0459 C.ar      23 UNK        -0.0193 
     10 C10         0.4986  -17.2576  -49.7180 C.ar      23 UNK        -0.1150 
     11 C11        -0.6631  -18.0408  -49.7083 C.ar      23 UNK        -0.0193 
     12 C12        -0.5611  -19.3965  -50.0343 C.ar      23 UNK        -0.1150 
     13 C13         0.6685  -19.9631  -50.3845 C.ar      23 UNK        -0.0193 
     14 C14         1.8154  -19.1615  -50.3927 C.ar      23 UNK        -0.1150 
     15 C15         0.7425  -21.4429  -50.7477 C.3       23 UNK        -0.0205 
     16 S16         2.0650  -22.3503  -49.8754 S.3       23 UNK        -0.2404 
     17 C17         1.7481  -21.9126  -48.1317 C.3       23 UNK        -0.0398 
     18 CA          1.0284  -23.0079  -47.3171 C.3       11 UNK         0.1400 
     19 N           1.0956  -22.7164  -45.8858 N.am      11 UNK        -0.5000 
     20 C           0.7407  -23.5570  -44.9067 C.2       10 UNK         0.5000 
     21 O           0.3334  -24.7025  -45.1018 O.2       10 UNK        -0.5000 
     22 CA          0.8211  -23.0059  -43.4708 C.3       10 UNK         0.1400 
     23 CB          2.2717  -23.0019  -42.9657 C.3       10 UNK        -0.1800 
     24 N           0.2616  -21.6579  -43.3534 N.am      10 UNK        -0.5000 
     25 C          -1.0274  -21.3541  -43.5640 C.2       9 UNK         0.5000 
     26 O          -1.8897  -22.1856  -43.8492 O.2       9 UNK        -0.5000 
     27 CA         -1.4073  -19.8639  -43.4923 C.3       9 UNK         0.1400 
     28 CB         -1.5080  -19.3871  -42.0357 C.3       9 UNK        -0.1800 
     29 N          -0.4716  -19.0094  -44.2220 N.am      9 UNK        -0.5000 
     30 C          -0.2452  -19.0837  -45.5412 C.2       8 UNK         0.5000 
     31 O          -0.8188  -19.8634  -46.2959 O.2       8 UNK        -0.5000 
     32 CA          0.8373  -18.1582  -46.1074 C.3       8 UNK         0.1400 
     33 CB          0.2753  -16.7398  -46.2691 C.3       8 UNK        -0.1800 
     34 N           2.0374  -18.1409  -45.2702 N.am      8 UNK        -0.5000 
     35 C           2.8257  -19.2047  -45.0528 C.2       7 UNK         0.5000 
     36 O           2.6301  -20.3160  -45.5404 O.2       7 UNK        -0.5000 
     37 CA          4.0045  -19.0079  -44.0849 C.3       7 UNK         0.1400 
     38 CB          5.1877  -18.3446  -44.8060 C.3       7 UNK        -0.1800 
     39 N           3.6361  -18.2081  -42.9183 N.am      7 UNK        -0.5000 
     40 C           2.7318  -18.5662  -41.9942 C.2       6 UNK         0.5000 
     41 O           2.1534  -19.6537  -41.9809 O.2       6 UNK        -0.5000 
     42 CA          2.3688  -17.4855  -40.9561 C.3       6 UNK         0.1400 
     43 CB          3.3728  -17.4853  -39.7938 C.3       6 UNK        -0.1800 
     44 N           2.3111  -16.1475  -41.5588 N.am      6 UNK        -0.5000 
     45 C           1.4114  -15.7965  -42.4864 C.2       5 UNK         0.5000 
     46 O           0.4832  -16.5316  -42.8373 O.2       5 UNK        -0.5000 
     47 CA          1.6147  -14.4403  -43.1831 C.3       5 UNK         0.1400 
     48 CB          2.7955  -14.5395  -44.1759 C.3       5 UNK        -0.1800 
     49 N           0.3531  -14.1048  -43.8441 N.am      5 UNK        -0.5000 
     50 C           0.0859  -13.1715  -44.7622 C.2       4 UNK         0.5000 
     51 O           0.9191  -12.4080  -45.2600 O.2       4 UNK        -0.5000 
     52 CA         -1.3857  -13.0786  -45.1906 C.3       4 UNK         0.1400 
     53 CB         -2.2210  -12.3425  -44.1261 C.3       4 UNK        -0.1800 
     54 N          -1.4751  -12.3786  -46.4675 N.am      4 UNK        -0.5000 
     55 C          -2.5035  -12.4660  -47.3229 C.2       3 UNK         0.5000 
     56 O          -3.5180  -13.1268  -47.0990 O.2       3 UNK        -0.5000 
     57 CA         -2.3936  -11.6991  -48.6511 C.3       3 UNK         0.1400 
     58 CB         -3.0846  -10.3272  -48.5463 C.3       3 UNK        -0.1800 
     59 N          -1.0019  -11.5370  -49.0695 N.am      3 UNK        -0.5000 
     60 C          -0.5881  -11.3011  -50.3202 C.2       2 UNK         0.5000 
     61 O          -1.3456  -11.1801  -51.2832 O.2       2 UNK        -0.5000 
     62 CA          0.9335  -11.1651  -50.5284 C.3       2 UNK         0.1400 
     63 CB          1.3370   -9.6834  -50.5806 C.3       2 UNK        -0.1800 
     64 N           1.7107  -11.8280  -49.4779 N.am      2 UNK        -0.5000 
     65 C           1.9069  -13.1516  -49.3980 C.2       1 UNK         0.5000 
     66 O           1.4725  -13.9358  -50.2386 O.2       1 UNK        -0.5000 
     67 C          -0.4237  -23.2319  -47.7867 C.2       11 UNK         0.5000 
     68 O          -0.6822  -24.2023  -48.4962 O.2       11 UNK        -0.5000 
     69 N          -1.3557  -22.3714  -47.3517 N.am      12 UNK        -0.5000 
     70 CA         -2.7877  -22.4974  -47.6182 C.3       12 UNK         0.1400 
     71 CB         -3.5373  -21.2622  -47.1007 C.3       12 UNK        -0.1800 
     72 C          -3.3879  -23.7836  -47.0303 C.2       12 UNK         0.5000 
     73 O          -4.1624  -24.4456  -47.7182 O.2       12 UNK        -0.5000 
     74 N          -2.9931  -24.1422  -45.8001 N.am      13 UNK        -0.5000 
     75 CA         -3.3789  -25.3942  -45.1466 C.3       13 UNK         0.1400 
     76 CB         -2.8988  -25.3943  -43.6877 C.3       13 UNK        -0.1800 
     77 C          -2.8671  -26.6356  -45.9012 C.2       13 UNK         0.5000 
     78 O          -3.6392  -27.5695  -46.1216 O.2       13 UNK        -0.5000 
     79 N          -1.5990  -26.6010  -46.3375 N.am      14 UNK        -0.5000 
     80 CA         -0.9779  -27.6337  -47.1735 C.3       14 UNK         0.1400 
     81 CB          0.5258  -27.3495  -47.3064 C.3       14 UNK        -0.1800 
     82 C          -1.6376  -27.7653  -48.5620 C.2       14 UNK         0.5000 
     83 O          -1.7566  -28.8769  -49.0778 O.2       14 UNK        -0.5000 
     84 N          -2.0972  -26.6361  -49.1159 N.am      15 UNK        -0.5000 
     85 CA         -2.8555  -26.5337  -50.3640 C.3       15 UNK         0.1400 
     86 CB         -2.6507  -25.1260  -50.9510 C.3       15 UNK        -0.1800 
     87 C          -4.3591  -26.8563  -50.2080 C.2       15 UNK         0.5000 
     88 O          -5.1116  -26.6508  -51.1605 O.2       15 UNK        -0.5000 
     89 N          -4.7826  -27.3352  -49.0278 N.am      16 UNK        -0.5000 
     90 CA         -6.1478  -27.7374  -48.6703 C.3       16 UNK         0.1400 
     91 CB         -6.5898  -28.9693  -49.4883 C.3       16 UNK        -0.1800 
     92 C          -7.1603  -26.5736  -48.7263 C.2       16 UNK         0.5000 
     93 O          -8.2940  -26.7549  -49.1737 O.2       16 UNK        -0.5000 
     94 N          -6.7189  -25.3980  -48.2590 N.am      17 UNK        -0.5000 
     95 CA         -7.4501  -24.1328  -48.1493 C.3       17 UNK         0.1400 
     96 CB         -8.7000  -24.2765  -47.2551 C.3       17 UNK        -0.1800 
     97 C          -7.7483  -23.4572  -49.5032 C.2       17 UNK         0.5000 
     98 O          -8.6270  -22.5957  -49.5658 O.2       17 UNK        -0.5000 
     99 N          -7.0022  -23.8236  -50.5573 N.am      18 UNK        -0.5000 
    100 CA        -7.0801  -23.1917  -51.8773 C.3       18 UNK         0.1400 
    101 CB        -6.3018  -24.0300  -52.9024 C.3       18 UNK        -0.1800 
    102 C         -6.5680  -21.7390  -51.8557 C.2       18 UNK         0.5000 
    103 O         -7.2308  -20.8555  -52.3997 O.2       18 UNK        -0.5000 
    104 N         -5.4121  -21.5323  -51.2005 N.am      19 UNK        -0.5000 
    105 CA        -4.7668  -20.2434  -50.9069 C.3       19 UNK         0.1400 
    106 CB        -5.5696  -19.4966  -49.8214 C.3       19 UNK        -0.1800 
    107 C         -4.5033  -19.3616  -52.1500 C.2       19 UNK         0.5000 
    108 O         -4.5797  -18.1359  -52.0586 O.2       19 UNK        -0.5000 
    109 N         -4.2066  -20.0005  -53.2915 N.am      20 UNK        -0.5000 
    110 CA        -4.1609  -19.3889  -54.6247 C.3       20 UNK         0.1400 
    111 CB        -3.8207  -20.4706  -55.6612 C.3       20 UNK        -0.1800 
    112 C         -3.2070  -18.1870  -54.7639 C.2       20 UNK         0.5000 
    113 O         -3.5557  -17.2089  -55.4270 O.2       20 UNK        -0.5000 
    114 N         -2.0412  -18.2594  -54.1077 N.am      21 UNK        -0.5000 
    115 CA        -1.0249  -17.2024  -54.1064 C.3       21 UNK         0.1400 
    116 CB         0.2826  -17.7645  -53.5337 C.3       21 UNK        -0.1800 
    117 C         -1.4505  -15.9199  -53.3597 C.2       21 UNK         0.5000 
    118 O         -0.8869  -14.8584  -53.6286 O.2       21 UNK        -0.5000 
    119 N         -2.4479  -16.0284  -52.4727 N.am      22 UNK        -0.5000 
    120 CA        -3.0905  -14.8969  -51.7866 C.3       22 UNK         0.1400 
    121 C         -4.2559  -14.2631  -52.6048 C.2       22 UNK         0.5000 
    122 N         -4.6023  -14.7587  -53.7886 N.am      22 UNK        -0.7600 
    123 O         -4.8550  -13.2865  -52.1632 O.2       22 UNK        -0.5000 
    124 C124       -3.5510  -15.2846  -50.3567 C.3       23 UNK        -0.0398 
    125 S125       -2.1502  -15.6592  -49.2495 S.3       23 UNK        -0.2404 
    126 C126       -2.0389  -17.4830  -49.3369 C.3       23 UNK        -0.0205 
    127 H127        5.2070  -10.9129  -45.7010 H         1 UNK         0.0600 
    128 H128        4.1548   -9.7648  -46.5363 H         1 UNK         0.0600 
    129 H129        3.4687  -10.9209  -45.3911 H         1 UNK         0.0600 
    130 H130        2.4195  -12.5738  -46.4002 H         1 UNK         0.3000 
    131 H131        1.9153  -14.2657  -47.6228 H         1 UNK         0.0600 
    132 H132        4.2157  -14.4797  -49.5456 H         1 UNK         0.0800 
    133 H133        4.6904  -14.4964  -47.8830 H         1 UNK         0.0800 
    134 H134        2.8139  -16.0713  -50.6665 H         1 UNK         0.0800 
    135 H135        3.8362  -17.4670  -50.4597 H         1 UNK         0.0800 
    136 H136        0.4603  -16.2119  -49.4547 H         1 UNK         0.1150 
    137 H137       -1.4464  -20.0151  -50.0140 H         1 UNK         0.1150 
    138 H138        2.7695  -19.5944  -50.6578 H         1 UNK         0.1150 
    139 H139       -0.2077  -21.9386  -50.5430 H         1 UNK         0.0800 
    140 H140        0.9077  -21.5303  -51.8221 H         1 UNK         0.0800 
    141 H141        1.2203  -20.9629  -48.0451 H         1 UNK         0.0800 
    142 H142        2.7319  -21.7349  -47.6967 H         1 UNK         0.0800 
    143 H143        1.5663  -23.9457  -47.4722 H         1 UNK         0.0600 
    144 H144        1.4575  -21.7994  -45.6361 H         1 UNK         0.3000 
    145 H145        0.2381  -23.6684  -42.8278 H         1 UNK         0.0600 
    146 H146        2.3242  -22.6867  -41.9234 H         1 UNK         0.0600 
    147 H147        2.7102  -23.9986  -43.0278 H         1 UNK         0.0600 
    148 H148        2.9004  -22.3279  -43.5488 H         1 UNK         0.0600 
    149 H149        0.9045  -20.9152  -43.0997 H         1 UNK         0.3000 
    150 H150       -2.3894  -19.7497  -43.9557 H         1 UNK         0.0600 
    151 H151       -2.2231  -19.9911  -41.4759 H         1 UNK         0.0600 
    152 H152       -1.8439  -18.3513  -41.9833 H         1 UNK         0.0600 
    153 H153       -0.5488  -19.4518  -41.5214 H         1 UNK         0.0600 
    154 H154        0.0221  -18.3057  -43.6825 H         1 UNK         0.3000 
    155 H155        1.1229  -18.5307  -47.0934 H         1 UNK         0.0600 
    156 H156       -0.5651  -16.7350  -46.9607 H         1 UNK         0.0600 
    157 H157        1.0220  -16.0579  -46.6639 H         1 UNK         0.0600 
    158 H158       -0.0912  -16.3366  -45.3287 H         1 UNK         0.0600 
    159 H159        2.2508  -17.2768  -44.7995 H         1 UNK         0.3000 
    160 H160        4.3204  -19.9930  -43.7350 H         1 UNK         0.0600 
    161 H161        6.0542  -18.2621  -44.1497 H         1 UNK         0.0600 
    162 H162        4.9369  -17.3438  -45.1604 H         1 UNK         0.0600 
    163 H163        5.4928  -18.9312  -45.6737 H         1 UNK         0.0600 
    164 H164        4.0673  -17.2998  -42.8381 H         1 UNK         0.3000 
    165 H165        1.3812  -17.7255  -40.5560 H         1 UNK         0.0600 
    166 H166        3.0836  -16.7697  -39.0240 H         1 UNK         0.0600 
    167 H167        3.4213  -18.4674  -39.3214 H         1 UNK         0.0600 
    168 H168        4.3795  -17.2314  -40.1278 H         1 UNK         0.0600 
    169 H169        3.0401  -15.4981  -41.2998 H         1 UNK         0.3000 
    170 H170        1.8263  -13.6853  -42.4243 H         1 UNK         0.0600 
    171 H171        3.6719  -14.9978  -43.7169 H         1 UNK         0.0600 
    172 H172        2.5430  -15.1273  -45.0577 H         1 UNK         0.0600 
    173 H173        3.1126  -13.5526  -44.5092 H         1 UNK         0.0600 
    174 H174       -0.3996  -14.7102  -43.5384 H         1 UNK         0.3000 
    175 H175       -1.7656  -14.0952  -45.3158 H         1 UNK         0.0600 
    176 H176       -3.2752  -12.3073  -44.4012 H         1 UNK         0.0600 
    177 H177       -2.1590  -12.8431  -43.1591 H         1 UNK         0.0600 
    178 H178       -1.8776  -11.3165  -43.9881 H         1 UNK         0.0600 
    179 H179       -0.6724  -11.7989  -46.6652 H         1 UNK         0.3000 
    180 H180       -2.9128  -12.2948  -49.4050 H         1 UNK         0.0600 
    181 H181       -2.5744   -9.6753  -47.8363 H         1 UNK         0.0600 
    182 H182       -4.1174  -10.4343  -48.2124 H         1 UNK         0.0600 
    183 H183       -3.1093   -9.8189  -49.5103 H         1 UNK         0.0600 
    184 H184       -0.2966  -11.6740  -48.3638 H         1 UNK         0.3000 
    185 H185        1.1790  -11.6205  -51.4904 H         1 UNK         0.0600 
    186 H186        2.4024   -9.5717  -50.7835 H         1 UNK         0.0600 
    187 H187        0.7998   -9.1602  -51.3729 H         1 UNK         0.0600 
    188 H188        1.1176   -9.1721  -49.6424 H         1 UNK         0.0600 
    189 H189        2.1196  -11.2399  -48.7666 H         1 UNK         0.3000 
    190 H190       -1.0717  -21.5568  -46.8091 H         1 UNK         0.3000 
    191 H191       -2.9183  -22.5379  -48.7010 H         1 UNK         0.0600 
    192 H192       -3.3720  -21.1100  -46.0337 H         1 UNK         0.0600 
    193 H193       -4.6121  -21.3635  -47.2536 H         1 UNK         0.0600 
    194 H194       -3.2161  -20.3599  -47.6214 H         1 UNK         0.0600 
    195 H195       -2.3874  -23.5193  -45.2745 H         1 UNK         0.3000 
    196 H196       -4.4700  -25.4400  -45.1404 H         1 UNK         0.0600 
    197 H197       -1.8142  -25.3142  -43.6174 H         1 UNK         0.0600 
    198 H198       -3.1943  -26.3130  -43.1795 H         1 UNK         0.0600 
    199 H199       -3.3307  -24.5618  -43.1322 H         1 UNK         0.0600 
    200 H200       -1.0164  -25.8086  -46.0838 H         1 UNK         0.3000 
    201 H201       -1.0974  -28.5903  -46.6608 H         1 UNK         0.0600 
    202 H202        0.7146  -26.3976  -47.8026 H         1 UNK         0.0600 
    203 H203        1.0201  -28.1273  -47.8896 H         1 UNK         0.0600 
    204 H204        1.0087  -27.3179  -46.3295 H         1 UNK         0.0600 
    205 H205       -1.8836  -25.7574  -48.6533 H         1 UNK         0.3000 
    206 H206       -2.4483  -27.2548  -51.0752 H         1 UNK         0.0600 
    207 H207       -1.5911  -24.8941  -51.0610 H         1 UNK         0.0600 
    208 H208       -3.1005  -25.0425  -51.9405 H         1 UNK         0.0600 
    209 H209       -3.0972  -24.3594  -50.3184 H         1 UNK         0.0600 
    210 H210       -4.1018  -27.4221  -48.2833 H         1 UNK         0.3000 
    211 H211       -6.1040  -28.0425  -47.6239 H         1 UNK         0.0600 
    212 H212       -6.7156  -28.7321  -50.5451 H         1 UNK         0.0600 
    213 H213       -7.5422  -29.3575  -49.1257 H         1 UNK         0.0600 
    214 H214       -5.8611  -29.7761  -49.4097 H         1 UNK         0.0600 
    215 H215       -5.7400  -25.3311  -47.9845 H         1 UNK         0.3000 
    216 H216       -6.7705  -23.4522  -47.6347 H         1 UNK         0.0600 
    217 H217       -8.4538  -24.7528  -46.3062 H         1 UNK         0.0600 
    218 H218       -9.1293  -23.3011  -47.0238 H         1 UNK         0.0600 
    219 H219       -9.4796  -24.8670  -47.7367 H         1 UNK         0.0600 
    220 H220       -6.3344  -24.5738  -50.4427 H         1 UNK         0.3000 
    221 H221       -8.1283  -23.1732  -52.1833 H         1 UNK         0.0600 
    222 H222       -5.2464  -24.1118  -52.6425 H         1 UNK         0.0600 
    223 H223       -6.7064  -25.0400  -52.9721 H         1 UNK         0.0600 
    224 H224       -6.3623  -23.5864  -53.8970 H         1 UNK         0.0600 
    225 H225       -4.9596  -22.3435  -50.8059 H         1 UNK         0.3000 
    226 H226       -3.7878  -20.4796  -50.4891 H         1 UNK         0.0600 
    227 H227       -5.7639  -20.1358  -48.9610 H         1 UNK         0.0600 
    228 H228       -5.0300  -18.6213  -49.4590 H         1 UNK         0.0600 
    229 H229       -6.5324  -19.1534  -50.2015 H         1 UNK         0.0600 
    230 H230       -4.1559  -21.0079  -53.2642 H         1 UNK         0.3000 
    231 H231       -5.1672  -19.0231  -54.8391 H         1 UNK         0.0600 
    232 H232       -4.5629  -21.2693  -55.6567 H         1 UNK         0.0600 
    233 H233       -2.8442  -20.9175  -55.4708 H         1 UNK         0.0600 
    234 H234       -3.8006  -20.0543  -56.6694 H         1 UNK         0.0600 
    235 H235       -1.8395  -19.0894  -53.5703 H         1 UNK         0.3000 
    236 H236       -0.8384  -16.9180  -55.1442 H         1 UNK         0.0600 
    237 H237        1.0635  -17.0033  -53.5082 H         1 UNK         0.0600 
    238 H238        0.1415  -18.1218  -52.5167 H         1 UNK         0.0600 
    239 H239        0.6550  -18.5950  -54.1333 H         1 UNK         0.0600 
    240 H240       -2.9059  -16.9240  -52.3537 H         1 UNK         0.3000 
    241 H241       -2.3541  -14.0979  -51.6773 H         1 UNK         0.0600 
    242 H242       -5.3558  -14.3277  -54.3002 H         1 UNK         0.3800 
    243 H243       -4.1275  -15.5610  -54.1827 H         1 UNK         0.3800 
    244 H244       -4.0935  -14.4587  -49.8938 H         1 UNK         0.0800 
    245 H245       -4.2529  -16.1185  -50.3797 H         1 UNK         0.0800 
    246 H246       -2.7637  -17.8538  -50.0593 H         1 UNK         0.0800 
    247 H247       -2.3313  -17.8937  -48.3695 H         1 UNK         0.0800 
@<TRIPOS>BOND
     1    1    2 1    
     2    1  127 1    
     3    1  128 1    
     4    1  129 1    
     5    2    3 2    
     6    2    4 am   BACKBONE|DICT|INTERRES
     7    4    5 1    
     8    4  130 1    
     9    5    6 1    
    10    5   65 1    
    11    5  131 1    
    12    6    7 1    
    13    6  132 1    
    14    6  133 1    
    15    7    8 1    
    16    8    9 1    
    17    8  134 1    
    18    8  135 1    
    19    9   10 ar   
    20    9   14 ar   
    21   10   11 ar   
    22   10  136 1    
    23   11   12 ar   
    24   11  126 1    
    25   12   13 ar   
    26   12  137 1    
    27   13   14 ar   
    28   13   15 1    
    29   14  138 1    
    30   15   16 1    
    31   15  139 1    
    32   15  140 1    
    33   16   17 1    
    34   17   18 1    
    35   17  141 1    
    36   17  142 1    
    37   18   19 1    
    38   18   67 1    
    39   18  143 1    
    40   19   20 am   BACKBONE|DICT|INTERRES
    41   19  144 1    
    42   20   21 2    
    43   20   22 1    
    44   22   23 1    
    45   22   24 1    
    46   22  145 1    
    47   23  146 1    
    48   23  147 1    
    49   23  148 1    
    50   24   25 am   BACKBONE|DICT|INTERRES
    51   24  149 1    
    52   25   26 2    
    53   25   27 1    
    54   27   28 1    
    55   27   29 1    
    56   27  150 1    
    57   28  151 1    
    58   28  152 1    
    59   28  153 1    
    60   29   30 am   BACKBONE|DICT|INTERRES
    61   29  154 1    
    62   30   31 2    
    63   30   32 1    
    64   32   33 1    
    65   32   34 1    
    66   32  155 1    
    67   33  156 1    
    68   33  157 1    
    69   33  158 1    
    70   34   35 am   BACKBONE|DICT|INTERRES
    71   34  159 1    
    72   35   36 2    
    73   35   37 1    
    74   37   38 1    
    75   37   39 1    
    76   37  160 1    
    77   38  161 1    
    78   38  162 1    
    79   38  163 1    
    80   39   40 am   BACKBONE|DICT|INTERRES
    81   39  164 1    
    82   40   41 2    
    83   40   42 1    
    84   42   43 1    
    85   42   44 1    
    86   42  165 1    
    87   43  166 1    
    88   43  167 1    
    89   43  168 1    
    90   44   45 am   BACKBONE|DICT|INTERRES
    91   44  169 1    
    92   45   46 2    
    93   45   47 1    
    94   47   48 1    
    95   47   49 1    
    96   47  170 1    
    97   48  171 1    
    98   48  172 1    
    99   48  173 1    
   100   49   50 am   BACKBONE|DICT|INTERRES
   101   49  174 1    
   102   50   51 2    
   103   50   52 1    
   104   52   53 1    
   105   52   54 1    
   106   52  175 1    
   107   53  176 1    
   108   53  177 1    
   109   53  178 1    
   110   54   55 am   BACKBONE|DICT|INTERRES
   111   54  179 1    
   112   55   56 2    
   113   55   57 1    
   114   57   58 1    
   115   57   59 1    
   116   57  180 1    
   117   58  181 1    
   118   58  182 1    
   119   58  183 1    
   120   59   60 am   BACKBONE|DICT|INTERRES
   121   59  184 1    
   122   60   61 2    
   123   60   62 1    
   124   62   63 1    
   125   62   64 1    
   126   62  185 1    
   127   63  186 1    
   128   63  187 1    
   129   63  188 1    
   130   64   65 am   BACKBONE|DICT|INTERRES
   131   64  189 1    
   132   65   66 2    
   133   67   68 2    
   134   67   69 am   BACKBONE|DICT|INTERRES
   135   69   70 1    
   136   69  190 1    
   137   70   71 1    
   138   70   72 1    
   139   70  191 1    
   140   71  192 1    
   141   71  193 1    
   142   71  194 1    
   143   72   73 2    
   144   72   74 am   BACKBONE|DICT|INTERRES
   145   74   75 1    
   146   74  195 1    
   147   75   76 1    
   148   75   77 1    
   149   75  196 1    
   150   76  197 1    
   151   76  198 1    
   152   76  199 1    
   153   77   78 2    
   154   77   79 am   BACKBONE|DICT|INTERRES
   155   79   80 1    
   156   79  200 1    
   157   80   81 1    
   158   80   82 1    
   159   80  201 1    
   160   81  202 1    
   161   81  203 1    
   162   81  204 1    
   163   82   83 2    
   164   82   84 am   BACKBONE|DICT|INTERRES
   165   84   85 1    
   166   84  205 1    
   167   85   86 1    
   168   85   87 1    
   169   85  206 1    
   170   86  207 1    
   171   86  208 1    
   172   86  209 1    
   173   87   88 2    
   174   87   89 am   BACKBONE|DICT|INTERRES
   175   89   90 1    
   176   89  210 1    
   177   90   91 1    
   178   90   92 1    
   179   90  211 1    
   180   91  212 1    
   181   91  213 1    
   182   91  214 1    
   183   92   93 2    
   184   92   94 am   BACKBONE|DICT|INTERRES
   185   94   95 1    
   186   94  215 1    
   187   95   96 1    
   188   95   97 1    
   189   95  216 1    
   190   96  217 1    
   191   96  218 1    
   192   96  219 1    
   193   97   98 2    
   194   97   99 am   BACKBONE|DICT|INTERRES
   195   99  100 1    
   196   99  220 1    
   197  100  101 1    
   198  100  102 1    
   199  100  221 1    
   200  101  222 1    
   201  101  223 1    
   202  101  224 1    
   203  102  103 2    
   204  102  104 am   BACKBONE|DICT|INTERRES
   205  104  105 1    
   206  104  225 1    
   207  105  106 1    
   208  105  107 1    
   209  105  226 1    
   210  106  227 1    
   211  106  228 1    
   212  106  229 1    
   213  107  108 2    
   214  107  109 am   BACKBONE|DICT|INTERRES
   215  109  110 1    
   216  109  230 1    
   217  110  111 1    
   218  110  112 1    
   219  110  231 1    
   220  111  232 1    
   221  111  233 1    
   222  111  234 1    
   223  112  113 2    
   224  112  114 am   BACKBONE|DICT|INTERRES
   225  114  115 1    
   226  114  235 1    
   227  115  116 1    
   228  115  117 1    
   229  115  236 1    
   230  116  237 1    
   231  116  238 1    
   232  116  239 1    
   233  117  118 2    
   234  117  119 am   BACKBONE|DICT|INTERRES
   235  119  120 1    
   236  119  240 1    
   237  120  121 1    
   238  120  124 1    
   239  120  241 1    
   240  121  122 am   BACKBONE|DICT|INTERRES
   241  121  123 2    
   242  122  242 1    
   243  122  243 1    
   244  124  125 1    
   245  124  244 1    
   246  124  245 1    
   247  125  126 1    
   248  126  246 1    
   249  126  247 1    
@<TRIPOS>SUBSTRUCTURE
     1 UNK         1 GROUP             0       ****    0 ROOT    
