@<TRIPOS>MOLECULE
3R540
247   249    1
SMALL
USER_CHARGES


@<TRIPOS>ATOM
      1 CA          0.3891  -18.6288  -45.0902 C.3       0 UNK        -0.1800 
      2 C           1.2145  -17.3555  -45.0564 C.2       0 UNK         0.5000 
      3 O           2.4061  -17.4290  -44.7576 O.2       0 UNK        -0.5000 
      4 N           0.6068  -16.2032  -45.3850 N.am      1 UNK        -0.5000 
      5 CA          1.2318  -14.8690  -45.3401 C.3       1 UNK         0.1400 
      6 C6          0.2869  -13.6885  -45.7165 C.3       23 UNK        -0.0398 
      7 S7         -1.4540  -13.8432  -45.1809 S.3       23 UNK        -0.2404 
      8 C8         -2.3843  -13.4416  -46.7012 C.3       23 UNK        -0.0205 
      9 C9         -2.6090  -14.6439  -47.6134 C.ar      23 UNK        -0.0193 
     10 C10        -3.8976  -15.1502  -47.8219 C.ar      23 UNK        -0.1150 
     11 C11        -4.1119  -16.2249  -48.6945 C.ar      23 UNK        -0.0193 
     12 C12        -3.0227  -16.8046  -49.3503 C.ar      23 UNK        -0.1150 
     13 C13        -1.7331  -16.3104  -49.1447 C.ar      23 UNK        -0.0193 
     14 C14        -1.5361  -15.2280  -48.2890 C.ar      23 UNK        -0.1150 
     15 C15        -0.5359  -16.9417  -49.8271 C.3       23 UNK        -0.0205 
     16 S16         0.1908  -18.2289  -48.7692 S.3       23 UNK        -0.2404 
     17 C17        -0.8601  -19.6561  -49.1972 C.3       23 UNK        -0.0398 
     18 CA         -1.6262  -20.2793  -48.0076 C.3       11 UNK         0.1400 
     19 N          -2.5321  -19.3319  -47.3350 N.am      11 UNK        -0.5000 
     20 C          -3.1255  -19.5569  -46.1527 C.2       10 UNK         0.5000 
     21 O          -2.9565  -20.5836  -45.4903 O.2       10 UNK        -0.5000 
     22 CA         -4.1369  -18.5037  -45.6687 C.3       10 UNK         0.1400 
     23 CB         -5.5737  -18.9870  -45.9212 C.3       10 UNK        -0.1800 
     24 N          -3.9670  -18.2291  -44.2442 N.am      10 UNK        -0.5000 
     25 C          -2.9587  -17.4990  -43.7585 C.2       9 UNK         0.5000 
     26 O          -2.1303  -16.9379  -44.4757 O.2       9 UNK        -0.5000 
     27 CA         -2.8394  -17.4104  -42.2273 C.3       9 UNK         0.1400 
     28 CB         -2.1904  -18.6817  -41.6569 C.3       9 UNK        -0.1800 
     29 N          -2.0217  -16.2633  -41.8429 N.am      9 UNK        -0.5000 
     30 C          -2.4623  -15.0073  -41.7203 C.2       8 UNK         0.5000 
     31 O          -3.6531  -14.6968  -41.7930 O.2       8 UNK        -0.5000 
     32 CA         -1.3882  -13.9301  -41.4428 C.3       8 UNK         0.1400 
     33 CB         -1.9941  -12.5485  -41.1372 C.3       8 UNK        -0.1800 
     34 N          -0.4916  -14.3066  -40.3465 N.am      8 UNK        -0.5000 
     35 C           0.5540  -15.1334  -40.4558 C.2       7 UNK         0.5000 
     36 O           0.8855  -15.6814  -41.5120 O.2       7 UNK        -0.5000 
     37 CA          1.3284  -15.4303  -39.1655 C.3       7 UNK         0.1400 
     38 CB          0.5641  -16.4346  -38.2831 C.3       7 UNK        -0.1800 
     39 N           2.6248  -15.9802  -39.5356 N.am      7 UNK        -0.5000 
     40 C           3.7286  -15.9944  -38.7820 C.2       6 UNK         0.5000 
     41 O           3.7784  -15.5571  -37.6316 O.2       6 UNK        -0.5000 
     42 CA          4.9932  -16.5984  -39.4222 C.3       6 UNK         0.1400 
     43 CB          5.1718  -18.0599  -38.9826 C.3       6 UNK        -0.1800 
     44 N           4.9668  -16.5486  -40.8853 N.am      6 UNK        -0.5000 
     45 C           5.2041  -15.4566  -41.6248 C.2       5 UNK         0.5000 
     46 O           5.4846  -14.3612  -41.1359 O.2       5 UNK        -0.5000 
     47 CA          5.0803  -15.5955  -43.1590 C.3       5 UNK         0.1400 
     48 CB          6.2311  -14.8916  -43.9067 C.3       5 UNK        -0.1800 
     49 N           4.9063  -16.9727  -43.6400 N.am      5 UNK        -0.5000 
     50 C           5.7794  -17.9897  -43.5767 C.2       4 UNK         0.5000 
     51 O           6.9048  -17.9055  -43.0854 O.2       4 UNK        -0.5000 
     52 CA          5.3047  -19.3343  -44.1442 C.3       4 UNK         0.1400 
     53 CB          4.3498  -20.0311  -43.1602 C.3       4 UNK        -0.1800 
     54 N           4.6282  -19.1510  -45.4279 N.am      4 UNK        -0.5000 
     55 C           4.9791  -19.7580  -46.5677 C.2       3 UNK         0.5000 
     56 O           5.9086  -20.5612  -46.6606 O.2       3 UNK        -0.5000 
     57 CA          4.1568  -19.4207  -47.8248 C.3       3 UNK         0.1400 
     58 CB          2.9865  -20.4046  -47.9867 C.3       3 UNK        -0.1800 
     59 N           3.6506  -18.0453  -47.8554 N.am      3 UNK        -0.5000 
     60 C           4.4206  -16.9643  -48.0572 C.2       2 UNK         0.5000 
     61 O           5.6470  -17.0109  -48.1560 O.2       2 UNK        -0.5000 
     62 CA          3.7107  -15.6068  -48.2010 C.3       2 UNK         0.1400 
     63 CB          3.2506  -15.4040  -49.6530 C.3       2 UNK        -0.1800 
     64 N           2.5535  -15.5000  -47.3130 N.am      2 UNK        -0.5000 
     65 C           2.5204  -14.7710  -46.1883 C.2       1 UNK         0.5000 
     66 O           3.4402  -14.0470  -45.8076 O.2       1 UNK        -0.5000 
     67 C          -2.3460  -21.5632  -48.4818 C.2       11 UNK         0.5000 
     68 O          -1.6767  -22.5266  -48.8508 O.2       11 UNK        -0.5000 
     69 N          -3.6859  -21.5798  -48.4341 N.am      12 UNK        -0.5000 
     70 CA         -4.5451  -22.7293  -48.7190 C.3       12 UNK         0.1400 
     71 CB         -6.0082  -22.3053  -48.5154 C.3       12 UNK        -0.1800 
     72 C          -4.2325  -23.9781  -47.8698 C.2       12 UNK         0.5000 
     73 O          -4.4660  -25.0976  -48.3247 O.2       12 UNK        -0.5000 
     74 N          -3.6864  -23.7630  -46.6646 N.am      13 UNK        -0.5000 
     75 CA         -3.1827  -24.8113  -45.7799 C.3       13 UNK         0.1400 
     76 CB         -2.9898  -24.2159  -44.3766 C.3       13 UNK        -0.1800 
     77 C          -1.8695  -25.4506  -46.2784 C.2       13 UNK         0.5000 
     78 O          -1.5788  -26.5862  -45.9003 O.2       13 UNK        -0.5000 
     79 N          -1.0965  -24.7222  -47.0973 N.am      14 UNK        -0.5000 
     80 CA          0.1741  -25.1758  -47.6579 C.3       14 UNK         0.1400 
     81 CB          1.1307  -23.9811  -47.8170 C.3       14 UNK        -0.1800 
     82 C          -0.0214  -25.9036  -48.9980 C.2       14 UNK         0.5000 
     83 O           0.6408  -26.9179  -49.2230 O.2       14 UNK        -0.5000 
     84 N          -0.9166  -25.3985  -49.8599 N.am      15 UNK        -0.5000 
     85 CA         -1.1936  -25.9776  -51.1733 C.3       15 UNK         0.1400 
     86 CB         -0.1084  -25.5452  -52.1775 C.3       15 UNK        -0.1800 
     87 C          -2.5763  -25.5558  -51.6833 C.2       15 UNK         0.5000 
     88 O          -2.9774  -24.4056  -51.4975 O.2       15 UNK        -0.5000 
     89 N          -3.2441  -26.4695  -52.4007 N.am      16 UNK        -0.5000 
     90 CA         -4.5179  -26.2253  -53.0853 C.3       16 UNK         0.1400 
     91 CB         -5.1098  -27.5633  -53.5510 C.3       16 UNK        -0.1800 
     92 C          -4.3842  -25.2517  -54.2725 C.2       16 UNK         0.5000 
     93 O          -5.3246  -24.5141  -54.5649 O.2       16 UNK        -0.5000 
     94 N          -3.2033  -25.2234  -54.9066 N.am      17 UNK        -0.5000 
     95 CA         -2.8499  -24.2526  -55.9447 C.3       17 UNK         0.1400 
     96 CB         -1.5136  -24.6562  -56.5849 C.3       17 UNK        -0.1800 
     97 C          -2.7766  -22.8155  -55.3956 C.2       17 UNK         0.5000 
     98 O          -3.1866  -21.8773  -56.0781 O.2       17 UNK        -0.5000 
     99 N          -2.2984  -22.6749  -54.1518 N.am      18 UNK        -0.5000 
    100 CA        -2.2532  -21.4048  -53.4333 C.3       18 UNK         0.1400 
    101 CB        -1.2279  -21.4973  -52.2990 C.3       18 UNK        -0.1800 
    102 C         -3.6424  -20.9846  -52.9166 C.2       18 UNK         0.5000 
    103 O         -3.9287  -19.7881  -52.8732 O.2       18 UNK        -0.5000 
    104 N         -4.5045  -21.9634  -52.5961 N.am      19 UNK        -0.5000 
    105 CA        -5.9252  -21.7475  -52.3035 C.3       19 UNK         0.1400 
    106 CB        -6.5916  -23.0562  -51.8400 C.3       19 UNK        -0.1800 
    107 C         -6.6723  -21.1771  -53.5215 C.2       19 UNK         0.5000 
    108 O         -7.4102  -20.2020  -53.3815 O.2       19 UNK        -0.5000 
    109 N         -6.4283  -21.7710  -54.6985 N.am      20 UNK        -0.5000 
    110 CA        -6.9713  -21.3331  -55.9847 C.3       20 UNK         0.1400 
    111 CB        -6.6443  -22.3810  -57.0592 C.3       20 UNK        -0.1800 
    112 C         -6.4753  -19.9369  -56.4078 C.2       20 UNK         0.5000 
    113 O         -7.2467  -19.1773  -56.9947 O.2       20 UNK        -0.5000 
    114 N         -5.2132  -19.6157  -56.0873 N.am      21 UNK        -0.5000 
    115 CA        -4.6167  -18.2962  -56.3000 C.3       21 UNK         0.1400 
    116 CB        -3.0939  -18.3788  -56.1147 C.3       21 UNK        -0.1800 
    117 C         -5.2236  -17.2189  -55.3803 C.2       21 UNK         0.5000 
    118 O         -5.4891  -16.1095  -55.8453 O.2       21 UNK        -0.5000 
    119 N         -5.4391  -17.5644  -54.1034 N.am      22 UNK        -0.5000 
    120 CA        -6.1220  -16.7185  -53.1128 C.3       22 UNK         0.1400 
    121 C         -7.6330  -16.5181  -53.4284 C.2       22 UNK         0.5000 
    122 N         -8.3738  -17.5744  -53.7381 N.am      22 UNK        -0.7600 
    123 O         -8.1327  -15.3962  -53.4101 O.2       22 UNK        -0.5000 
    124 C124       -5.8921  -17.2504  -51.6751 C.3       23 UNK        -0.0398 
    125 S125       -6.3110  -16.0362  -50.3747 S.3       23 UNK        -0.2404 
    126 C126       -5.5161  -16.7698  -48.9115 C.3       23 UNK        -0.0205 
    127 H127       -0.4381  -18.5299  -45.7880 H         1 UNK         0.0600 
    128 H128       -0.0115  -18.8453  -44.1015 H         1 UNK         0.0600 
    129 H129        0.9979  -19.4754  -45.4036 H         1 UNK         0.0600 
    130 H130       -0.3995  -16.2112  -45.5209 H         1 UNK         0.3000 
    131 H131        1.5281  -14.7257  -44.2986 H         1 UNK         0.0600 
    132 H132        0.6746  -12.7749  -45.2627 H         1 UNK         0.0800 
    133 H133        0.3095  -13.4844  -46.7858 H         1 UNK         0.0800 
    134 H134       -3.3451  -13.0209  -46.4015 H         1 UNK         0.0800 
    135 H135       -1.8751  -12.6510  -47.2538 H         1 UNK         0.0800 
    136 H136       -4.7387  -14.7009  -47.3128 H         1 UNK         0.1150 
    137 H137       -3.1767  -17.6384  -50.0194 H         1 UNK         0.1150 
    138 H138       -0.5363  -14.8500  -48.1580 H         1 UNK         0.1150 
    139 H139       -0.8100  -17.3482  -50.8018 H         1 UNK         0.0800 
    140 H140        0.2158  -16.1774  -50.0256 H         1 UNK         0.0800 
    141 H141       -0.1933  -20.3978  -49.6414 H         1 UNK         0.0800 
    142 H142       -1.5640  -19.3746  -49.9801 H         1 UNK         0.0800 
    143 H143       -0.8854  -20.5994  -47.2717 H         1 UNK         0.0600 
    144 H144       -2.6793  -18.4484  -47.8037 H         1 UNK         0.3000 
    145 H145       -3.9813  -17.5773  -46.2231 H         1 UNK         0.0600 
    146 H146       -6.3001  -18.2258  -45.6355 H         1 UNK         0.0600 
    147 H147       -5.7368  -19.2102  -46.9756 H         1 UNK         0.0600 
    148 H148       -5.7991  -19.8938  -45.3581 H         1 UNK         0.0600 
    149 H149       -4.5888  -18.7088  -43.6101 H         1 UNK         0.3000 
    150 H150       -3.8405  -17.3057  -41.8037 H         1 UNK         0.0600 
    151 H151       -1.1726  -18.8149  -42.0241 H         1 UNK         0.0600 
    152 H152       -2.7577  -19.5723  -41.9303 H         1 UNK         0.0600 
    153 H153       -2.1484  -18.6453  -40.5682 H         1 UNK         0.0600 
    154 H154       -1.0181  -16.4043  -41.8360 H         1 UNK         0.3000 
    155 H155       -0.7942  -13.8308  -42.3526 H         1 UNK         0.0600 
    156 H156       -2.6150  -12.5699  -40.2409 H         1 UNK         0.0600 
    157 H157       -2.6175  -12.2042  -41.9636 H         1 UNK         0.0600 
    158 H158       -1.2151  -11.8004  -40.9894 H         1 UNK         0.0600 
    159 H159       -0.7244  -13.9333  -39.4374 H         1 UNK         0.3000 
    160 H160        1.4738  -14.4931  -38.6244 H         1 UNK         0.0600 
    161 H161        0.4049  -17.3816  -38.8005 H         1 UNK         0.0600 
    162 H162       -0.4148  -16.0460  -38.0004 H         1 UNK         0.0600 
    163 H163        1.1053  -16.6450  -37.3606 H         1 UNK         0.0600 
    164 H164        2.6689  -16.3125  -40.4908 H         1 UNK         0.3000 
    165 H165        5.8527  -16.0260  -39.0668 H         1 UNK         0.0600 
    166 H166        5.2262  -18.1370  -37.8958 H         1 UNK         0.0600 
    167 H167        4.3421  -18.6852  -39.3151 H         1 UNK         0.0600 
    168 H168        6.0931  -18.4825  -39.3840 H         1 UNK         0.0600 
    169 H169        4.7512  -17.4081  -41.3670 H         1 UNK         0.3000 
    170 H170        4.1564  -15.0787  -43.4193 H         1 UNK         0.0600 
    171 H171        6.2516  -13.8256  -43.6778 H         1 UNK         0.0600 
    172 H172        7.2042  -15.3019  -43.6366 H         1 UNK         0.0600 
    173 H173        6.1127  -14.9861  -44.9864 H         1 UNK         0.0600 
    174 H174        3.9860  -17.1616  -44.0364 H         1 UNK         0.3000 
    175 H175        6.1898  -19.9635  -44.2590 H         1 UNK         0.0600 
    176 H176        4.0680  -21.0194  -43.5236 H         1 UNK         0.0600 
    177 H177        4.8203  -20.1651  -42.1853 H         1 UNK         0.0600 
    178 H178        3.4333  -19.4591  -43.0096 H         1 UNK         0.0600 
    179 H179        3.8515  -18.4972  -45.4377 H         1 UNK         0.3000 
    180 H180        4.8177  -19.5518  -48.6845 H         1 UNK         0.0600 
    181 H181        2.2460  -20.2880  -47.1964 H         1 UNK         0.0600 
    182 H182        3.3356  -21.4377  -47.9574 H         1 UNK         0.0600 
    183 H183        2.4837  -20.2638  -48.9433 H         1 UNK         0.0600 
    184 H184        2.6500  -17.9361  -47.7984 H         1 UNK         0.3000 
    185 H185        4.4392  -14.8266  -47.9704 H         1 UNK         0.0600 
    186 H186        2.7309  -14.4535  -49.7747 H         1 UNK         0.0600 
    187 H187        4.1037  -15.3975  -50.3326 H         1 UNK         0.0600 
    188 H188        2.5809  -16.1994  -49.9803 H         1 UNK         0.0600 
    189 H189        1.7459  -16.0629  -47.5356 H         1 UNK         0.3000 
    190 H190       -4.1516  -20.7439  -48.1188 H         1 UNK         0.3000 
    191 H191       -4.3829  -22.9932  -49.7628 H         1 UNK         0.0600 
    192 H192       -6.2717  -21.4600  -49.1502 H         1 UNK         0.0600 
    193 H193       -6.6899  -23.1211  -48.7589 H         1 UNK         0.0600 
    194 H194       -6.2013  -22.0173  -47.4811 H         1 UNK         0.0600 
    195 H195       -3.5386  -22.8089  -46.3625 H         1 UNK         0.3000 
    196 H196       -3.9334  -25.6019  -45.7171 H         1 UNK         0.0600 
    197 H197       -2.6330  -24.9718  -43.6757 H         1 UNK         0.0600 
    198 H198       -3.9274  -23.8243  -43.9819 H         1 UNK         0.0600 
    199 H199       -2.2631  -23.4021  -44.3819 H         1 UNK         0.0600 
    200 H200       -1.4333  -23.8274  -47.4346 H         1 UNK         0.3000 
    201 H201        0.6427  -25.8760  -46.9627 H         1 UNK         0.0600 
    202 H202        2.1172  -24.3174  -48.1383 H         1 UNK         0.0600 
    203 H203        0.7778  -23.2656  -48.5594 H         1 UNK         0.0600 
    204 H204        1.2606  -23.4494  -46.8743 H         1 UNK         0.0600 
    205 H205       -1.4321  -24.5551  -49.6284 H         1 UNK         0.3000 
    206 H206       -1.1862  -27.0665  -51.0872 H         1 UNK         0.0600 
    207 H207        0.8752  -25.9102  -51.8819 H         1 UNK         0.0600 
    208 H208       -0.3104  -25.9404  -53.1738 H         1 UNK         0.0600 
    209 H209       -0.0489  -24.4592  -52.2585 H         1 UNK         0.0600 
    210 H210       -2.8451  -27.3903  -52.5154 H         1 UNK         0.3000 
    211 H211       -5.2083  -25.7784  -52.3673 H         1 UNK         0.0600 
    212 H212       -4.4537  -28.0707  -54.2593 H         1 UNK         0.0600 
    213 H213       -6.0717  -27.4136  -54.0435 H         1 UNK         0.0600 
    214 H214       -5.2790  -28.2342  -52.7085 H         1 UNK         0.0600 
    215 H215       -2.4868  -25.8751  -54.6243 H         1 UNK         0.3000 
    216 H216       -3.6233  -24.2776  -56.7153 H         1 UNK         0.0600 
    217 H217       -1.2334  -23.9576  -57.3745 H         1 UNK         0.0600 
    218 H218       -1.5759  -25.6466  -57.0362 H         1 UNK         0.0600 
    219 H219       -0.7030  -24.6694  -55.8552 H         1 UNK         0.0600 
    220 H220       -2.0232  -23.4973  -53.6363 H         1 UNK         0.3000 
    221 H221       -1.9074  -20.6351  -54.1259 H         1 UNK         0.0600 
    222 H222       -1.5665  -22.1476  -51.4932 H         1 UNK         0.0600 
    223 H223       -0.2707  -21.8761  -52.6573 H         1 UNK         0.0600 
    224 H224       -1.0424  -20.5087  -51.8847 H         1 UNK         0.0600 
    225 H225       -4.1715  -22.9189  -52.5978 H         1 UNK         0.3000 
    226 H226       -5.9845  -21.0199  -51.4920 H         1 UNK         0.0600 
    227 H227       -7.5214  -22.8421  -51.3123 H         1 UNK         0.0600 
    228 H228       -6.8477  -23.7092  -52.6734 H         1 UNK         0.0600 
    229 H229       -5.9590  -23.6311  -51.1677 H         1 UNK         0.0600 
    230 H230       -5.8514  -22.6067  -54.7080 H         1 UNK         0.3000 
    231 H231       -8.0573  -21.2796  -55.8833 H         1 UNK         0.0600 
    232 H232       -5.5694  -22.4903  -57.2028 H         1 UNK         0.0600 
    233 H233       -7.0772  -22.1021  -58.0206 H         1 UNK         0.0600 
    234 H234       -7.0462  -23.3585  -56.7918 H         1 UNK         0.0600 
    235 H235       -4.6203  -20.3283  -55.6796 H         1 UNK         0.3000 
    236 H236       -4.8128  -18.0027  -57.3334 H         1 UNK         0.0600 
    237 H237       -2.6546  -19.1276  -56.7741 H         1 UNK         0.0600 
    238 H238       -2.6228  -17.4231  -56.3473 H         1 UNK         0.0600 
    239 H239       -2.8248  -18.6331  -55.0900 H         1 UNK         0.0600 
    240 H240       -5.1449  -18.4827  -53.7881 H         1 UNK         0.3000 
    241 H241       -5.6517  -15.7347  -53.1709 H         1 UNK         0.0600 
    242 H242       -7.9821  -18.5144  -53.7074 H         1 UNK         0.3800 
    243 H243       -9.3493  -17.4498  -53.9549 H         1 UNK         0.3800 
    244 H244       -4.8419  -17.5151  -51.5586 H         1 UNK         0.0800 
    245 H245       -6.4553  -18.1697  -51.5051 H         1 UNK         0.0800 
    246 H246       -5.4923  -17.8560  -49.0075 H         1 UNK         0.0800 
    247 H247       -6.1337  -16.5573  -48.0374 H         1 UNK         0.0800 
@<TRIPOS>BOND
     1    1    2 1    
     2    1  127 1    
     3    1  128 1    
     4    1  129 1    
     5    2    3 2    
     6    2    4 am   BACKBONE|DICT|INTERRES
     7    4    5 1    
     8    4  130 1    
     9    5    6 1    
    10    5   65 1    
    11    5  131 1    
    12    6    7 1    
    13    6  132 1    
    14    6  133 1    
    15    7    8 1    
    16    8    9 1    
    17    8  134 1    
    18    8  135 1    
    19    9   10 ar   
    20    9   14 ar   
    21   10   11 ar   
    22   10  136 1    
    23   11   12 ar   
    24   11  126 1    
    25   12   13 ar   
    26   12  137 1    
    27   13   14 ar   
    28   13   15 1    
    29   14  138 1    
    30   15   16 1    
    31   15  139 1    
    32   15  140 1    
    33   16   17 1    
    34   17   18 1    
    35   17  141 1    
    36   17  142 1    
    37   18   19 1    
    38   18   67 1    
    39   18  143 1    
    40   19   20 am   BACKBONE|DICT|INTERRES
    41   19  144 1    
    42   20   21 2    
    43   20   22 1    
    44   22   23 1    
    45   22   24 1    
    46   22  145 1    
    47   23  146 1    
    48   23  147 1    
    49   23  148 1    
    50   24   25 am   BACKBONE|DICT|INTERRES
    51   24  149 1    
    52   25   26 2    
    53   25   27 1    
    54   27   28 1    
    55   27   29 1    
    56   27  150 1    
    57   28  151 1    
    58   28  152 1    
    59   28  153 1    
    60   29   30 am   BACKBONE|DICT|INTERRES
    61   29  154 1    
    62   30   31 2    
    63   30   32 1    
    64   32   33 1    
    65   32   34 1    
    66   32  155 1    
    67   33  156 1    
    68   33  157 1    
    69   33  158 1    
    70   34   35 am   BACKBONE|DICT|INTERRES
    71   34  159 1    
    72   35   36 2    
    73   35   37 1    
    74   37   38 1    
    75   37   39 1    
    76   37  160 1    
    77   38  161 1    
    78   38  162 1    
    79   38  163 1    
    80   39   40 am   BACKBONE|DICT|INTERRES
    81   39  164 1    
    82   40   41 2    
    83   40   42 1    
    84   42   43 1    
    85   42   44 1    
    86   42  165 1    
    87   43  166 1    
    88   43  167 1    
    89   43  168 1    
    90   44   45 am   BACKBONE|DICT|INTERRES
    91   44  169 1    
    92   45   46 2    
    93   45   47 1    
    94   47   48 1    
    95   47   49 1    
    96   47  170 1    
    97   48  171 1    
    98   48  172 1    
    99   48  173 1    
   100   49   50 am   BACKBONE|DICT|INTERRES
   101   49  174 1    
   102   50   51 2    
   103   50   52 1    
   104   52   53 1    
   105   52   54 1    
   106   52  175 1    
   107   53  176 1    
   108   53  177 1    
   109   53  178 1    
   110   54   55 am   BACKBONE|DICT|INTERRES
   111   54  179 1    
   112   55   56 2    
   113   55   57 1    
   114   57   58 1    
   115   57   59 1    
   116   57  180 1    
   117   58  181 1    
   118   58  182 1    
   119   58  183 1    
   120   59   60 am   BACKBONE|DICT|INTERRES
   121   59  184 1    
   122   60   61 2    
   123   60   62 1    
   124   62   63 1    
   125   62   64 1    
   126   62  185 1    
   127   63  186 1    
   128   63  187 1    
   129   63  188 1    
   130   64   65 am   BACKBONE|DICT|INTERRES
   131   64  189 1    
   132   65   66 2    
   133   67   68 2    
   134   67   69 am   BACKBONE|DICT|INTERRES
   135   69   70 1    
   136   69  190 1    
   137   70   71 1    
   138   70   72 1    
   139   70  191 1    
   140   71  192 1    
   141   71  193 1    
   142   71  194 1    
   143   72   73 2    
   144   72   74 am   BACKBONE|DICT|INTERRES
   145   74   75 1    
   146   74  195 1    
   147   75   76 1    
   148   75   77 1    
   149   75  196 1    
   150   76  197 1    
   151   76  198 1    
   152   76  199 1    
   153   77   78 2    
   154   77   79 am   BACKBONE|DICT|INTERRES
   155   79   80 1    
   156   79  200 1    
   157   80   81 1    
   158   80   82 1    
   159   80  201 1    
   160   81  202 1    
   161   81  203 1    
   162   81  204 1    
   163   82   83 2    
   164   82   84 am   BACKBONE|DICT|INTERRES
   165   84   85 1    
   166   84  205 1    
   167   85   86 1    
   168   85   87 1    
   169   85  206 1    
   170   86  207 1    
   171   86  208 1    
   172   86  209 1    
   173   87   88 2    
   174   87   89 am   BACKBONE|DICT|INTERRES
   175   89   90 1    
   176   89  210 1    
   177   90   91 1    
   178   90   92 1    
   179   90  211 1    
   180   91  212 1    
   181   91  213 1    
   182   91  214 1    
   183   92   93 2    
   184   92   94 am   BACKBONE|DICT|INTERRES
   185   94   95 1    
   186   94  215 1    
   187   95   96 1    
   188   95   97 1    
   189   95  216 1    
   190   96  217 1    
   191   96  218 1    
   192   96  219 1    
   193   97   98 2    
   194   97   99 am   BACKBONE|DICT|INTERRES
   195   99  100 1    
   196   99  220 1    
   197  100  101 1    
   198  100  102 1    
   199  100  221 1    
   200  101  222 1    
   201  101  223 1    
   202  101  224 1    
   203  102  103 2    
   204  102  104 am   BACKBONE|DICT|INTERRES
   205  104  105 1    
   206  104  225 1    
   207  105  106 1    
   208  105  107 1    
   209  105  226 1    
   210  106  227 1    
   211  106  228 1    
   212  106  229 1    
   213  107  108 2    
   214  107  109 am   BACKBONE|DICT|INTERRES
   215  109  110 1    
   216  109  230 1    
   217  110  111 1    
   218  110  112 1    
   219  110  231 1    
   220  111  232 1    
   221  111  233 1    
   222  111  234 1    
   223  112  113 2    
   224  112  114 am   BACKBONE|DICT|INTERRES
   225  114  115 1    
   226  114  235 1    
   227  115  116 1    
   228  115  117 1    
   229  115  236 1    
   230  116  237 1    
   231  116  238 1    
   232  116  239 1    
   233  117  118 2    
   234  117  119 am   BACKBONE|DICT|INTERRES
   235  119  120 1    
   236  119  240 1    
   237  120  121 1    
   238  120  124 1    
   239  120  241 1    
   240  121  122 am   BACKBONE|DICT|INTERRES
   241  121  123 2    
   242  122  242 1    
   243  122  243 1    
   244  124  125 1    
   245  124  244 1    
   246  124  245 1    
   247  125  126 1    
   248  126  246 1    
   249  126  247 1    
@<TRIPOS>SUBSTRUCTURE
     1 UNK         1 GROUP             0       ****    0 ROOT    
