@<TRIPOS>MOLECULE
3R540
247   249    1
SMALL
USER_CHARGES


@<TRIPOS>ATOM
      1 CA         -0.6505  -12.9061  -47.2070 C.3       0 UNK        -0.1800 
      2 C           0.6508  -12.2939  -47.6983 C.2       0 UNK         0.5000 
      3 O           0.6275  -11.3949  -48.5398 O.2       0 UNK        -0.5000 
      4 N           1.7867  -12.7656  -47.1719 N.am      1 UNK        -0.5000 
      5 CA          3.1280  -12.2736  -47.4982 C.3       1 UNK         0.1400 
      6 C6          4.1964  -13.3881  -47.3749 C.3       23 UNK        -0.0398 
      7 S7          4.0015  -14.6512  -48.6750 S.3       23 UNK        -0.2404 
      8 C8          3.1445  -15.9635  -47.7530 C.3       23 UNK        -0.0205 
      9 C9          2.5651  -17.0133  -48.6859 C.ar      23 UNK        -0.0193 
     10 C10         1.5007  -16.6829  -49.5290 C.ar      23 UNK        -0.1150 
     11 C11         0.9490  -17.6385  -50.3853 C.ar      23 UNK        -0.0193 
     12 C12         1.4704  -18.9350  -50.3947 C.ar      23 UNK        -0.1150 
     13 C13         2.5267  -19.2814  -49.5479 C.ar      23 UNK        -0.0193 
     14 C14         3.0740  -18.3151  -48.6982 C.ar      23 UNK        -0.1150 
     15 C15         3.0785  -20.6983  -49.5542 C.3       23 UNK        -0.0205 
     16 S16         2.5164  -21.6508  -48.1101 S.3       23 UNK        -0.2404 
     17 C17         0.7226  -21.7644  -48.4207 C.3       23 UNK        -0.0398 
     18 CA          0.0598  -22.8022  -47.4862 C.3       11 UNK         0.1400 
     19 N           0.0219  -22.3510  -46.0898 N.am      11 UNK        -0.5000 
     20 C          -0.3110  -23.1293  -45.0508 C.2       10 UNK         0.5000 
     21 O          -0.5789  -24.3246  -45.1561 O.2       10 UNK        -0.5000 
     22 CA         -0.4205  -22.4560  -43.6716 C.3       10 UNK         0.1400 
     23 CB          0.9648  -22.2720  -43.0347 C.3       10 UNK        -0.1800 
     24 N          -1.1228  -21.1738  -43.7297 N.am      10 UNK        -0.5000 
     25 C          -2.4100  -21.0303  -44.0767 C.2       9 UNK         0.5000 
     26 O          -3.1563  -21.9765  -44.3250 O.2       9 UNK        -0.5000 
     27 CA         -2.9426  -19.5920  -44.2230 C.3       9 UNK         0.1400 
     28 CB         -3.3417  -19.0111  -42.8591 C.3       9 UNK        -0.1800 
     29 N          -1.9874  -18.7001  -44.8822 N.am      9 UNK        -0.5000 
     30 C          -1.5492  -18.8573  -46.1403 C.2       8 UNK         0.5000 
     31 O          -1.9451  -19.7431  -46.8967 O.2       8 UNK        -0.5000 
     32 CA         -0.4408  -17.9007  -46.6105 C.3       8 UNK         0.1400 
     33 CB         -1.0330  -16.5648  -47.0779 C.3       8 UNK        -0.1800 
     34 N           0.5607  -17.6675  -45.5679 N.am      8 UNK        -0.5000 
     35 C           1.3870  -18.6181  -45.1074 C.2       7 UNK         0.5000 
     36 O           1.4121  -19.7683  -45.5418 O.2       7 UNK        -0.5000 
     37 CA          2.2844  -18.2414  -43.9157 C.3       7 UNK         0.1400 
     38 CB          3.5258  -17.4642  -44.3736 C.3       7 UNK        -0.1800 
     39 N           1.5635  -17.4631  -42.9094 N.am      7 UNK        -0.5000 
     40 C           0.5800  -17.9544  -42.1423 C.2       6 UNK         0.5000 
     41 O           0.2128  -19.1273  -42.1754 O.2       6 UNK        -0.5000 
     42 CA         -0.1398  -16.9655  -41.2075 C.3       6 UNK         0.1400 
     43 CB          0.5461  -16.9296  -39.8340 C.3       6 UNK        -0.1800 
     44 N          -0.2091  -15.6065  -41.7456 N.am      6 UNK        -0.5000 
     45 C          -0.8524  -15.2492  -42.8672 C.2       5 UNK         0.5000 
     46 O          -1.4740  -16.0378  -43.5798 O.2       5 UNK        -0.5000 
     47 CA         -0.7322  -13.7703  -43.2800 C.3       5 UNK         0.1400 
     48 CB         -1.8592  -12.9366  -42.6548 C.3       5 UNK        -0.1800 
     49 N           0.5614  -13.1989  -42.9003 N.am      5 UNK        -0.5000 
     50 C           1.7334  -13.5192  -43.4620 C.2       4 UNK         0.5000 
     51 O           1.8377  -14.2168  -44.4748 O.2       4 UNK        -0.5000 
     52 CA          2.9811  -12.9690  -42.7461 C.3       4 UNK         0.1400 
     53 CB          4.2942  -13.6016  -43.2353 C.3       4 UNK        -0.1800 
     54 N           3.0607  -11.5141  -42.8638 N.am      4 UNK        -0.5000 
     55 C           2.4138  -10.6493  -42.0683 C.2       3 UNK         0.5000 
     56 O           1.6683  -11.0044  -41.1535 O.2       3 UNK        -0.5000 
     57 CA          2.6186   -9.1437  -42.3299 C.3       3 UNK         0.1400 
     58 CB          3.7050   -8.5816  -41.4006 C.3       3 UNK        -0.1800 
     59 N           2.9752   -8.8396  -43.7156 N.am      3 UNK        -0.5000 
     60 C           2.1357   -8.9349  -44.7540 C.2       2 UNK         0.5000 
     61 O           0.9471   -9.2402  -44.6447 O.2       2 UNK        -0.5000 
     62 CA          2.7163   -8.6828  -46.1599 C.3       2 UNK         0.1400 
     63 CB          4.0936   -7.9806  -46.1697 C.3       2 UNK        -0.1800 
     64 N           2.7571   -9.9321  -46.9225 N.am      2 UNK        -0.5000 
     65 C           3.4245  -11.0519  -46.6084 C.2       1 UNK         0.5000 
     66 O           4.1846  -11.1523  -45.6434 O.2       1 UNK        -0.5000 
     67 C          -1.3333  -23.2184  -48.0047 C.2       11 UNK         0.5000 
     68 O          -1.4322  -24.2016  -48.7409 O.2       11 UNK        -0.5000 
     69 N          -2.3887  -22.5048  -47.5901 N.am      12 UNK        -0.5000 
     70 CA         -3.7784  -22.8611  -47.8722 C.3       12 UNK         0.1400 
     71 CB         -4.7077  -21.6921  -47.5157 C.3       12 UNK        -0.1800 
     72 C          -4.2060  -24.1617  -47.1696 C.2       12 UNK         0.5000 
     73 O          -4.7969  -25.0268  -47.8156 O.2       12 UNK        -0.5000 
     74 N          -3.8568  -24.3043  -45.8830 N.am      13 UNK        -0.5000 
     75 CA         -4.1063  -25.5036  -45.0769 C.3       13 UNK         0.1400 
     76 CB         -3.7457  -25.2205  -43.6109 C.3       13 UNK        -0.1800 
     77 C          -3.3574  -26.7483  -45.5931 C.2       13 UNK         0.5000 
     78 O          -3.9147  -27.8462  -45.5741 O.2       13 UNK        -0.5000 
     79 N          -2.1258  -26.5478  -46.0805 N.am      14 UNK        -0.5000 
     80 CA         -1.2925  -27.5644  -46.7266 C.3       14 UNK         0.1400 
     81 CB          0.1628  -27.0695  -46.7441 C.3       14 UNK        -0.1800 
     82 C          -1.7478  -27.9251  -48.1564 C.2       14 UNK         0.5000 
     83 O          -1.2298  -28.8902  -48.7197 O.2       14 UNK        -0.5000 
     84 N          -2.6827  -27.1451  -48.7202 N.am      15 UNK        -0.5000 
     85 CA         -3.2232  -27.2371  -50.0793 C.3       15 UNK         0.1400 
     86 CB         -3.9924  -28.5586  -50.2864 C.3       15 UNK        -0.1800 
     87 C          -2.1661  -26.9657  -51.1705 C.2       15 UNK         0.5000 
     88 O          -2.2319  -27.5467  -52.2555 O.2       15 UNK        -0.5000 
     89 N          -1.2180  -26.0662  -50.8708 N.am      16 UNK        -0.5000 
     90 CA         -0.2797  -25.5048  -51.8431 C.3       16 UNK         0.1400 
     91 CB          0.9540  -24.9569  -51.1098 C.3       16 UNK        -0.1800 
     92 C          -0.9566  -24.4103  -52.6906 C.2       16 UNK         0.5000 
     93 O          -0.6236  -24.2564  -53.8661 O.2       16 UNK        -0.5000 
     94 N          -1.9236  -23.7017  -52.0898 N.am      17 UNK        -0.5000 
     95 CA         -2.8774  -22.8418  -52.7872 C.3       17 UNK         0.1400 
     96 CB         -3.5736  -21.9364  -51.7599 C.3       17 UNK        -0.1800 
     97 C          -3.9304  -23.6976  -53.5128 C.2       17 UNK         0.5000 
     98 O          -4.3001  -24.7662  -53.0170 O.2       17 UNK        -0.5000 
     99 N          -4.4512  -23.1889  -54.6333 N.am      18 UNK        -0.5000 
    100 CA        -5.5763  -23.7711  -55.3612 C.3       18 UNK         0.1400 
    101 CB        -5.4551  -23.4060  -56.8505 C.3       18 UNK        -0.1800 
    102 C         -6.8877  -23.2862  -54.7174 C.2       18 UNK         0.5000 
    103 O         -7.5809  -22.4315  -55.2730 O.2       18 UNK        -0.5000 
    104 N         -7.1573  -23.8006  -53.5093 N.am      19 UNK        -0.5000 
    105 CA        -8.2137  -23.3814  -52.5867 C.3       19 UNK         0.1400 
    106 CB        -9.6121  -23.7273  -53.1476 C.3       19 UNK        -0.1800 
    107 C         -8.0269  -21.9010  -52.1965 C.2       19 UNK         0.5000 
    108 O         -7.0574  -21.5834  -51.5067 O.2       19 UNK        -0.5000 
    109 N         -8.9297  -21.0248  -52.6536 N.am      20 UNK        -0.5000 
    110 CA        -8.8700  -19.5800  -52.4325 C.3       20 UNK         0.1400 
    111 CB       -10.2533  -18.9774  -52.7228 C.3       20 UNK        -0.1800 
    112 C         -7.7883  -18.8704  -53.2721 C.2       20 UNK         0.5000 
    113 O         -7.3526  -17.7836  -52.8884 O.2       20 UNK        -0.5000 
    114 N         -7.3803  -19.4692  -54.4004 N.am      21 UNK        -0.5000 
    115 CA        -6.3649  -18.9237  -55.2974 C.3       21 UNK         0.1400 
    116 CB        -6.6266  -19.4144  -56.7304 C.3       21 UNK        -0.1800 
    117 C         -4.9598  -19.2931  -54.7929 C.2       21 UNK         0.5000 
    118 O         -4.4448  -20.3662  -55.1141 O.2       21 UNK        -0.5000 
    119 N         -4.3797  -18.4013  -53.9827 N.am      22 UNK        -0.5000 
    120 CA        -3.0215  -18.5262  -53.4300 C.3       22 UNK         0.1400 
    121 C         -1.8855  -18.4006  -54.4891 C.2       22 UNK         0.5000 
    122 N         -2.1018  -17.7183  -55.6076 N.am      22 UNK        -0.7600 
    123 O         -0.8035  -18.9501  -54.3086 O.2       22 UNK        -0.5000 
    124 C124       -2.8209  -17.5515  -52.2383 C.3       23 UNK        -0.0398 
    125 S125       -1.7072  -18.1985  -50.9466 S.3       23 UNK        -0.2404 
    126 C126       -0.1904  -17.2642  -51.3182 C.3       23 UNK        -0.0205 
    127 H127       -1.2250  -12.1704  -46.6443 H         1 UNK         0.0600 
    128 H128       -0.4629  -13.7617  -46.5622 H         1 UNK         0.0600 
    129 H129       -1.2522  -13.2437  -48.0508 H         1 UNK         0.0600 
    130 H130        1.7458  -13.4444  -46.4193 H         1 UNK         0.3000 
    131 H131        3.1464  -11.9229  -48.5327 H         1 UNK         0.0600 
    132 H132        4.1584  -13.8646  -46.3959 H         1 UNK         0.0800 
    133 H133        5.1994  -12.9699  -47.4752 H         1 UNK         0.0800 
    134 H134        3.8530  -16.4150  -47.0591 H         1 UNK         0.0800 
    135 H135        2.3392  -15.5403  -47.1518 H         1 UNK         0.0800 
    136 H136        1.1088  -15.6754  -49.5196 H         1 UNK         0.1150 
    137 H137        1.0450  -19.6747  -51.0586 H         1 UNK         0.1150 
    138 H138        3.8894  -18.5833  -48.0413 H         1 UNK         0.1150 
    139 H139        2.7963  -21.2224  -50.4686 H         1 UNK         0.0800 
    140 H140        4.1687  -20.6606  -49.5489 H         1 UNK         0.0800 
    141 H141        0.2713  -20.7799  -48.2865 H         1 UNK         0.0800 
    142 H142        0.5781  -22.0277  -49.4694 H         1 UNK         0.0800 
    143 H143        0.6697  -23.7077  -47.5125 H         1 UNK         0.0600 
    144 H144        0.2914  -21.3869  -45.9169 H         1 UNK         0.3000 
    145 H145       -0.9989  -23.1196  -43.0257 H         1 UNK         0.0600 
    146 H146        0.8834  -21.8681  -42.0256 H         1 UNK         0.0600 
    147 H147        1.4895  -23.2253  -42.9622 H         1 UNK         0.0600 
    148 H148        1.5921  -21.5963  -43.6154 H         1 UNK         0.0600 
    149 H149       -0.5873  -20.3502  -43.4730 H         1 UNK         0.3000 
    150 H150       -3.8376  -19.6317  -44.8471 H         1 UNK         0.0600 
    151 H151       -4.1214  -19.6153  -42.3939 H         1 UNK         0.0600 
    152 H152       -3.7295  -17.9970  -42.9583 H         1 UNK         0.0600 
    153 H153       -2.4982  -18.9823  -42.1705 H         1 UNK         0.0600 
    154 H154       -1.6438  -17.9123  -44.3427 H         1 UNK         0.3000 
    155 H155        0.0603  -18.3656  -47.4623 H         1 UNK         0.0600 
    156 H156       -1.5637  -16.0507  -46.2765 H         1 UNK         0.0600 
    157 H157       -1.7388  -16.7192  -47.8950 H         1 UNK         0.0600 
    158 H158       -0.2530  -15.9016  -47.4469 H         1 UNK         0.0600 
    159 H159        0.5650  -16.7588  -45.1283 H         1 UNK         0.3000 
    160 H160        2.6222  -19.1703  -43.4509 H         1 UNK         0.0600 
    161 H161        3.2623  -16.4869  -44.7767 H         1 UNK         0.0600 
    162 H162        4.0651  -18.0110  -45.1482 H         1 UNK         0.0600 
    163 H163        4.2178  -17.3076  -43.5461 H         1 UNK         0.0600 
    164 H164        1.7913  -16.4831  -42.8388 H         1 UNK         0.3000 
    165 H165       -1.1622  -17.3218  -41.0697 H         1 UNK         0.0600 
    166 H166        1.5674  -16.5529  -39.9026 H         1 UNK         0.0600 
    167 H167       -0.0006  -16.2952  -39.1361 H         1 UNK         0.0600 
    168 H168        0.5929  -17.9273  -39.3953 H         1 UNK         0.0600 
    169 H169        0.2694  -14.8894  -41.2214 H         1 UNK         0.3000 
    170 H170       -0.8328  -13.7181  -44.3629 H         1 UNK         0.0600 
    171 H171       -2.8371  -13.3295  -42.9365 H         1 UNK         0.0600 
    172 H172       -1.8056  -12.9363  -41.5655 H         1 UNK         0.0600 
    173 H173       -1.8156  -11.9011  -42.9933 H         1 UNK         0.0600 
    174 H174        0.5729  -12.5638  -42.1100 H         1 UNK         0.3000 
    175 H175        2.8833  -13.2364  -41.6917 H         1 UNK         0.0600 
    176 H176        4.2522  -14.6896  -43.1782 H         1 UNK         0.0600 
    177 H177        4.5183  -13.3334  -44.2644 H         1 UNK         0.0600 
    178 H178        5.1346  -13.2783  -42.6212 H         1 UNK         0.0600 
    179 H179        3.5965  -11.1586  -43.6487 H         1 UNK         0.3000 
    180 H180        1.6782   -8.6389  -42.0985 H         1 UNK         0.0600 
    181 H181        3.8099   -7.5033  -41.5227 H         1 UNK         0.0600 
    182 H182        3.4579   -8.7663  -40.3542 H         1 UNK         0.0600 
    183 H183        4.6763   -9.0386  -41.5941 H         1 UNK         0.0600 
    184 H184        3.9413   -8.6087  -43.8971 H         1 UNK         0.3000 
    185 H185        2.0093   -8.0275  -46.6708 H         1 UNK         0.0600 
    186 H186        4.4081   -7.7631  -47.1904 H         1 UNK         0.0600 
    187 H187        4.0508   -7.0284  -45.6394 H         1 UNK         0.0600 
    188 H188        4.8769   -8.5826  -45.7087 H         1 UNK         0.0600 
    189 H189        2.0909   -9.9972  -47.6838 H         1 UNK         0.3000 
    190 H190       -2.2307  -21.6573  -47.0521 H         1 UNK         0.3000 
    191 H191       -3.8616  -23.0369  -48.9437 H         1 UNK         0.0600 
    192 H192       -5.7425  -21.9274  -47.7670 H         1 UNK         0.0600 
    193 H193       -4.4354  -20.7924  -48.0682 H         1 UNK         0.0600 
    194 H194       -4.6734  -21.4547  -46.4530 H         1 UNK         0.0600 
    195 H195       -3.4100  -23.5235  -45.4086 H         1 UNK         0.3000 
    196 H196       -5.1756  -25.7186  -45.1270 H         1 UNK         0.0600 
    197 H197       -3.9527  -26.0877  -42.9828 H         1 UNK         0.0600 
    198 H198       -4.3263  -24.3864  -43.2163 H         1 UNK         0.0600 
    199 H199       -2.6896  -24.9760  -43.4962 H         1 UNK         0.0600 
    200 H200       -1.7080  -25.6269  -45.9726 H         1 UNK         0.3000 
    201 H201       -1.3366  -28.4773  -46.1293 H         1 UNK         0.0600 
    202 H202        0.2675  -26.1582  -47.3338 H         1 UNK         0.0600 
    203 H203        0.8286  -27.8179  -47.1754 H         1 UNK         0.0600 
    204 H204        0.5211  -26.8601  -45.7361 H         1 UNK         0.0600 
    205 H205       -3.0426  -26.3755  -48.1699 H         1 UNK         0.3000 
    206 H206       -3.9474  -26.4256  -50.1657 H         1 UNK         0.0600 
    207 H207       -4.7321  -28.7106  -49.5004 H         1 UNK         0.0600 
    208 H208       -4.5272  -28.5527  -51.2368 H         1 UNK         0.0600 
    209 H209       -3.3259  -29.4213  -50.2932 H         1 UNK         0.0600 
    210 H210       -1.2511  -25.6097  -49.9623 H         1 UNK         0.3000 
    211 H211        0.0524  -26.2969  -52.5175 H         1 UNK         0.0600 
    212 H212        0.6925  -24.1539  -50.4230 H         1 UNK         0.0600 
    213 H213        1.6830  -24.5592  -51.8168 H         1 UNK         0.0600 
    214 H214        1.4497  -25.7393  -50.5349 H         1 UNK         0.0600 
    215 H215       -2.1388  -23.9233  -51.1286 H         1 UNK         0.3000 
    216 H216       -2.3444  -22.2214  -53.5112 H         1 UNK         0.0600 
    217 H217       -4.2527  -21.2393  -52.2516 H         1 UNK         0.0600 
    218 H218       -2.8564  -21.3518  -51.1831 H         1 UNK         0.0600 
    219 H219       -4.1803  -22.5167  -51.0664 H         1 UNK         0.0600 
    220 H220       -4.1981  -22.2426  -54.9095 H         1 UNK         0.3000 
    221 H221       -5.5500  -24.8604  -55.2867 H         1 UNK         0.0600 
    222 H222       -5.3552  -22.3317  -56.9988 H         1 UNK         0.0600 
    223 H223       -4.5816  -23.8811  -57.2969 H         1 UNK         0.0600 
    224 H224       -6.3292  -23.7404  -57.4105 H         1 UNK         0.0600 
    225 H225       -6.4694  -24.4360  -53.1215 H         1 UNK         0.3000 
    226 H226       -8.0747  -23.9586  -51.6714 H         1 UNK         0.0600 
    227 H227       -9.7004  -24.7983  -53.3297 H         1 UNK         0.0600 
    228 H228      -10.3956  -23.4588  -52.4378 H         1 UNK         0.0600 
    229 H229       -9.8267  -23.2182  -54.0874 H         1 UNK         0.0600 
    230 H230       -9.6805  -21.3658  -53.2364 H         1 UNK         0.3000 
    231 H231       -8.6364  -19.4018  -51.3806 H         1 UNK         0.0600 
    232 H232      -10.2578  -17.9021  -52.5391 H         1 UNK         0.0600 
    233 H233      -11.0181  -19.4178  -52.0827 H         1 UNK         0.0600 
    234 H234      -10.5509  -19.1344  -53.7603 H         1 UNK         0.0600 
    235 H235       -7.7251  -20.3963  -54.6241 H         1 UNK         0.3000 
    236 H236       -6.4444  -17.8345  -55.3182 H         1 UNK         0.0600 
    237 H237       -6.6629  -20.5000  -56.7904 H         1 UNK         0.0600 
    238 H238       -7.5757  -19.0324  -57.1063 H         1 UNK         0.0600 
    239 H239       -5.8454  -19.0726  -57.4103 H         1 UNK         0.0600 
    240 H240       -4.8951  -17.5691  -53.7319 H         1 UNK         0.3000 
    241 H241       -2.9452  -19.5411  -53.0424 H         1 UNK         0.0600 
    242 H242       -2.9875  -17.2701  -55.7786 H         1 UNK         0.3800 
    243 H243       -1.3676  -17.6524  -56.2951 H         1 UNK         0.3800 
    244 H244       -3.7745  -17.3777  -51.7373 H         1 UNK         0.0800 
    245 H245       -2.4906  -16.5676  -52.5766 H         1 UNK         0.0800 
    246 H246        0.1220  -17.4553  -52.3446 H         1 UNK         0.0800 
    247 H247       -0.4056  -16.1964  -51.2529 H         1 UNK         0.0800 
@<TRIPOS>BOND
     1    1    2 1    
     2    1  127 1    
     3    1  128 1    
     4    1  129 1    
     5    2    3 2    
     6    2    4 am   BACKBONE|DICT|INTERRES
     7    4    5 1    
     8    4  130 1    
     9    5    6 1    
    10    5   65 1    
    11    5  131 1    
    12    6    7 1    
    13    6  132 1    
    14    6  133 1    
    15    7    8 1    
    16    8    9 1    
    17    8  134 1    
    18    8  135 1    
    19    9   10 ar   
    20    9   14 ar   
    21   10   11 ar   
    22   10  136 1    
    23   11   12 ar   
    24   11  126 1    
    25   12   13 ar   
    26   12  137 1    
    27   13   14 ar   
    28   13   15 1    
    29   14  138 1    
    30   15   16 1    
    31   15  139 1    
    32   15  140 1    
    33   16   17 1    
    34   17   18 1    
    35   17  141 1    
    36   17  142 1    
    37   18   19 1    
    38   18   67 1    
    39   18  143 1    
    40   19   20 am   BACKBONE|DICT|INTERRES
    41   19  144 1    
    42   20   21 2    
    43   20   22 1    
    44   22   23 1    
    45   22   24 1    
    46   22  145 1    
    47   23  146 1    
    48   23  147 1    
    49   23  148 1    
    50   24   25 am   BACKBONE|DICT|INTERRES
    51   24  149 1    
    52   25   26 2    
    53   25   27 1    
    54   27   28 1    
    55   27   29 1    
    56   27  150 1    
    57   28  151 1    
    58   28  152 1    
    59   28  153 1    
    60   29   30 am   BACKBONE|DICT|INTERRES
    61   29  154 1    
    62   30   31 2    
    63   30   32 1    
    64   32   33 1    
    65   32   34 1    
    66   32  155 1    
    67   33  156 1    
    68   33  157 1    
    69   33  158 1    
    70   34   35 am   BACKBONE|DICT|INTERRES
    71   34  159 1    
    72   35   36 2    
    73   35   37 1    
    74   37   38 1    
    75   37   39 1    
    76   37  160 1    
    77   38  161 1    
    78   38  162 1    
    79   38  163 1    
    80   39   40 am   BACKBONE|DICT|INTERRES
    81   39  164 1    
    82   40   41 2    
    83   40   42 1    
    84   42   43 1    
    85   42   44 1    
    86   42  165 1    
    87   43  166 1    
    88   43  167 1    
    89   43  168 1    
    90   44   45 am   BACKBONE|DICT|INTERRES
    91   44  169 1    
    92   45   46 2    
    93   45   47 1    
    94   47   48 1    
    95   47   49 1    
    96   47  170 1    
    97   48  171 1    
    98   48  172 1    
    99   48  173 1    
   100   49   50 am   BACKBONE|DICT|INTERRES
   101   49  174 1    
   102   50   51 2    
   103   50   52 1    
   104   52   53 1    
   105   52   54 1    
   106   52  175 1    
   107   53  176 1    
   108   53  177 1    
   109   53  178 1    
   110   54   55 am   BACKBONE|DICT|INTERRES
   111   54  179 1    
   112   55   56 2    
   113   55   57 1    
   114   57   58 1    
   115   57   59 1    
   116   57  180 1    
   117   58  181 1    
   118   58  182 1    
   119   58  183 1    
   120   59   60 am   BACKBONE|DICT|INTERRES
   121   59  184 1    
   122   60   61 2    
   123   60   62 1    
   124   62   63 1    
   125   62   64 1    
   126   62  185 1    
   127   63  186 1    
   128   63  187 1    
   129   63  188 1    
   130   64   65 am   BACKBONE|DICT|INTERRES
   131   64  189 1    
   132   65   66 2    
   133   67   68 2    
   134   67   69 am   BACKBONE|DICT|INTERRES
   135   69   70 1    
   136   69  190 1    
   137   70   71 1    
   138   70   72 1    
   139   70  191 1    
   140   71  192 1    
   141   71  193 1    
   142   71  194 1    
   143   72   73 2    
   144   72   74 am   BACKBONE|DICT|INTERRES
   145   74   75 1    
   146   74  195 1    
   147   75   76 1    
   148   75   77 1    
   149   75  196 1    
   150   76  197 1    
   151   76  198 1    
   152   76  199 1    
   153   77   78 2    
   154   77   79 am   BACKBONE|DICT|INTERRES
   155   79   80 1    
   156   79  200 1    
   157   80   81 1    
   158   80   82 1    
   159   80  201 1    
   160   81  202 1    
   161   81  203 1    
   162   81  204 1    
   163   82   83 2    
   164   82   84 am   BACKBONE|DICT|INTERRES
   165   84   85 1    
   166   84  205 1    
   167   85   86 1    
   168   85   87 1    
   169   85  206 1    
   170   86  207 1    
   171   86  208 1    
   172   86  209 1    
   173   87   88 2    
   174   87   89 am   BACKBONE|DICT|INTERRES
   175   89   90 1    
   176   89  210 1    
   177   90   91 1    
   178   90   92 1    
   179   90  211 1    
   180   91  212 1    
   181   91  213 1    
   182   91  214 1    
   183   92   93 2    
   184   92   94 am   BACKBONE|DICT|INTERRES
   185   94   95 1    
   186   94  215 1    
   187   95   96 1    
   188   95   97 1    
   189   95  216 1    
   190   96  217 1    
   191   96  218 1    
   192   96  219 1    
   193   97   98 2    
   194   97   99 am   BACKBONE|DICT|INTERRES
   195   99  100 1    
   196   99  220 1    
   197  100  101 1    
   198  100  102 1    
   199  100  221 1    
   200  101  222 1    
   201  101  223 1    
   202  101  224 1    
   203  102  103 2    
   204  102  104 am   BACKBONE|DICT|INTERRES
   205  104  105 1    
   206  104  225 1    
   207  105  106 1    
   208  105  107 1    
   209  105  226 1    
   210  106  227 1    
   211  106  228 1    
   212  106  229 1    
   213  107  108 2    
   214  107  109 am   BACKBONE|DICT|INTERRES
   215  109  110 1    
   216  109  230 1    
   217  110  111 1    
   218  110  112 1    
   219  110  231 1    
   220  111  232 1    
   221  111  233 1    
   222  111  234 1    
   223  112  113 2    
   224  112  114 am   BACKBONE|DICT|INTERRES
   225  114  115 1    
   226  114  235 1    
   227  115  116 1    
   228  115  117 1    
   229  115  236 1    
   230  116  237 1    
   231  116  238 1    
   232  116  239 1    
   233  117  118 2    
   234  117  119 am   BACKBONE|DICT|INTERRES
   235  119  120 1    
   236  119  240 1    
   237  120  121 1    
   238  120  124 1    
   239  120  241 1    
   240  121  122 am   BACKBONE|DICT|INTERRES
   241  121  123 2    
   242  122  242 1    
   243  122  243 1    
   244  124  125 1    
   245  124  244 1    
   246  124  245 1    
   247  125  126 1    
   248  126  246 1    
   249  126  247 1    
@<TRIPOS>SUBSTRUCTURE
     1 UNK         1 GROUP             0       ****    0 ROOT    
