@<TRIPOS>MOLECULE
3R540
247   249    1
SMALL
USER_CHARGES


@<TRIPOS>ATOM
      1 CA         -4.5138  -15.7195  -43.1892 C.3       0 UNK        -0.1800 
      2 C          -4.3241  -15.8387  -44.6941 C.2       0 UNK         0.5000 
      3 O          -5.3026  -15.9363  -45.4348 O.2       0 UNK        -0.5000 
      4 N          -3.0639  -15.8324  -45.1407 N.am      1 UNK        -0.5000 
      5 CA         -2.6717  -15.8502  -46.5501 C.3       1 UNK         0.1400 
      6 C6         -1.3017  -16.5582  -46.7189 C.3       23 UNK        -0.0398 
      7 S7         -1.2006  -17.4842  -48.2808 S.3       23 UNK        -0.2404 
      8 C8          0.5194  -17.1972  -48.7865 C.3       23 UNK        -0.0205 
      9 C9          0.9129  -18.1935  -49.8622 C.ar      23 UNK        -0.0193 
     10 C10         0.4713  -18.0154  -51.1736 C.ar      23 UNK        -0.1150 
     11 C11         0.7510  -18.9704  -52.1529 C.ar      23 UNK        -0.0193 
     12 C12         1.5040  -20.0996  -51.8112 C.ar      23 UNK        -0.1150 
     13 C13         1.9671  -20.2905  -50.5040 C.ar      23 UNK        -0.0193 
     14 C14         1.6703  -19.3211  -49.5357 C.ar      23 UNK        -0.1150 
     15 C15         2.7576  -21.5666  -50.1966 C.3       23 UNK        -0.0205 
     16 S16         3.1027  -21.9056  -48.4326 S.3       23 UNK        -0.2404 
     17 C17         1.4414  -22.2916  -47.7698 C.3       23 UNK        -0.0398 
     18 CA          1.4135  -23.5849  -46.9125 C.3       11 UNK         0.1400 
     19 N           2.4229  -23.5225  -45.8426 N.am      11 UNK        -0.5000 
     20 C           2.9104  -24.5323  -45.1091 C.2       10 UNK         0.5000 
     21 O           2.5550  -25.7022  -45.2531 O.2       10 UNK        -0.5000 
     22 CA          3.9357  -24.1874  -44.0070 C.3       10 UNK         0.1400 
     23 CB          5.2371  -24.9788  -44.2149 C.3       10 UNK        -0.1800 
     24 N           4.2728  -22.7616  -43.9259 N.am      10 UNK        -0.5000 
     25 C           3.5664  -21.7593  -43.3842 C.2       9 UNK         0.5000 
     26 O           3.9960  -20.6053  -43.4048 O.2       9 UNK        -0.5000 
     27 CA          2.1992  -22.0255  -42.7196 C.3       9 UNK         0.1400 
     28 CB          2.3565  -22.2239  -41.2047 C.3       9 UNK        -0.1800 
     29 N           1.3800  -20.8458  -42.9648 N.am      9 UNK        -0.5000 
     30 C           0.1911  -20.8221  -43.5762 C.2       8 UNK         0.5000 
     31 O          -0.4779  -21.8276  -43.8048 O.2       8 UNK        -0.5000 
     32 CA         -0.3349  -19.4461  -44.0345 C.3       8 UNK         0.1400 
     33 CB         -1.5716  -19.0284  -43.2245 C.3       8 UNK        -0.1800 
     34 N           0.6811  -18.3884  -43.9644 N.am      8 UNK        -0.5000 
     35 C           1.6904  -18.2556  -44.8406 C.2       7 UNK         0.5000 
     36 O           1.8262  -18.9893  -45.8192 O.2       7 UNK        -0.5000 
     37 CA          2.7262  -17.1412  -44.5932 C.3       7 UNK         0.1400 
     38 CB          2.7726  -16.1632  -45.7741 C.3       7 UNK        -0.1800 
     39 N           2.4511  -16.3762  -43.3777 N.am      7 UNK        -0.5000 
     40 C           3.0923  -16.5322  -42.2108 C.2       6 UNK         0.5000 
     41 O           4.0024  -17.3408  -42.0310 O.2       6 UNK        -0.5000 
     42 CA          2.6361  -15.6448  -41.0339 C.3       6 UNK         0.1400 
     43 CB          3.5384  -14.4068  -40.9169 C.3       6 UNK        -0.1800 
     44 N           1.2439  -15.2043  -41.1343 N.am      6 UNK        -0.5000 
     45 C           0.1767  -16.0143  -41.1419 C.2       5 UNK         0.5000 
     46 O           0.2495  -17.2351  -41.0105 O.2       5 UNK        -0.5000 
     47 CA         -1.1932  -15.3609  -41.4035 C.3       5 UNK         0.1400 
     48 CB         -1.9463  -15.1335  -40.0852 C.3       5 UNK        -0.1800 
     49 N          -1.1104  -14.0929  -42.1372 N.am      5 UNK        -0.5000 
     50 C          -0.6622  -13.9565  -43.3929 C.2       4 UNK         0.5000 
     51 O          -0.2973  -14.9135  -44.0812 O.2       4 UNK        -0.5000 
     52 CA         -0.6580  -12.5209  -43.9546 C.3       4 UNK         0.1400 
     53 CB          0.1010  -11.5354  -43.0390 C.3       4 UNK        -0.1800 
     54 N          -0.1810  -12.4374  -45.3390 N.am      4 UNK        -0.5000 
     55 C           1.0662  -12.5913  -45.8102 C.2       3 UNK         0.5000 
     56 O           2.0451  -12.8235  -45.0998 O.2       3 UNK        -0.5000 
     57 CA          1.2375  -12.4525  -47.3405 C.3       3 UNK         0.1400 
     58 CB          2.4966  -13.1570  -47.8771 C.3       3 UNK        -0.1800 
     59 N           0.0695  -12.9746  -48.0511 N.am      3 UNK        -0.5000 
     60 C          -0.9146  -12.2455  -48.5934 C.2       2 UNK         0.5000 
     61 O          -0.9128  -11.0157  -48.6423 O.2       2 UNK        -0.5000 
     62 CA         -2.1327  -13.0299  -49.1266 C.3       2 UNK         0.1400 
     63 CB         -1.9847  -13.2956  -50.6318 C.3       2 UNK        -0.1800 
     64 N          -2.3529  -14.3038  -48.4294 N.am      2 UNK        -0.5000 
     65 C          -2.6503  -14.4176  -47.1271 C.2       1 UNK         0.5000 
     66 O          -2.8431  -13.4433  -46.3943 O.2       1 UNK        -0.5000 
     67 C          -0.0128  -23.8901  -46.3749 C.2       11 UNK         0.5000 
     68 O          -0.9828  -23.2420  -46.7720 O.2       11 UNK        -0.5000 
     69 N          -0.1126  -24.8698  -45.4678 N.am      12 UNK        -0.5000 
     70 CA         -1.2520  -25.1722  -44.5979 C.3       12 UNK         0.1400 
     71 CB         -0.7753  -26.1420  -43.5045 C.3       12 UNK        -0.1800 
     72 C          -2.5152  -25.7111  -45.2968 C.2       12 UNK         0.5000 
     73 O          -3.5313  -25.9048  -44.6267 O.2       12 UNK        -0.5000 
     74 N          -2.4585  -25.9305  -46.6161 N.am      13 UNK        -0.5000 
     75 CA         -3.5792  -26.3208  -47.4729 C.3       13 UNK         0.1400 
     76 CB         -3.0147  -26.8507  -48.8033 C.3       13 UNK        -0.1800 
     77 C          -4.5683  -25.1523  -47.6765 C.2       13 UNK         0.5000 
     78 O          -4.6702  -24.6131  -48.7788 O.2       13 UNK        -0.5000 
     79 N          -5.2412  -24.7514  -46.5884 N.am      14 UNK        -0.5000 
     80 CA         -6.1865  -23.6340  -46.4807 C.3       14 UNK         0.1400 
     81 CB         -7.4828  -23.9485  -47.2565 C.3       14 UNK        -0.1800 
     82 C          -5.5551  -22.2836  -46.8813 C.2       14 UNK         0.5000 
     83 O          -6.1752  -21.5051  -47.6075 O.2       14 UNK        -0.5000 
     84 N          -4.3088  -22.0591  -46.4320 N.am      15 UNK        -0.5000 
     85 CA         -3.4384  -20.9299  -46.7835 C.3       15 UNK         0.1400 
     86 CB         -3.9781  -19.6156  -46.1812 C.3       15 UNK        -0.1800 
     87 C          -3.2194  -20.8555  -48.3087 C.2       15 UNK         0.5000 
     88 O          -3.5288  -19.8400  -48.9313 O.2       15 UNK        -0.5000 
     89 N          -2.7663  -21.9789  -48.8856 N.am      16 UNK        -0.5000 
     90 CA         -2.5838  -22.2208  -50.3225 C.3       16 UNK         0.1400 
     91 CB         -1.3844  -21.4073  -50.8378 C.3       16 UNK        -0.1800 
     92 C          -3.8670  -21.9804  -51.1479 C.2       16 UNK         0.5000 
     93 O          -3.8169  -21.3420  -52.2016 O.2       16 UNK        -0.5000 
     94 N          -4.9985  -22.4744  -50.6246 N.am      17 UNK        -0.5000 
     95 CA         -6.3673  -22.2664  -51.1065 C.3       17 UNK         0.1400 
     96 CB         -6.5834  -23.0036  -52.4451 C.3       17 UNK        -0.1800 
     97 C          -6.7371  -20.7689  -51.1721 C.2       17 UNK         0.5000 
     98 O          -7.2232  -20.2971  -52.1992 O.2       17 UNK        -0.5000 
     99 N          -6.4469  -20.0376  -50.0861 N.am      18 UNK        -0.5000 
    100 CA        -6.5149  -18.5758  -49.9621 C.3       18 UNK         0.1400 
    101 CB        -7.9810  -18.0971  -49.9476 C.3       18 UNK        -0.1800 
    102 C         -5.6494  -17.8637  -51.0269 C.2       18 UNK         0.5000 
    103 O         -6.1139  -16.9424  -51.7003 O.2       18 UNK        -0.5000 
    104 N         -4.4116  -18.3543  -51.1747 N.am      19 UNK        -0.5000 
    105 CA        -3.3766  -17.9748  -52.1408 C.3       19 UNK         0.1400 
    106 CB        -2.9458  -16.5100  -51.9321 C.3       19 UNK        -0.1800 
    107 C         -3.7020  -18.2779  -53.6215 C.2       19 UNK         0.5000 
    108 O         -2.9112  -17.9058  -54.4906 O.2       19 UNK        -0.5000 
    109 N         -4.8183  -18.9634  -53.9105 N.am      20 UNK        -0.5000 
    110 CA        -5.2430  -19.3032  -55.2710 C.3       20 UNK         0.1400 
    111 CB        -6.7070  -19.7634  -55.2644 C.3       20 UNK        -0.1800 
    112 C         -4.3560  -20.3611  -55.9525 C.2       20 UNK         0.5000 
    113 O         -4.2999  -20.3862  -57.1833 O.2       20 UNK        -0.5000 
    114 N         -3.6570  -21.1966  -55.1675 N.am      21 UNK        -0.5000 
    115 CA        -2.7704  -22.2549  -55.6683 C.3       21 UNK         0.1400 
    116 CB        -2.3260  -23.1481  -54.5020 C.3       21 UNK        -0.1800 
    117 C         -1.5468  -21.7385  -56.4562 C.2       21 UNK         0.5000 
    118 O         -0.9622  -22.5030  -57.2250 O.2       21 UNK        -0.5000 
    119 N         -1.1997  -20.4567  -56.2792 N.am      22 UNK        -0.5000 
    120 CA        -0.2038  -19.7395  -57.0914 C.3       22 UNK         0.1400 
    121 C         -0.7278  -19.3101  -58.4963 C.2       22 UNK         0.5000 
    122 N         -2.0099  -19.4488  -58.8172 N.am      22 UNK        -0.7600 
    123 O          0.0532  -18.8487  -59.3241 O.2       22 UNK        -0.5000 
    124 C124        0.3904  -18.5257  -56.3310 C.3       23 UNK        -0.0398 
    125 S125        1.3856  -19.0054  -54.8773 S.3       23 UNK        -0.2404 
    126 C126        0.1604  -18.8102  -53.5472 C.3       23 UNK        -0.0205 
    127 H127       -5.5606  -15.5365  -42.9455 H         1 UNK         0.0600 
    128 H128       -4.2043  -16.6394  -42.6929 H         1 UNK         0.0600 
    129 H129       -3.9274  -14.8916  -42.7912 H         1 UNK         0.0600 
    130 H130       -2.2996  -15.6866  -44.4942 H         1 UNK         0.3000 
    131 H131       -3.4295  -16.4096  -47.1037 H         1 UNK         0.0600 
    132 H132       -0.4681  -15.8610  -46.6257 H         1 UNK         0.0800 
    133 H133       -1.1543  -17.2914  -45.9265 H         1 UNK         0.0800 
    134 H134        0.6385  -16.1768  -49.1529 H         1 UNK         0.0800 
    135 H135        1.1725  -17.3049  -47.9216 H         1 UNK         0.0800 
    136 H136       -0.1278  -17.1500  -51.4162 H         1 UNK         0.1150 
    137 H137        1.7068  -20.8487  -52.5636 H         1 UNK         0.1150 
    138 H138        2.0007  -19.4421  -48.5148 H         1 UNK         0.1150 
    139 H139        2.2341  -22.4261  -50.6181 H         1 UNK         0.0800 
    140 H140        3.7132  -21.5046  -50.7186 H         1 UNK         0.0800 
    141 H141        0.7436  -22.3849  -48.6004 H         1 UNK         0.0800 
    142 H142        1.1036  -21.4347  -47.1834 H         1 UNK         0.0800 
    143 H143        1.6787  -24.4187  -47.5655 H         1 UNK         0.0600 
    144 H144        2.8056  -22.6029  -45.6781 H         1 UNK         0.3000 
    145 H145        3.5060  -24.5030  -43.0547 H         1 UNK         0.0600 
    146 H146        5.7175  -24.7219  -45.1599 H         1 UNK         0.0600 
    147 H147        5.9493  -24.7851  -43.4124 H         1 UNK         0.0600 
    148 H148        5.0491  -26.0533  -44.2240 H         1 UNK         0.0600 
    149 H149        5.1572  -22.5191  -44.3478 H         1 UNK         0.3000 
    150 H150        1.7220  -22.9068  -43.1467 H         1 UNK         0.0600 
    151 H151        2.9661  -23.1012  -40.9856 H         1 UNK         0.0600 
    152 H152        1.3882  -22.3719  -40.7263 H         1 UNK         0.0600 
    153 H153        2.8344  -21.3644  -40.7326 H         1 UNK         0.0600 
    154 H154        1.8793  -19.9711  -42.8717 H         1 UNK         0.3000 
    155 H155       -0.6433  -19.5569  -45.0764 H         1 UNK         0.0600 
    156 H156       -2.3731  -19.7592  -43.3370 H         1 UNK         0.0600 
    157 H157       -1.9602  -18.0677  -43.5601 H         1 UNK         0.0600 
    158 H158       -1.3513  -18.9541  -42.1599 H         1 UNK         0.0600 
    159 H159        0.6510  -17.7824  -43.1548 H         1 UNK         0.3000 
    160 H160        3.7023  -17.6255  -44.5221 H         1 UNK         0.0600 
    161 H161        1.8025  -15.6957  -45.9401 H         1 UNK         0.0600 
    162 H162        3.0668  -16.6697  -46.6937 H         1 UNK         0.0600 
    163 H163        3.4986  -15.3688  -45.5990 H         1 UNK         0.0600 
    164 H164        1.7063  -15.6924  -43.4445 H         1 UNK         0.3000 
    165 H165        2.7364  -16.2334  -40.1196 H         1 UNK         0.0600 
    166 H166        3.2796  -13.8099  -40.0421 H         1 UNK         0.0600 
    167 H167        4.5856  -14.6944  -40.8141 H         1 UNK         0.0600 
    168 H168        3.4583  -13.7672  -41.7972 H         1 UNK         0.0600 
    169 H169        1.0913  -14.2140  -41.2536 H         1 UNK         0.3000 
    170 H170       -1.7702  -16.0622  -42.0082 H         1 UNK         0.0600 
    171 H171       -1.4276  -14.4207  -39.4428 H         1 UNK         0.0600 
    172 H172       -2.9525  -14.7546  -40.2653 H         1 UNK         0.0600 
    173 H173       -2.0475  -16.0655  -39.5273 H         1 UNK         0.0600 
    174 H174       -1.4096  -13.2694  -41.6346 H         1 UNK         0.3000 
    175 H175       -1.7017  -12.2054  -43.9898 H         1 UNK         0.0600 
    176 H176       -0.3998  -11.4185  -42.0778 H         1 UNK         0.0600 
    177 H177        1.1195  -11.8676  -42.8353 H         1 UNK         0.0600 
    178 H178        0.1572  -10.5442  -43.4890 H         1 UNK         0.0600 
    179 H179       -0.9203  -12.3235  -46.0203 H         1 UNK         0.3000 
    180 H180        1.3513  -11.3849  -47.5384 H         1 UNK         0.0600 
    181 H181        2.6377  -12.9444  -48.9369 H         1 UNK         0.0600 
    182 H182        2.4344  -14.2382  -47.7649 H         1 UNK         0.0600 
    183 H183        3.3954  -12.8186  -47.3601 H         1 UNK         0.0600 
    184 H184       -0.0373  -13.9767  -48.0485 H         1 UNK         0.3000 
    185 H185       -3.0154  -12.4052  -48.9744 H         1 UNK         0.0600 
    186 H186       -1.1642  -13.9825  -50.8433 H         1 UNK         0.0600 
    187 H187       -2.8989  -13.7206  -51.0452 H         1 UNK         0.0600 
    188 H188       -1.7876  -12.3707  -51.1757 H         1 UNK         0.0600 
    189 H189       -2.2115  -15.1457  -48.9699 H         1 UNK         0.3000 
    190 H190        0.7453  -25.3751  -45.2613 H         1 UNK         0.3000 
    191 H191       -1.5478  -24.2406  -44.1131 H         1 UNK         0.0600 
    192 H192       -0.4414  -27.0898  -43.9285 H         1 UNK         0.0600 
    193 H193       -1.5728  -26.3616  -42.7934 H         1 UNK         0.0600 
    194 H194        0.0532  -25.7179  -42.9365 H         1 UNK         0.0600 
    195 H195       -1.5920  -25.7089  -47.0832 H         1 UNK         0.3000 
    196 H196       -4.1246  -27.1349  -46.9912 H         1 UNK         0.0600 
    197 H197       -3.8179  -27.1666  -49.4702 H         1 UNK         0.0600 
    198 H198       -2.3700  -27.7147  -48.6415 H         1 UNK         0.0600 
    199 H199       -2.4324  -26.0910  -49.3266 H         1 UNK         0.0600 
    200 H200       -5.0132  -25.2230  -45.7175 H         1 UNK         0.3000 
    201 H201       -6.4464  -23.5466  -45.4249 H         1 UNK         0.0600 
    202 H202       -7.9262  -24.8844  -46.9169 H         1 UNK         0.0600 
    203 H203       -7.3043  -24.0339  -48.3283 H         1 UNK         0.0600 
    204 H204       -8.2280  -23.1659  -47.1096 H         1 UNK         0.0600 
    205 H205       -3.8774  -22.7770  -45.8683 H         1 UNK         0.3000 
    206 H206       -2.4652  -21.1209  -46.3301 H         1 UNK         0.0600 
    207 H207       -4.1408  -19.7087  -45.1080 H         1 UNK         0.0600 
    208 H208       -3.2676  -18.8040  -46.3319 H         1 UNK         0.0600 
    209 H209       -4.9211  -19.3115  -46.6365 H         1 UNK         0.0600 
    210 H210       -2.5255  -22.7491  -48.2741 H         1 UNK         0.3000 
    211 H211       -2.3445  -23.2789  -50.4363 H         1 UNK         0.0600 
    212 H212       -1.5169  -20.3383  -50.6747 H         1 UNK         0.0600 
    213 H213       -1.2162  -21.5564  -51.9022 H         1 UNK         0.0600 
    214 H214       -0.4722  -21.7066  -50.3300 H         1 UNK         0.0600 
    215 H215       -4.9143  -23.0446  -49.7861 H         1 UNK         0.3000 
    216 H216       -7.0301  -22.7159  -50.3667 H         1 UNK         0.0600 
    217 H217       -7.6229  -22.9323  -52.7668 H         1 UNK         0.0600 
    218 H218       -6.3439  -24.0628  -52.3525 H         1 UNK         0.0600 
    219 H219       -5.9653  -22.5899  -53.2425 H         1 UNK         0.0600 
    220 H220       -6.0770  -20.5243  -49.2729 H         1 UNK         0.3000 
    221 H221       -6.0758  -18.3304  -48.9938 H         1 UNK         0.0600 
    222 H222       -8.4772  -18.2773  -50.9016 H         1 UNK         0.0600 
    223 H223       -8.5524  -18.6052  -49.1709 H         1 UNK         0.0600 
    224 H224       -8.0390  -17.0270  -49.7459 H         1 UNK         0.0600 
    225 H225       -4.1313  -19.0848  -50.5220 H         1 UNK         0.3000 
    226 H226       -2.5177  -18.6010  -51.9006 H         1 UNK         0.0600 
    227 H227       -3.7462  -15.8132  -52.1806 H         1 UNK         0.0600 
    228 H228       -2.6528  -16.3341  -50.8977 H         1 UNK         0.0600 
    229 H229       -2.0908  -16.2549  -52.5585 H         1 UNK         0.0600 
    230 H230       -5.4097  -19.2826  -53.1529 H         1 UNK         0.3000 
    231 H231       -5.1838  -18.3932  -55.8718 H         1 UNK         0.0600 
    232 H232       -7.0786  -19.8906  -56.2818 H         1 UNK         0.0600 
    233 H233       -7.3510  -19.0351  -54.7710 H         1 UNK         0.0600 
    234 H234       -6.8245  -20.7200  -54.7549 H         1 UNK         0.0600 
    235 H235       -3.7538  -21.1204  -54.1576 H         1 UNK         0.3000 
    236 H236       -3.3559  -22.8698  -56.3548 H         1 UNK         0.0600 
    237 H237       -1.6918  -22.6030  -53.8058 H         1 UNK         0.0600 
    238 H238       -3.1817  -23.5378  -53.9502 H         1 UNK         0.0600 
    239 H239       -1.7537  -24.0039  -54.8620 H         1 UNK         0.0600 
    240 H240       -1.7514  -19.8924  -55.6488 H         1 UNK         0.3000 
    241 H241        0.6195  -20.4282  -57.2907 H         1 UNK         0.0600 
    242 H242       -2.3173  -19.1682  -59.7349 H         1 UNK         0.3800 
    243 H243       -2.6867  -19.8296  -58.1638 H         1 UNK         0.3800 
    244 H244       -0.3999  -17.8334  -56.0353 H         1 UNK         0.0800 
    245 H245        1.0555  -17.9558  -56.9823 H         1 UNK         0.0800 
    246 H246       -0.3059  -17.8291  -53.6463 H         1 UNK         0.0800 
    247 H247       -0.6319  -19.5485  -53.6729 H         1 UNK         0.0800 
@<TRIPOS>BOND
     1    1    2 1    
     2    1  127 1    
     3    1  128 1    
     4    1  129 1    
     5    2    3 2    
     6    2    4 am   BACKBONE|DICT|INTERRES
     7    4    5 1    
     8    4  130 1    
     9    5    6 1    
    10    5   65 1    
    11    5  131 1    
    12    6    7 1    
    13    6  132 1    
    14    6  133 1    
    15    7    8 1    
    16    8    9 1    
    17    8  134 1    
    18    8  135 1    
    19    9   10 ar   
    20    9   14 ar   
    21   10   11 ar   
    22   10  136 1    
    23   11   12 ar   
    24   11  126 1    
    25   12   13 ar   
    26   12  137 1    
    27   13   14 ar   
    28   13   15 1    
    29   14  138 1    
    30   15   16 1    
    31   15  139 1    
    32   15  140 1    
    33   16   17 1    
    34   17   18 1    
    35   17  141 1    
    36   17  142 1    
    37   18   19 1    
    38   18   67 1    
    39   18  143 1    
    40   19   20 am   BACKBONE|DICT|INTERRES
    41   19  144 1    
    42   20   21 2    
    43   20   22 1    
    44   22   23 1    
    45   22   24 1    
    46   22  145 1    
    47   23  146 1    
    48   23  147 1    
    49   23  148 1    
    50   24   25 am   BACKBONE|DICT|INTERRES
    51   24  149 1    
    52   25   26 2    
    53   25   27 1    
    54   27   28 1    
    55   27   29 1    
    56   27  150 1    
    57   28  151 1    
    58   28  152 1    
    59   28  153 1    
    60   29   30 am   BACKBONE|DICT|INTERRES
    61   29  154 1    
    62   30   31 2    
    63   30   32 1    
    64   32   33 1    
    65   32   34 1    
    66   32  155 1    
    67   33  156 1    
    68   33  157 1    
    69   33  158 1    
    70   34   35 am   BACKBONE|DICT|INTERRES
    71   34  159 1    
    72   35   36 2    
    73   35   37 1    
    74   37   38 1    
    75   37   39 1    
    76   37  160 1    
    77   38  161 1    
    78   38  162 1    
    79   38  163 1    
    80   39   40 am   BACKBONE|DICT|INTERRES
    81   39  164 1    
    82   40   41 2    
    83   40   42 1    
    84   42   43 1    
    85   42   44 1    
    86   42  165 1    
    87   43  166 1    
    88   43  167 1    
    89   43  168 1    
    90   44   45 am   BACKBONE|DICT|INTERRES
    91   44  169 1    
    92   45   46 2    
    93   45   47 1    
    94   47   48 1    
    95   47   49 1    
    96   47  170 1    
    97   48  171 1    
    98   48  172 1    
    99   48  173 1    
   100   49   50 am   BACKBONE|DICT|INTERRES
   101   49  174 1    
   102   50   51 2    
   103   50   52 1    
   104   52   53 1    
   105   52   54 1    
   106   52  175 1    
   107   53  176 1    
   108   53  177 1    
   109   53  178 1    
   110   54   55 am   BACKBONE|DICT|INTERRES
   111   54  179 1    
   112   55   56 2    
   113   55   57 1    
   114   57   58 1    
   115   57   59 1    
   116   57  180 1    
   117   58  181 1    
   118   58  182 1    
   119   58  183 1    
   120   59   60 am   BACKBONE|DICT|INTERRES
   121   59  184 1    
   122   60   61 2    
   123   60   62 1    
   124   62   63 1    
   125   62   64 1    
   126   62  185 1    
   127   63  186 1    
   128   63  187 1    
   129   63  188 1    
   130   64   65 am   BACKBONE|DICT|INTERRES
   131   64  189 1    
   132   65   66 2    
   133   67   68 2    
   134   67   69 am   BACKBONE|DICT|INTERRES
   135   69   70 1    
   136   69  190 1    
   137   70   71 1    
   138   70   72 1    
   139   70  191 1    
   140   71  192 1    
   141   71  193 1    
   142   71  194 1    
   143   72   73 2    
   144   72   74 am   BACKBONE|DICT|INTERRES
   145   74   75 1    
   146   74  195 1    
   147   75   76 1    
   148   75   77 1    
   149   75  196 1    
   150   76  197 1    
   151   76  198 1    
   152   76  199 1    
   153   77   78 2    
   154   77   79 am   BACKBONE|DICT|INTERRES
   155   79   80 1    
   156   79  200 1    
   157   80   81 1    
   158   80   82 1    
   159   80  201 1    
   160   81  202 1    
   161   81  203 1    
   162   81  204 1    
   163   82   83 2    
   164   82   84 am   BACKBONE|DICT|INTERRES
   165   84   85 1    
   166   84  205 1    
   167   85   86 1    
   168   85   87 1    
   169   85  206 1    
   170   86  207 1    
   171   86  208 1    
   172   86  209 1    
   173   87   88 2    
   174   87   89 am   BACKBONE|DICT|INTERRES
   175   89   90 1    
   176   89  210 1    
   177   90   91 1    
   178   90   92 1    
   179   90  211 1    
   180   91  212 1    
   181   91  213 1    
   182   91  214 1    
   183   92   93 2    
   184   92   94 am   BACKBONE|DICT|INTERRES
   185   94   95 1    
   186   94  215 1    
   187   95   96 1    
   188   95   97 1    
   189   95  216 1    
   190   96  217 1    
   191   96  218 1    
   192   96  219 1    
   193   97   98 2    
   194   97   99 am   BACKBONE|DICT|INTERRES
   195   99  100 1    
   196   99  220 1    
   197  100  101 1    
   198  100  102 1    
   199  100  221 1    
   200  101  222 1    
   201  101  223 1    
   202  101  224 1    
   203  102  103 2    
   204  102  104 am   BACKBONE|DICT|INTERRES
   205  104  105 1    
   206  104  225 1    
   207  105  106 1    
   208  105  107 1    
   209  105  226 1    
   210  106  227 1    
   211  106  228 1    
   212  106  229 1    
   213  107  108 2    
   214  107  109 am   BACKBONE|DICT|INTERRES
   215  109  110 1    
   216  109  230 1    
   217  110  111 1    
   218  110  112 1    
   219  110  231 1    
   220  111  232 1    
   221  111  233 1    
   222  111  234 1    
   223  112  113 2    
   224  112  114 am   BACKBONE|DICT|INTERRES
   225  114  115 1    
   226  114  235 1    
   227  115  116 1    
   228  115  117 1    
   229  115  236 1    
   230  116  237 1    
   231  116  238 1    
   232  116  239 1    
   233  117  118 2    
   234  117  119 am   BACKBONE|DICT|INTERRES
   235  119  120 1    
   236  119  240 1    
   237  120  121 1    
   238  120  124 1    
   239  120  241 1    
   240  121  122 am   BACKBONE|DICT|INTERRES
   241  121  123 2    
   242  122  242 1    
   243  122  243 1    
   244  124  125 1    
   245  124  244 1    
   246  124  245 1    
   247  125  126 1    
   248  126  246 1    
   249  126  247 1    
@<TRIPOS>SUBSTRUCTURE
     1 UNK         1 GROUP             0       ****    0 ROOT    
