@<TRIPOS>MOLECULE
3R540
247   249    1
SMALL
USER_CHARGES


@<TRIPOS>ATOM
      1 CA         -2.8899  -18.9226  -44.9372 C.3       0 UNK        -0.1800 
      2 C          -2.6516  -17.7736  -45.9026 C.2       0 UNK         0.5000 
      3 O          -3.5987  -17.0995  -46.3077 O.2       0 UNK        -0.5000 
      4 N          -1.3847  -17.5502  -46.2670 N.am      1 UNK        -0.5000 
      5 CA         -0.9382  -16.4304  -47.0971 C.3       1 UNK         0.1400 
      6 C6          0.5270  -16.6406  -47.5432 C.3       23 UNK        -0.0398 
      7 S7          0.9654  -15.7020  -49.0445 S.3       23 UNK        -0.2404 
      8 C8          2.7029  -16.1965  -49.2736 C.3       23 UNK        -0.0205 
      9 C9          2.8397  -17.6683  -49.6388 C.ar      23 UNK        -0.0193 
     10 C10         2.7327  -18.0824  -50.9689 C.ar      23 UNK        -0.1150 
     11 C11         2.8695  -19.4332  -51.3023 C.ar      23 UNK        -0.0193 
     12 C12         3.1084  -20.3727  -50.2947 C.ar      23 UNK        -0.1150 
     13 C13         3.1971  -19.9748  -48.9551 C.ar      23 UNK        -0.0193 
     14 C14         3.0803  -18.6186  -48.6437 C.ar      23 UNK        -0.1150 
     15 C15         3.4256  -20.9743  -47.8216 C.3       23 UNK        -0.0205 
     16 S16         2.6247  -22.5981  -48.0539 S.3       23 UNK        -0.2404 
     17 C17         0.8751  -22.1460  -48.3008 C.3       23 UNK        -0.0398 
     18 CA         -0.0294  -22.6321  -47.1459 C.3       11 UNK         0.1400 
     19 N           0.1538  -21.8419  -45.9286 N.am      11 UNK        -0.5000 
     20 C          -0.2193  -22.2366  -44.7064 C.2       10 UNK         0.5000 
     21 O          -0.6559  -23.3645  -44.4691 O.2       10 UNK        -0.5000 
     22 CA         -0.0842  -21.2034  -43.5675 C.3       10 UNK         0.1400 
     23 CB         -0.3325  -21.8112  -42.1761 C.3       10 UNK        -0.1800 
     24 N           1.2081  -20.5214  -43.5529 N.am      10 UNK        -0.5000 
     25 C           1.5743  -19.4877  -44.3187 C.2       9 UNK         0.5000 
     26 O           0.8812  -19.0630  -45.2469 O.2       9 UNK        -0.5000 
     27 CA          2.9340  -18.8257  -43.9903 C.3       9 UNK         0.1400 
     28 CB          3.0358  -17.3965  -44.5491 C.3       9 UNK        -0.1800 
     29 N           3.2047  -18.7628  -42.5523 N.am      9 UNK        -0.5000 
     30 C           3.6387  -19.7627  -41.7742 C.2       8 UNK         0.5000 
     31 O           3.8695  -20.8982  -42.1895 O.2       8 UNK        -0.5000 
     32 CA          3.7679  -19.4529  -40.2745 C.3       8 UNK         0.1400 
     33 CB          5.0624  -18.6775  -39.9829 C.3       8 UNK        -0.1800 
     34 N           2.6138  -18.6795  -39.8151 N.am      8 UNK        -0.5000 
     35 C           1.4607  -19.2211  -39.3974 C.2       7 UNK         0.5000 
     36 O           1.2909  -20.4319  -39.2526 O.2       7 UNK        -0.5000 
     37 CA          0.2967  -18.2583  -39.0868 C.3       7 UNK         0.1400 
     38 CB          0.2663  -17.9201  -37.5886 C.3       7 UNK        -0.1800 
     39 N           0.3552  -17.0129  -39.8535 N.am      7 UNK        -0.5000 
     40 C           0.0960  -16.9081  -41.1647 C.2       6 UNK         0.5000 
     41 O          -0.2882  -17.8467  -41.8612 O.2       6 UNK        -0.5000 
     42 CA          0.3295  -15.5255  -41.8105 C.3       6 UNK         0.1400 
     43 CB         -0.9825  -14.7278  -41.8426 C.3       6 UNK        -0.1800 
     44 N           1.3666  -14.7119  -41.1600 N.am      6 UNK        -0.5000 
     45 C           2.6421  -15.0774  -40.9703 C.2       5 UNK         0.5000 
     46 O           3.0893  -16.1709  -41.3180 O.2       5 UNK        -0.5000 
     47 CA          3.5565  -14.0414  -40.2959 C.3       5 UNK         0.1400 
     48 CB          4.9898  -14.5611  -40.0813 C.3       5 UNK        -0.1800 
     49 N           3.6017  -12.8491  -41.1343 N.am      5 UNK        -0.5000 
     50 C           3.2166  -11.6177  -40.7768 C.2       4 UNK         0.5000 
     51 O           2.8390  -11.3166  -39.6441 O.2       4 UNK        -0.5000 
     52 CA          3.2326  -10.5438  -41.8861 C.3       4 UNK         0.1400 
     53 CB          4.5312   -9.7253  -41.8238 C.3       4 UNK        -0.1800 
     54 N           3.0850  -11.1075  -43.2333 N.am      4 UNK        -0.5000 
     55 C           1.9759  -11.7108  -43.6808 C.2       3 UNK         0.5000 
     56 O           0.9320  -11.7863  -43.0276 O.2       3 UNK        -0.5000 
     57 CA          2.0865  -12.3937  -45.0550 C.3       3 UNK         0.1400 
     58 CB          2.9410  -13.6690  -44.9509 C.3       3 UNK        -0.1800 
     59 N           0.7694  -12.7776  -45.5463 N.am      3 UNK        -0.5000 
     60 C          -0.0668  -12.0102  -46.2500 C.2       2 UNK         0.5000 
     61 O           0.2205  -10.8774  -46.6424 O.2       2 UNK        -0.5000 
     62 CA         -1.4458  -12.6312  -46.5797 C.3       2 UNK         0.1400 
     63 CB         -2.2461  -11.7942  -47.5940 C.3       2 UNK        -0.1800 
     64 N          -1.3455  -14.0062  -47.0831 N.am      2 UNK        -0.5000 
     65 C          -1.0940  -15.0935  -46.3429 C.2       1 UNK         0.5000 
     66 O          -0.9197  -15.0539  -45.1224 O.2       1 UNK        -0.5000 
     67 C          -1.5095  -22.5771  -47.5657 C.2       11 UNK         0.5000 
     68 O          -2.0322  -21.4877  -47.8079 O.2       11 UNK        -0.5000 
     69 N          -2.1513  -23.7462  -47.6834 N.am      12 UNK        -0.5000 
     70 CA         -3.5602  -23.8795  -48.0648 C.3       12 UNK         0.1400 
     71 CB         -4.0220  -25.3174  -47.7972 C.3       12 UNK        -0.1800 
     72 C          -3.8498  -23.4739  -49.5235 C.2       12 UNK         0.5000 
     73 O          -4.9810  -23.0986  -49.8344 O.2       12 UNK        -0.5000 
     74 N          -2.8336  -23.5414  -50.3943 N.am      13 UNK        -0.5000 
     75 CA         -2.8990  -23.0391  -51.7679 C.3       13 UNK         0.1400 
     76 CB         -1.7389  -23.6256  -52.5840 C.3       13 UNK        -0.1800 
     77 C          -2.8781  -21.4999  -51.8141 C.2       13 UNK         0.5000 
     78 O          -3.6013  -20.9082  -52.6131 O.2       13 UNK        -0.5000 
     79 N          -2.0904  -20.8792  -50.9232 N.am      14 UNK        -0.5000 
     80 CA         -2.0048  -19.4256  -50.7593 C.3       14 UNK         0.1400 
     81 CB         -0.7499  -19.0725  -49.9530 C.3       14 UNK        -0.1800 
     82 C          -3.2597  -18.8462  -50.0824 C.2       14 UNK         0.5000 
     83 O          -3.6813  -17.7412  -50.4223 O.2       14 UNK        -0.5000 
     84 N          -3.8620  -19.6325  -49.1782 N.am      15 UNK        -0.5000 
     85 CA         -5.1622  -19.3729  -48.5536 C.3       15 UNK         0.1400 
     86 CB         -5.3535  -20.3584  -47.3894 C.3       15 UNK        -0.1800 
     87 C          -6.3503  -19.4940  -49.5319 C.2       15 UNK         0.5000 
     88 O          -7.4621  -19.1020  -49.1763 O.2       15 UNK        -0.5000 
     89 N          -6.0975  -20.0543  -50.7239 N.am      16 UNK        -0.5000 
     90 CA         -7.0432  -20.3588  -51.7973 C.3       16 UNK         0.1400 
     91 CB         -7.6813  -19.0746  -52.3661 C.3       16 UNK        -0.1800 
     92 C          -8.0767  -21.4342  -51.3945 C.2       16 UNK         0.5000 
     93 O          -9.2331  -21.3685  -51.8170 O.2       16 UNK        -0.5000 
     94 N          -7.6439  -22.3964  -50.5680 N.am      17 UNK        -0.5000 
     95 CA         -8.4649  -23.4857  -50.0460 C.3       17 UNK         0.1400 
     96 CB         -8.2076  -23.6289  -48.5366 C.3       17 UNK        -0.1800 
     97 C          -8.1700  -24.8050  -50.7769 C.2       17 UNK         0.5000 
     98 O          -9.1059  -25.4813  -51.2050 O.2       17 UNK        -0.5000 
     99 N          -6.8815  -25.1529  -50.9070 N.am      18 UNK        -0.5000 
    100 CA        -6.4285  -26.4045  -51.5296 C.3       18 UNK         0.1400 
    101 CB        -5.0846  -26.8188  -50.9123 C.3       18 UNK        -0.1800 
    102 C         -6.3004  -26.3139  -53.0612 C.2       18 UNK         0.5000 
    103 O         -6.2497  -27.3465  -53.7306 O.2       18 UNK        -0.5000 
    104 N         -6.2374  -25.0886  -53.5840 N.am      19 UNK        -0.5000 
    105 CA        -6.0960  -24.7384  -54.9909 C.3       19 UNK         0.1400 
    106 CB        -4.6270  -24.9076  -55.4214 C.3       19 UNK        -0.1800 
    107 C         -6.5652  -23.2856  -55.1478 C.2       19 UNK         0.5000 
    108 O         -6.8370  -22.6282  -54.1423 O.2       19 UNK        -0.5000 
    109 N         -6.6466  -22.7943  -56.3897 N.am      20 UNK        -0.5000 
    110 CA        -6.9992  -21.4004  -56.6856 C.3       20 UNK         0.1400 
    111 CB        -7.3294  -21.2721  -58.1807 C.3       20 UNK        -0.1800 
    112 C         -5.8945  -20.3979  -56.2891 C.2       20 UNK         0.5000 
    113 O         -6.2012  -19.2503  -55.9652 O.2       20 UNK        -0.5000 
    114 N         -4.6393  -20.8562  -56.3250 N.am      21 UNK        -0.5000 
    115 CA        -3.4146  -20.1364  -55.9954 C.3       21 UNK         0.1400 
    116 CB        -3.1246  -19.0576  -57.0605 C.3       21 UNK        -0.1800 
    117 C         -2.2756  -21.1688  -55.9213 C.2       21 UNK         0.5000 
    118 O         -2.5094  -22.3548  -56.1729 O.2       21 UNK        -0.5000 
    119 N         -1.0578  -20.7061  -55.6129 N.am      22 UNK        -0.5000 
    120 CA         0.1701  -21.5247  -55.6101 C.3       22 UNK         0.1400 
    121 C          0.6045  -22.0692  -57.0059 C.2       22 UNK         0.5000 
    122 N          0.1148  -21.5317  -58.1169 N.am      22 UNK        -0.7600 
    123 O          1.4039  -22.9984  -57.0797 O.2       22 UNK        -0.5000 
    124 C124        1.3585  -20.7809  -54.9514 C.3       23 UNK        -0.0398 
    125 S125        1.0706  -20.3330  -53.2086 S.3       23 UNK        -0.2404 
    126 C126        2.7722  -19.8773  -52.7515 C.3       23 UNK        -0.0205 
    127 H127       -2.4025  -18.7177  -43.9838 H         1 UNK         0.0600 
    128 H128       -2.4940  -19.8514  -45.3482 H         1 UNK         0.0600 
    129 H129       -3.9551  -19.0581  -44.7500 H         1 UNK         0.0600 
    130 H130       -0.6418  -18.1152  -45.8626 H         1 UNK         0.3000 
    131 H131       -1.5795  -16.4122  -47.9814 H         1 UNK         0.0600 
    132 H132        1.2247  -16.3935  -46.7421 H         1 UNK         0.0800 
    133 H133        0.6841  -17.6962  -47.7632 H         1 UNK         0.0800 
    134 H134        3.2671  -15.9731  -48.3666 H         1 UNK         0.0800 
    135 H135        3.1416  -15.5828  -50.0616 H         1 UNK         0.0800 
    136 H136        2.5426  -17.3532  -51.7439 H         1 UNK         0.1150 
    137 H137        3.2131  -21.4157  -50.5573 H         1 UNK         0.1150 
    138 H138        3.1643  -18.3016  -47.6167 H         1 UNK         0.1150 
    139 H139        4.4991  -21.1281  -47.7069 H         1 UNK         0.0800 
    140 H140        3.0703  -20.5590  -46.8776 H         1 UNK         0.0800 
    141 H141        0.5724  -22.5942  -49.2490 H         1 UNK         0.0800 
    142 H142        0.7765  -21.0686  -48.4321 H         1 UNK         0.0800 
    143 H143        0.2282  -23.6712  -46.9285 H         1 UNK         0.0600 
    144 H144        0.4647  -20.8841  -46.0418 H         1 UNK         0.3000 
    145 H145       -0.8578  -20.4545  -43.7296 H         1 UNK         0.0600 
    146 H146       -0.3193  -21.0392  -41.4068 H         1 UNK         0.0600 
    147 H147       -1.3079  -22.2964  -42.1236 H         1 UNK         0.0600 
    148 H148        0.4232  -22.5547  -41.9201 H         1 UNK         0.0600 
    149 H149        1.8783  -20.8470  -42.8675 H         1 UNK         0.3000 
    150 H150        3.7103  -19.4300  -44.4633 H         1 UNK         0.0600 
    151 H151        3.0093  -17.3939  -45.6356 H         1 UNK         0.0600 
    152 H152        3.9688  -16.9174  -44.2511 H         1 UNK         0.0600 
    153 H153        2.2136  -16.7737  -44.1985 H         1 UNK         0.0600 
    154 H154        3.0510  -17.8572  -42.1164 H         1 UNK         0.3000 
    155 H155        3.8155  -20.3999  -39.7325 H         1 UNK         0.0600 
    156 H156        5.1092  -17.7377  -40.5331 H         1 UNK         0.0600 
    157 H157        5.9370  -19.2642  -40.2664 H         1 UNK         0.0600 
    158 H158        5.1541  -18.4490  -38.9211 H         1 UNK         0.0600 
    159 H159        2.6571  -17.6799  -39.9685 H         1 UNK         0.3000 
    160 H160       -0.6327  -18.7734  -39.3394 H         1 UNK         0.0600 
    161 H161        1.1664  -17.3887  -37.2770 H         1 UNK         0.0600 
    162 H162        0.1946  -18.8261  -36.9852 H         1 UNK         0.0600 
    163 H163       -0.5945  -17.2982  -37.3417 H         1 UNK         0.0600 
    164 H164        0.6490  -16.1854  -39.3563 H         1 UNK         0.3000 
    165 H165        0.6443  -15.6977  -42.8406 H         1 UNK         0.0600 
    166 H166       -0.8643  -13.7980  -42.3992 H         1 UNK         0.0600 
    167 H167       -1.7723  -15.2965  -42.3357 H         1 UNK         0.0600 
    168 H168       -1.3300  -14.4802  -40.8391 H         1 UNK         0.0600 
    169 H169        1.0888  -13.7819  -40.8792 H         1 UNK         0.3000 
    170 H170        3.1246  -13.8171  -39.3186 H         1 UNK         0.0600 
    171 H171        4.9935  -15.4423  -39.4388 H         1 UNK         0.0600 
    172 H172        5.4663  -14.8363  -41.0232 H         1 UNK         0.0600 
    173 H173        5.6123  -13.8068  -39.5999 H         1 UNK         0.0600 
    174 H174        3.8736  -12.9978  -42.0950 H         1 UNK         0.3000 
    175 H175        2.3930   -9.8695  -41.7045 H         1 UNK         0.0600 
    176 H176        5.4082  -10.3454  -42.0133 H         1 UNK         0.0600 
    177 H177        4.5247   -8.9180  -42.5564 H         1 UNK         0.0600 
    178 H178        4.6582   -9.2690  -40.8411 H         1 UNK         0.0600 
    179 H179        3.9022  -11.0750  -43.8261 H         1 UNK         0.3000 
    180 H180        2.5556  -11.7032  -45.7590 H         1 UNK         0.0600 
    181 H181        2.5424  -14.3576  -44.2049 H         1 UNK         0.0600 
    182 H182        3.9685  -13.4376  -44.6690 H         1 UNK         0.0600 
    183 H183        2.9804  -14.1972  -45.9042 H         1 UNK         0.0600 
    184 H184        0.4017  -13.6622  -45.2101 H         1 UNK         0.3000 
    185 H185       -2.0127  -12.6476  -45.6465 H         1 UNK         0.0600 
    186 H186       -2.4047  -10.7790  -47.2279 H         1 UNK         0.0600 
    187 H187       -1.7297  -11.7225  -48.5521 H         1 UNK         0.0600 
    188 H188       -3.2300  -12.2277  -47.7741 H         1 UNK         0.0600 
    189 H189       -1.4128  -14.1117  -48.0854 H         1 UNK         0.3000 
    190 H190       -1.6647  -24.6016  -47.4549 H         1 UNK         0.3000 
    191 H191       -4.1430  -23.2177  -47.4221 H         1 UNK         0.0600 
    192 H192       -5.0797  -25.4383  -48.0346 H         1 UNK         0.0600 
    193 H193       -3.8976  -25.5812  -46.7468 H         1 UNK         0.0600 
    194 H194       -3.4602  -26.0383  -48.3921 H         1 UNK         0.0600 
    195 H195       -1.9475  -23.9043  -50.0768 H         1 UNK         0.3000 
    196 H196       -3.8349  -23.3765  -52.2197 H         1 UNK         0.0600 
    197 H197       -0.7688  -23.3030  -52.2035 H         1 UNK         0.0600 
    198 H198       -1.7611  -24.7154  -52.5744 H         1 UNK         0.0600 
    199 H199       -1.8046  -23.3119  -53.6257 H         1 UNK         0.0600 
    200 H200       -1.5651  -21.4352  -50.2672 H         1 UNK         0.3000 
    201 H201       -1.9107  -18.9765  -51.7505 H         1 UNK         0.0600 
    202 H202        0.1363  -19.5562  -50.3609 H         1 UNK         0.0600 
    203 H203       -0.8420  -19.3587  -48.9053 H         1 UNK         0.0600 
    204 H204       -0.5742  -17.9985  -49.9851 H         1 UNK         0.0600 
    205 H205       -3.3808  -20.4766  -48.8867 H         1 UNK         0.3000 
    206 H206       -5.1528  -18.3559  -48.1579 H         1 UNK         0.0600 
    207 H207       -4.4720  -20.4073  -46.7526 H         1 UNK         0.0600 
    208 H208       -6.1943  -20.0585  -46.7631 H         1 UNK         0.0600 
    209 H209       -5.5611  -21.3662  -47.7484 H         1 UNK         0.0600 
    210 H210       -5.1451  -20.3385  -50.9078 H         1 UNK         0.3000 
    211 H211       -6.4314  -20.7845  -52.5893 H         1 UNK         0.0600 
    212 H212       -8.2484  -19.2931  -53.2717 H         1 UNK         0.0600 
    213 H213       -6.9195  -18.3420  -52.6329 H         1 UNK         0.0600 
    214 H214       -8.3646  -18.6089  -51.6557 H         1 UNK         0.0600 
    215 H215       -6.6669  -22.3990  -50.2883 H         1 UNK         0.3000 
    216 H216       -9.5249  -23.2599  -50.1802 H         1 UNK         0.0600 
    217 H217       -7.1624  -23.8495  -48.3182 H         1 UNK         0.0600 
    218 H218       -8.8091  -24.4340  -48.1126 H         1 UNK         0.0600 
    219 H219       -8.4703  -22.7129  -48.0070 H         1 UNK         0.0600 
    220 H220       -6.1696  -24.5309  -50.5407 H         1 UNK         0.3000 
    221 H221       -7.1504  -27.1950  -51.3129 H         1 UNK         0.0600 
    222 H222       -5.1910  -27.0177  -49.8470 H         1 UNK         0.0600 
    223 H223       -4.3225  -26.0512  -51.0471 H         1 UNK         0.0600 
    224 H224       -4.7085  -27.7349  -51.3697 H         1 UNK         0.0600 
    225 H225       -6.3722  -24.2856  -52.9817 H         1 UNK         0.3000 
    226 H226       -6.7423  -25.3785  -55.5947 H         1 UNK         0.0600 
    227 H227       -3.9626  -24.2814  -54.8249 H         1 UNK         0.0600 
    228 H228       -4.2968  -25.9405  -55.3110 H         1 UNK         0.0600 
    229 H229       -4.4835  -24.6357  -56.4675 H         1 UNK         0.0600 
    230 H230       -6.4215  -23.3857  -57.1767 H         1 UNK         0.3000 
    231 H231       -7.8959  -21.1437  -56.1169 H         1 UNK         0.0600 
    232 H232       -6.4740  -21.5313  -58.8059 H         1 UNK         0.0600 
    233 H233       -7.6201  -20.2506  -58.4297 H         1 UNK         0.0600 
    234 H234       -8.1594  -21.9218  -58.4590 H         1 UNK         0.0600 
    235 H235       -4.4736  -21.8291  -56.5535 H         1 UNK         0.3000 
    236 H236       -3.5270  -19.6712  -55.0146 H         1 UNK         0.0600 
    237 H237       -3.9278  -18.3232  -57.1162 H         1 UNK         0.0600 
    238 H238       -2.2119  -18.5065  -56.8327 H         1 UNK         0.0600 
    239 H239       -3.0070  -19.4965  -58.0520 H         1 UNK         0.0600 
    240 H240       -0.9366  -19.7264  -55.4032 H         1 UNK         0.3000 
    241 H241       -0.0377  -22.4074  -55.0030 H         1 UNK         0.0600 
    242 H242        0.4025  -21.8962  -59.0117 H         1 UNK         0.3800 
    243 H243       -0.5402  -20.7683  -58.0749 H         1 UNK         0.3800 
    244 H244        1.5950  -19.8730  -55.5090 H         1 UNK         0.0800 
    245 H245        2.2553  -21.4028  -54.9863 H         1 UNK         0.0800 
    246 H246        3.1222  -19.0799  -53.4091 H         1 UNK         0.0800 
    247 H247        3.4346  -20.7278  -52.9203 H         1 UNK         0.0800 
@<TRIPOS>BOND
     1    1    2 1    
     2    1  127 1    
     3    1  128 1    
     4    1  129 1    
     5    2    3 2    
     6    2    4 am   BACKBONE|DICT|INTERRES
     7    4    5 1    
     8    4  130 1    
     9    5    6 1    
    10    5   65 1    
    11    5  131 1    
    12    6    7 1    
    13    6  132 1    
    14    6  133 1    
    15    7    8 1    
    16    8    9 1    
    17    8  134 1    
    18    8  135 1    
    19    9   10 ar   
    20    9   14 ar   
    21   10   11 ar   
    22   10  136 1    
    23   11   12 ar   
    24   11  126 1    
    25   12   13 ar   
    26   12  137 1    
    27   13   14 ar   
    28   13   15 1    
    29   14  138 1    
    30   15   16 1    
    31   15  139 1    
    32   15  140 1    
    33   16   17 1    
    34   17   18 1    
    35   17  141 1    
    36   17  142 1    
    37   18   19 1    
    38   18   67 1    
    39   18  143 1    
    40   19   20 am   BACKBONE|DICT|INTERRES
    41   19  144 1    
    42   20   21 2    
    43   20   22 1    
    44   22   23 1    
    45   22   24 1    
    46   22  145 1    
    47   23  146 1    
    48   23  147 1    
    49   23  148 1    
    50   24   25 am   BACKBONE|DICT|INTERRES
    51   24  149 1    
    52   25   26 2    
    53   25   27 1    
    54   27   28 1    
    55   27   29 1    
    56   27  150 1    
    57   28  151 1    
    58   28  152 1    
    59   28  153 1    
    60   29   30 am   BACKBONE|DICT|INTERRES
    61   29  154 1    
    62   30   31 2    
    63   30   32 1    
    64   32   33 1    
    65   32   34 1    
    66   32  155 1    
    67   33  156 1    
    68   33  157 1    
    69   33  158 1    
    70   34   35 am   BACKBONE|DICT|INTERRES
    71   34  159 1    
    72   35   36 2    
    73   35   37 1    
    74   37   38 1    
    75   37   39 1    
    76   37  160 1    
    77   38  161 1    
    78   38  162 1    
    79   38  163 1    
    80   39   40 am   BACKBONE|DICT|INTERRES
    81   39  164 1    
    82   40   41 2    
    83   40   42 1    
    84   42   43 1    
    85   42   44 1    
    86   42  165 1    
    87   43  166 1    
    88   43  167 1    
    89   43  168 1    
    90   44   45 am   BACKBONE|DICT|INTERRES
    91   44  169 1    
    92   45   46 2    
    93   45   47 1    
    94   47   48 1    
    95   47   49 1    
    96   47  170 1    
    97   48  171 1    
    98   48  172 1    
    99   48  173 1    
   100   49   50 am   BACKBONE|DICT|INTERRES
   101   49  174 1    
   102   50   51 2    
   103   50   52 1    
   104   52   53 1    
   105   52   54 1    
   106   52  175 1    
   107   53  176 1    
   108   53  177 1    
   109   53  178 1    
   110   54   55 am   BACKBONE|DICT|INTERRES
   111   54  179 1    
   112   55   56 2    
   113   55   57 1    
   114   57   58 1    
   115   57   59 1    
   116   57  180 1    
   117   58  181 1    
   118   58  182 1    
   119   58  183 1    
   120   59   60 am   BACKBONE|DICT|INTERRES
   121   59  184 1    
   122   60   61 2    
   123   60   62 1    
   124   62   63 1    
   125   62   64 1    
   126   62  185 1    
   127   63  186 1    
   128   63  187 1    
   129   63  188 1    
   130   64   65 am   BACKBONE|DICT|INTERRES
   131   64  189 1    
   132   65   66 2    
   133   67   68 2    
   134   67   69 am   BACKBONE|DICT|INTERRES
   135   69   70 1    
   136   69  190 1    
   137   70   71 1    
   138   70   72 1    
   139   70  191 1    
   140   71  192 1    
   141   71  193 1    
   142   71  194 1    
   143   72   73 2    
   144   72   74 am   BACKBONE|DICT|INTERRES
   145   74   75 1    
   146   74  195 1    
   147   75   76 1    
   148   75   77 1    
   149   75  196 1    
   150   76  197 1    
   151   76  198 1    
   152   76  199 1    
   153   77   78 2    
   154   77   79 am   BACKBONE|DICT|INTERRES
   155   79   80 1    
   156   79  200 1    
   157   80   81 1    
   158   80   82 1    
   159   80  201 1    
   160   81  202 1    
   161   81  203 1    
   162   81  204 1    
   163   82   83 2    
   164   82   84 am   BACKBONE|DICT|INTERRES
   165   84   85 1    
   166   84  205 1    
   167   85   86 1    
   168   85   87 1    
   169   85  206 1    
   170   86  207 1    
   171   86  208 1    
   172   86  209 1    
   173   87   88 2    
   174   87   89 am   BACKBONE|DICT|INTERRES
   175   89   90 1    
   176   89  210 1    
   177   90   91 1    
   178   90   92 1    
   179   90  211 1    
   180   91  212 1    
   181   91  213 1    
   182   91  214 1    
   183   92   93 2    
   184   92   94 am   BACKBONE|DICT|INTERRES
   185   94   95 1    
   186   94  215 1    
   187   95   96 1    
   188   95   97 1    
   189   95  216 1    
   190   96  217 1    
   191   96  218 1    
   192   96  219 1    
   193   97   98 2    
   194   97   99 am   BACKBONE|DICT|INTERRES
   195   99  100 1    
   196   99  220 1    
   197  100  101 1    
   198  100  102 1    
   199  100  221 1    
   200  101  222 1    
   201  101  223 1    
   202  101  224 1    
   203  102  103 2    
   204  102  104 am   BACKBONE|DICT|INTERRES
   205  104  105 1    
   206  104  225 1    
   207  105  106 1    
   208  105  107 1    
   209  105  226 1    
   210  106  227 1    
   211  106  228 1    
   212  106  229 1    
   213  107  108 2    
   214  107  109 am   BACKBONE|DICT|INTERRES
   215  109  110 1    
   216  109  230 1    
   217  110  111 1    
   218  110  112 1    
   219  110  231 1    
   220  111  232 1    
   221  111  233 1    
   222  111  234 1    
   223  112  113 2    
   224  112  114 am   BACKBONE|DICT|INTERRES
   225  114  115 1    
   226  114  235 1    
   227  115  116 1    
   228  115  117 1    
   229  115  236 1    
   230  116  237 1    
   231  116  238 1    
   232  116  239 1    
   233  117  118 2    
   234  117  119 am   BACKBONE|DICT|INTERRES
   235  119  120 1    
   236  119  240 1    
   237  120  121 1    
   238  120  124 1    
   239  120  241 1    
   240  121  122 am   BACKBONE|DICT|INTERRES
   241  121  123 2    
   242  122  242 1    
   243  122  243 1    
   244  124  125 1    
   245  124  244 1    
   246  124  245 1    
   247  125  126 1    
   248  126  246 1    
   249  126  247 1    
@<TRIPOS>SUBSTRUCTURE
     1 UNK         1 GROUP             0       ****    0 ROOT    
