@<TRIPOS>MOLECULE
3R540
247   249    1
SMALL
USER_CHARGES


@<TRIPOS>ATOM
      1 CA          4.7266  -13.9613  -50.3562 C.3       0 UNK        -0.1800 
      2 C           4.0561  -14.9259  -49.3881 C.2       0 UNK         0.5000 
      3 O           4.6739  -15.3266  -48.4028 O.2       0 UNK        -0.5000 
      4 N           2.7994  -15.2976  -49.6743 N.am      1 UNK        -0.5000 
      5 CA          1.9484  -16.1993  -48.8763 C.3       1 UNK         0.1400 
      6 C6          1.6492  -15.6861  -47.4370 C.3       23 UNK        -0.0398 
      7 S7          1.0955  -13.9419  -47.4050 S.3       23 UNK        -0.2404 
      8 C8         -0.5393  -14.0359  -46.6021 C.3       23 UNK        -0.0205 
      9 C9         -1.6678  -14.6630  -47.4181 C.ar      23 UNK        -0.0193 
     10 C10        -1.6235  -14.7985  -48.8117 C.ar      23 UNK        -0.1150 
     11 C11        -2.6958  -15.3544  -49.5176 C.ar      23 UNK        -0.0193 
     12 C12        -3.8280  -15.7731  -48.8038 C.ar      23 UNK        -0.1150 
     13 C13        -3.8890  -15.6496  -47.4138 C.ar      23 UNK        -0.0193 
     14 C14        -2.8116  -15.0798  -46.7343 C.ar      23 UNK        -0.1150 
     15 C15        -5.1295  -16.1124  -46.6552 C.3       23 UNK        -0.0205 
     16 S16        -4.7709  -17.3396  -45.3501 S.3       23 UNK        -0.2404 
     17 C17        -3.8733  -18.6321  -46.2712 C.3       23 UNK        -0.0398 
     18 CA         -2.3614  -18.6461  -45.8992 C.3       11 UNK         0.1400 
     19 N          -2.1055  -19.0614  -44.5119 N.am      11 UNK        -0.5000 
     20 C          -2.3849  -20.2584  -43.9730 C.2       10 UNK         0.5000 
     21 O          -2.9639  -21.1607  -44.5792 O.2       10 UNK        -0.5000 
     22 CA         -1.9682  -20.5069  -42.5122 C.3       10 UNK         0.1400 
     23 CB         -0.5895  -21.1818  -42.4340 C.3       10 UNK        -0.1800 
     24 N          -1.9594  -19.2881  -41.6993 N.am      10 UNK        -0.5000 
     25 C          -2.4748  -19.1983  -40.4635 C.2       9 UNK         0.5000 
     26 O          -3.0005  -20.1426  -39.8723 O.2       9 UNK        -0.5000 
     27 CA         -2.3935  -17.8307  -39.7505 C.3       9 UNK         0.1400 
     28 CB         -1.2094  -17.8114  -38.7746 C.3       9 UNK        -0.1800 
     29 N          -2.2626  -16.7029  -40.6720 N.am      9 UNK        -0.5000 
     30 C          -3.2137  -16.3079  -41.5286 C.2       8 UNK         0.5000 
     31 O          -4.3571  -16.7646  -41.5255 O.2       8 UNK        -0.5000 
     32 CA         -2.8293  -15.2529  -42.5860 C.3       8 UNK         0.1400 
     33 CB         -3.5716  -13.9310  -42.3382 C.3       8 UNK        -0.1800 
     34 N          -1.3951  -14.9696  -42.7112 N.am      8 UNK        -0.5000 
     35 C          -0.4334  -15.8383  -43.0521 C.2       7 UNK         0.5000 
     36 O          -0.6372  -17.0398  -43.2383 O.2       7 UNK        -0.5000 
     37 CA          0.9949  -15.2801  -43.2164 C.3       7 UNK         0.1400 
     38 CB          1.1001  -13.7421  -43.0997 C.3       7 UNK        -0.1800 
     39 N           1.9500  -15.9195  -42.3124 N.am      7 UNK        -0.5000 
     40 C           1.9142  -15.9547  -40.9707 C.2       6 UNK         0.5000 
     41 O           0.9905  -15.4846  -40.3045 O.2       6 UNK        -0.5000 
     42 CA          3.1014  -16.6252  -40.2403 C.3       6 UNK         0.1400 
     43 CB          2.6224  -17.7940  -39.3649 C.3       6 UNK        -0.1800 
     44 N           4.1349  -17.1246  -41.1494 N.am      6 UNK        -0.5000 
     45 C           5.0972  -16.3894  -41.7255 C.2       5 UNK         0.5000 
     46 O           5.2942  -15.2006  -41.4740 O.2       5 UNK        -0.5000 
     47 CA          5.9528  -17.0992  -42.7983 C.3       5 UNK         0.1400 
     48 CB          7.2656  -17.6142  -42.1897 C.3       5 UNK        -0.1800 
     49 N           5.2510  -18.2165  -43.4418 N.am      5 UNK        -0.5000 
     50 C           4.1432  -18.0935  -44.1840 C.2       4 UNK         0.5000 
     51 O           3.6557  -17.0080  -44.5017 O.2       4 UNK        -0.5000 
     52 CA          3.4374  -19.4013  -44.5742 C.3       4 UNK         0.1400 
     53 CB          1.9157  -19.2167  -44.6753 C.3       4 UNK        -0.1800 
     54 N           3.9601  -19.9464  -45.8245 N.am      4 UNK        -0.5000 
     55 C           5.1090  -20.6330  -45.9181 C.2       3 UNK         0.5000 
     56 O           5.8516  -20.8322  -44.9549 O.2       3 UNK        -0.5000 
     57 CA          5.4930  -21.2363  -47.2846 C.3       3 UNK         0.1400 
     58 CB          5.4122  -22.7711  -47.2315 C.3       3 UNK        -0.1800 
     59 N           4.6519  -20.7717  -48.3864 N.am      3 UNK        -0.5000 
     60 C           4.8441  -19.6402  -49.0744 C.2       2 UNK         0.5000 
     61 O           5.7735  -18.8611  -48.8587 O.2       2 UNK        -0.5000 
     62 CA          3.8339  -19.3175  -50.1982 C.3       2 UNK         0.1400 
     63 CB          2.7827  -20.4240  -50.4459 C.3       2 UNK        -0.1800 
     64 N           3.1774  -18.0278  -49.9727 N.am      2 UNK        -0.5000 
     65 C           2.4664  -17.6584  -48.8954 C.2       1 UNK         0.5000 
     66 O           2.2082  -18.4217  -47.9645 O.2       1 UNK        -0.5000 
     67 C          -1.4816  -19.4178  -46.9133 C.2       11 UNK         0.5000 
     68 O          -0.5793  -20.1547  -46.5130 O.2       11 UNK        -0.5000 
     69 N          -1.7093  -19.1910  -48.2159 N.am      12 UNK        -0.5000 
     70 CA         -0.9462  -19.7652  -49.3247 C.3       12 UNK         0.1400 
     71 CB         -1.3948  -19.1043  -50.6371 C.3       12 UNK        -0.1800 
     72 C          -1.0484  -21.3007  -49.3965 C.2       12 UNK         0.5000 
     73 O          -1.9273  -21.8304  -50.0794 O.2       12 UNK        -0.5000 
     74 N          -0.1498  -21.9868  -48.6801 N.am      13 UNK        -0.5000 
     75 CA         -0.0562  -23.4443  -48.5585 C.3       13 UNK         0.1400 
     76 CB          1.1198  -23.7905  -47.6333 C.3       13 UNK        -0.1800 
     77 C           0.0843  -24.1757  -49.9067 C.2       13 UNK         0.5000 
     78 O          -0.5189  -25.2326  -50.0906 O.2       13 UNK        -0.5000 
     79 N           0.8217  -23.5642  -50.8447 N.am      14 UNK        -0.5000 
     80 CA          1.0014  -24.0386  -52.2211 C.3       14 UNK         0.1400 
     81 CB          2.1147  -23.2172  -52.8889 C.3       14 UNK        -0.1800 
     82 C          -0.2878  -23.9851  -53.0678 C.2       14 UNK         0.5000 
     83 O          -0.3868  -24.7010  -54.0642 O.2       14 UNK        -0.5000 
     84 N          -1.2538  -23.1608  -52.6436 N.am      15 UNK        -0.5000 
     85 CA         -2.5893  -23.0302  -53.2204 C.3       15 UNK         0.1400 
     86 CB         -2.8841  -21.5347  -53.4228 C.3       15 UNK        -0.1800 
     87 C          -3.6441  -23.7087  -52.3230 C.2       15 UNK         0.5000 
     88 O          -4.8087  -23.3079  -52.3505 O.2       15 UNK        -0.5000 
     89 N          -3.2162  -24.7045  -51.5299 N.am      16 UNK        -0.5000 
     90 CA         -4.0112  -25.5070  -50.5959 C.3       16 UNK         0.1400 
     91 CB         -5.0069  -26.4025  -51.3619 C.3       16 UNK        -0.1800 
     92 C          -4.6698  -24.6497  -49.4969 C.2       16 UNK         0.5000 
     93 O          -5.8758  -24.7458  -49.2715 O.2       16 UNK        -0.5000 
     94 N          -3.8529  -23.7984  -48.8590 N.am      17 UNK        -0.5000 
     95 CA         -4.2275  -22.8012  -47.8471 C.3       17 UNK         0.1400 
     96 CB         -4.7880  -23.4714  -46.5754 C.3       17 UNK        -0.1800 
     97 C          -5.1580  -21.7214  -48.4354 C.2       17 UNK         0.5000 
     98 O          -6.1556  -21.3479  -47.8177 O.2       17 UNK        -0.5000 
     99 N          -4.8031  -21.2637  -49.6450 N.am      18 UNK        -0.5000 
    100 CA        -5.5083  -20.2868  -50.4799 C.3       18 UNK         0.1400 
    101 CB        -5.5542  -18.9062  -49.7991 C.3       18 UNK        -0.1800 
    102 C         -6.8922  -20.7414  -50.9916 C.2       18 UNK         0.5000 
    103 O         -7.6606  -19.9047  -51.4684 O.2       18 UNK        -0.5000 
    104 N         -7.1789  -22.0510  -50.9557 N.am      19 UNK        -0.5000 
    105 CA        -8.3858  -22.6462  -51.5385 C.3       19 UNK         0.1400 
    106 CB        -8.5148  -24.1076  -51.0905 C.3       19 UNK        -0.1800 
    107 C         -8.4133  -22.5421  -53.0761 C.2       19 UNK         0.5000 
    108 O         -9.4891  -22.3854  -53.6536 O.2       19 UNK        -0.5000 
    109 N         -7.2289  -22.5658  -53.7038 N.am      20 UNK        -0.5000 
    110 CA        -7.0171  -22.3078  -55.1302 C.3       20 UNK         0.1400 
    111 CB        -5.8822  -23.2119  -55.6424 C.3       20 UNK        -0.1800 
    112 C         -6.7592  -20.8107  -55.4221 C.2       20 UNK         0.5000 
    113 O         -6.0917  -20.4852  -56.4058 O.2       20 UNK        -0.5000 
    114 N         -7.2770  -19.9224  -54.5578 N.am      21 UNK        -0.5000 
    115 CA        -7.2971  -18.4577  -54.6720 C.3       21 UNK         0.1400 
    116 CB        -8.2444  -18.0295  -55.8120 C.3       21 UNK        -0.1800 
    117 C         -5.9000  -17.8112  -54.7851 C.2       21 UNK         0.5000 
    118 O         -5.7484  -16.7847  -55.4499 O.2       21 UNK        -0.5000 
    119 N         -4.9060  -18.4364  -54.1402 N.am      22 UNK        -0.5000 
    120 CA        -3.4808  -18.0548  -54.1613 C.3       22 UNK         0.1400 
    121 C         -2.7809  -18.2728  -55.5392 C.2       22 UNK         0.5000 
    122 N         -3.3628  -19.0205  -56.4715 N.am      22 UNK        -0.7600 
    123 O         -1.6746  -17.7878  -55.7592 O.2       22 UNK        -0.5000 
    124 C124       -3.2053  -16.6483  -53.5532 C.3       23 UNK        -0.0398 
    125 S125       -3.8356  -16.5187  -51.8455 S.3       23 UNK        -0.2404 
    126 C126       -2.5885  -15.4527  -51.0431 C.3       23 UNK        -0.0205 
    127 H127        4.0692  -13.6924  -51.1833 H         1 UNK         0.0600 
    128 H128        5.6283  -14.4121  -50.7710 H         1 UNK         0.0600 
    129 H129        5.0098  -13.0460  -49.8364 H         1 UNK         0.0600 
    130 H130        2.3586  -14.9131  -50.4982 H         1 UNK         0.3000 
    131 H131        0.9937  -16.2369  -49.4023 H         1 UNK         0.0600 
    132 H132        2.5373  -15.7692  -46.8082 H         1 UNK         0.0800 
    133 H133        0.8899  -16.3123  -46.9651 H         1 UNK         0.0800 
    134 H134       -0.8412  -13.0235  -46.3310 H         1 UNK         0.0800 
    135 H135       -0.4290  -14.5837  -45.6690 H         1 UNK         0.0800 
    136 H136       -0.7602  -14.4544  -49.3620 H         1 UNK         0.1150 
    137 H137       -4.6807  -16.1827  -49.3229 H         1 UNK         0.1150 
    138 H138       -2.8653  -14.9603  -45.6628 H         1 UNK         0.1150 
    139 H139       -5.6063  -15.2443  -46.1986 H         1 UNK         0.0800 
    140 H140       -5.8642  -16.5399  -47.3396 H         1 UNK         0.0800 
    141 H141       -4.0312  -18.4514  -47.3316 H         1 UNK         0.0800 
    142 H142       -4.3436  -19.5951  -46.0718 H         1 UNK         0.0800 
    143 H143       -1.9937  -17.6215  -45.9555 H         1 UNK         0.0600 
    144 H144       -1.5677  -18.3905  -43.9704 H         1 UNK         0.3000 
    145 H145       -2.7041  -21.2092  -42.1150 H         1 UNK         0.0600 
    146 H146       -0.3773  -21.5218  -41.4203 H         1 UNK         0.0600 
    147 H147       -0.5383  -22.0533  -43.0881 H         1 UNK         0.0600 
    148 H148        0.2063  -20.4999  -42.7285 H         1 UNK         0.0600 
    149 H149       -1.5449  -18.4616  -42.1151 H         1 UNK         0.3000 
    150 H150       -3.3137  -17.6981  -39.1779 H         1 UNK         0.0600 
    151 H151       -1.3037  -18.6001  -38.0271 H         1 UNK         0.0600 
    152 H152       -1.1464  -16.8621  -38.2423 H         1 UNK         0.0600 
    153 H153       -0.2677  -17.9668  -39.2993 H         1 UNK         0.0600 
    154 H154       -1.3518  -16.2665  -40.7294 H         1 UNK         0.3000 
    155 H155       -3.1625  -15.6536  -43.5426 H         1 UNK         0.0600 
    156 H156       -3.2586  -13.4651  -41.4031 H         1 UNK         0.0600 
    157 H157       -4.6494  -14.0898  -42.2821 H         1 UNK         0.0600 
    158 H158       -3.3934  -13.2208  -43.1460 H         1 UNK         0.0600 
    159 H159       -1.1210  -14.0139  -42.5350 H         1 UNK         0.3000 
    160 H160        1.3065  -15.5538  -44.2252 H         1 UNK         0.0600 
    161 H161        2.1188  -13.4109  -43.3022 H         1 UNK         0.0600 
    162 H162        0.8321  -13.3833  -42.1054 H         1 UNK         0.0600 
    163 H163        0.4568  -13.2387  -43.8220 H         1 UNK         0.0600 
    164 H164        2.7342  -16.3552  -42.7829 H         1 UNK         0.3000 
    165 H165        3.5446  -15.8716  -39.5861 H         1 UNK         0.0600 
    166 H166        3.4576  -18.2725  -38.8532 H         1 UNK         0.0600 
    167 H167        1.9343  -17.4462  -38.5938 H         1 UNK         0.0600 
    168 H168        2.1080  -18.5548  -39.9534 H         1 UNK         0.0600 
    169 H169        4.0668  -18.0973  -41.4092 H         1 UNK         0.3000 
    170 H170        6.1943  -16.3634  -43.5682 H         1 UNK         0.0600 
    171 H171        7.8266  -16.8014  -41.7264 H         1 UNK         0.0600 
    172 H172        7.0855  -18.3683  -41.4226 H         1 UNK         0.0600 
    173 H173        7.9068  -18.0567  -42.9523 H         1 UNK         0.0600 
    174 H174        5.6245  -19.1436  -43.2833 H         1 UNK         0.3000 
    175 H175        3.6105  -20.1265  -43.7759 H         1 UNK         0.0600 
    176 H176        1.6324  -18.5357  -45.4767 H         1 UNK         0.0600 
    177 H177        1.4215  -20.1711  -44.8525 H         1 UNK         0.0600 
    178 H178        1.5108  -18.8055  -43.7502 H         1 UNK         0.0600 
    179 H179        3.4251  -19.7441  -46.6608 H         1 UNK         0.3000 
    180 H180        6.5305  -20.9591  -47.4831 H         1 UNK         0.0600 
    181 H181        4.4008  -23.1143  -47.0110 H         1 UNK         0.0600 
    182 H182        6.0693  -23.1717  -46.4584 H         1 UNK         0.0600 
    183 H183        5.7201  -23.2161  -48.1779 H         1 UNK         0.0600 
    184 H184        3.8594  -21.3498  -48.6200 H         1 UNK         0.3000 
    185 H185        4.4198  -19.2098  -51.1122 H         1 UNK         0.0600 
    186 H186        2.1834  -20.6252  -49.5593 H         1 UNK         0.0600 
    187 H187        3.2634  -21.3560  -50.7447 H         1 UNK         0.0600 
    188 H188        2.1018  -20.1419  -51.2493 H         1 UNK         0.0600 
    189 H189        3.3672  -17.3174  -50.6648 H         1 UNK         0.3000 
    190 H190       -2.4393  -18.5470  -48.4791 H         1 UNK         0.3000 
    191 H191        0.1022  -19.5100  -49.1743 H         1 UNK         0.0600 
    192 H192       -0.8749  -19.5349  -51.4940 H         1 UNK         0.0600 
    193 H193       -1.1724  -18.0386  -50.6292 H         1 UNK         0.0600 
    194 H194       -2.4650  -19.2231  -50.8068 H         1 UNK         0.0600 
    195 H195        0.4259  -21.4513  -48.0423 H         1 UNK         0.3000 
    196 H196       -0.9751  -23.7942  -48.0849 H         1 UNK         0.0600 
    197 H197        1.2027  -24.8690  -47.4918 H         1 UNK         0.0600 
    198 H198        0.9903  -23.3435  -46.6471 H         1 UNK         0.0600 
    199 H199        2.0687  -23.4382  -48.0389 H         1 UNK         0.0600 
    200 H200        1.2665  -22.6917  -50.6065 H         1 UNK         0.3000 
    201 H201        1.3219  -25.0817  -52.1799 H         1 UNK         0.0600 
    202 H202        1.8573  -22.1588  -52.9435 H         1 UNK         0.0600 
    203 H203        2.2970  -23.5622  -53.9076 H         1 UNK         0.0600 
    204 H204        3.0549  -23.3102  -52.3452 H         1 UNK         0.0600 
    205 H205       -1.1122  -22.6489  -51.7809 H         1 UNK         0.3000 
    206 H206       -2.6358  -23.5212  -54.1941 H         1 UNK         0.0600 
    207 H207       -2.1373  -21.0768  -54.0714 H         1 UNK         0.0600 
    208 H208       -3.8563  -21.3729  -53.8871 H         1 UNK         0.0600 
    209 H209       -2.8792  -20.9982  -52.4753 H         1 UNK         0.0600 
    210 H210       -2.2281  -24.9228  -51.5434 H         1 UNK         0.3000 
    211 H211       -3.3106  -26.1667  -50.0818 H         1 UNK         0.0600 
    212 H212       -4.4843  -27.0663  -52.0504 H         1 UNK         0.0600 
    213 H213       -5.7184  -25.8178  -51.9436 H         1 UNK         0.0600 
    214 H214       -5.5782  -27.0312  -50.6779 H         1 UNK         0.0600 
    215 H215       -2.9016  -23.7355  -49.1938 H         1 UNK         0.3000 
    216 H216       -3.3088  -22.2873  -47.5606 H         1 UNK         0.0600 
    217 H217       -4.9448  -22.7343  -45.7871 H         1 UNK         0.0600 
    218 H218       -4.0957  -24.2177  -46.1863 H         1 UNK         0.0600 
    219 H219       -5.7453  -23.9603  -46.7561 H         1 UNK         0.0600 
    220 H220       -3.9482  -21.6387  -50.0431 H         1 UNK         0.3000 
    221 H221       -4.8990  -20.1774  -51.3771 H         1 UNK         0.0600 
    222 H222       -6.1328  -18.9195  -48.8756 H         1 UNK         0.0600 
    223 H223       -4.5482  -18.5623  -49.5684 H         1 UNK         0.0600 
    224 H224       -6.0041  -18.1575  -50.4518 H         1 UNK         0.0600 
    225 H225       -6.4866  -22.6917  -50.5900 H         1 UNK         0.3000 
    226 H226       -9.2488  -22.0984  -51.1544 H         1 UNK         0.0600 
    227 H227       -9.4297  -24.5566  -51.4788 H         1 UNK         0.0600 
    228 H228       -7.6784  -24.7091  -51.4440 H         1 UNK         0.0600 
    229 H229       -8.5491  -24.1857  -50.0037 H         1 UNK         0.0600 
    230 H230       -6.3918  -22.7329  -53.1481 H         1 UNK         0.3000 
    231 H231       -7.9196  -22.5793  -55.6812 H         1 UNK         0.0600 
    232 H232       -6.0809  -24.2595  -55.4158 H         1 UNK         0.0600 
    233 H233       -4.9236  -22.9512  -55.1980 H         1 UNK         0.0600 
    234 H234       -5.7737  -23.1308  -56.7245 H         1 UNK         0.0600 
    235 H235       -7.7624  -20.2875  -53.7484 H         1 UNK         0.3000 
    236 H236       -7.7202  -18.0878  -53.7370 H         1 UNK         0.0600 
    237 H237       -9.2308  -18.4782  -55.6941 H         1 UNK         0.0600 
    238 H238       -8.3826  -16.9477  -55.8240 H         1 UNK         0.0600 
    239 H239       -7.8574  -18.3217  -56.7887 H         1 UNK         0.0600 
    240 H240       -5.1328  -19.2800  -53.6387 H         1 UNK         0.3000 
    241 H241       -2.9865  -18.7665  -53.5021 H         1 UNK         0.0600 
    242 H242       -4.2796  -19.4275  -56.3269 H         1 UNK         0.3800 
    243 H243       -2.8930  -19.1610  -57.3515 H         1 UNK         0.3800 
    244 H244       -2.1332  -16.4471  -53.5422 H         1 UNK         0.0800 
    245 H245       -3.6550  -15.8609  -54.1585 H         1 UNK         0.0800 
    246 H246       -1.5944  -15.8176  -51.3033 H         1 UNK         0.0800 
    247 H247       -2.6698  -14.4493  -51.4628 H         1 UNK         0.0800 
@<TRIPOS>BOND
     1    1    2 1    
     2    1  127 1    
     3    1  128 1    
     4    1  129 1    
     5    2    3 2    
     6    2    4 am   BACKBONE|DICT|INTERRES
     7    4    5 1    
     8    4  130 1    
     9    5    6 1    
    10    5   65 1    
    11    5  131 1    
    12    6    7 1    
    13    6  132 1    
    14    6  133 1    
    15    7    8 1    
    16    8    9 1    
    17    8  134 1    
    18    8  135 1    
    19    9   10 ar   
    20    9   14 ar   
    21   10   11 ar   
    22   10  136 1    
    23   11   12 ar   
    24   11  126 1    
    25   12   13 ar   
    26   12  137 1    
    27   13   14 ar   
    28   13   15 1    
    29   14  138 1    
    30   15   16 1    
    31   15  139 1    
    32   15  140 1    
    33   16   17 1    
    34   17   18 1    
    35   17  141 1    
    36   17  142 1    
    37   18   19 1    
    38   18   67 1    
    39   18  143 1    
    40   19   20 am   BACKBONE|DICT|INTERRES
    41   19  144 1    
    42   20   21 2    
    43   20   22 1    
    44   22   23 1    
    45   22   24 1    
    46   22  145 1    
    47   23  146 1    
    48   23  147 1    
    49   23  148 1    
    50   24   25 am   BACKBONE|DICT|INTERRES
    51   24  149 1    
    52   25   26 2    
    53   25   27 1    
    54   27   28 1    
    55   27   29 1    
    56   27  150 1    
    57   28  151 1    
    58   28  152 1    
    59   28  153 1    
    60   29   30 am   BACKBONE|DICT|INTERRES
    61   29  154 1    
    62   30   31 2    
    63   30   32 1    
    64   32   33 1    
    65   32   34 1    
    66   32  155 1    
    67   33  156 1    
    68   33  157 1    
    69   33  158 1    
    70   34   35 am   BACKBONE|DICT|INTERRES
    71   34  159 1    
    72   35   36 2    
    73   35   37 1    
    74   37   38 1    
    75   37   39 1    
    76   37  160 1    
    77   38  161 1    
    78   38  162 1    
    79   38  163 1    
    80   39   40 am   BACKBONE|DICT|INTERRES
    81   39  164 1    
    82   40   41 2    
    83   40   42 1    
    84   42   43 1    
    85   42   44 1    
    86   42  165 1    
    87   43  166 1    
    88   43  167 1    
    89   43  168 1    
    90   44   45 am   BACKBONE|DICT|INTERRES
    91   44  169 1    
    92   45   46 2    
    93   45   47 1    
    94   47   48 1    
    95   47   49 1    
    96   47  170 1    
    97   48  171 1    
    98   48  172 1    
    99   48  173 1    
   100   49   50 am   BACKBONE|DICT|INTERRES
   101   49  174 1    
   102   50   51 2    
   103   50   52 1    
   104   52   53 1    
   105   52   54 1    
   106   52  175 1    
   107   53  176 1    
   108   53  177 1    
   109   53  178 1    
   110   54   55 am   BACKBONE|DICT|INTERRES
   111   54  179 1    
   112   55   56 2    
   113   55   57 1    
   114   57   58 1    
   115   57   59 1    
   116   57  180 1    
   117   58  181 1    
   118   58  182 1    
   119   58  183 1    
   120   59   60 am   BACKBONE|DICT|INTERRES
   121   59  184 1    
   122   60   61 2    
   123   60   62 1    
   124   62   63 1    
   125   62   64 1    
   126   62  185 1    
   127   63  186 1    
   128   63  187 1    
   129   63  188 1    
   130   64   65 am   BACKBONE|DICT|INTERRES
   131   64  189 1    
   132   65   66 2    
   133   67   68 2    
   134   67   69 am   BACKBONE|DICT|INTERRES
   135   69   70 1    
   136   69  190 1    
   137   70   71 1    
   138   70   72 1    
   139   70  191 1    
   140   71  192 1    
   141   71  193 1    
   142   71  194 1    
   143   72   73 2    
   144   72   74 am   BACKBONE|DICT|INTERRES
   145   74   75 1    
   146   74  195 1    
   147   75   76 1    
   148   75   77 1    
   149   75  196 1    
   150   76  197 1    
   151   76  198 1    
   152   76  199 1    
   153   77   78 2    
   154   77   79 am   BACKBONE|DICT|INTERRES
   155   79   80 1    
   156   79  200 1    
   157   80   81 1    
   158   80   82 1    
   159   80  201 1    
   160   81  202 1    
   161   81  203 1    
   162   81  204 1    
   163   82   83 2    
   164   82   84 am   BACKBONE|DICT|INTERRES
   165   84   85 1    
   166   84  205 1    
   167   85   86 1    
   168   85   87 1    
   169   85  206 1    
   170   86  207 1    
   171   86  208 1    
   172   86  209 1    
   173   87   88 2    
   174   87   89 am   BACKBONE|DICT|INTERRES
   175   89   90 1    
   176   89  210 1    
   177   90   91 1    
   178   90   92 1    
   179   90  211 1    
   180   91  212 1    
   181   91  213 1    
   182   91  214 1    
   183   92   93 2    
   184   92   94 am   BACKBONE|DICT|INTERRES
   185   94   95 1    
   186   94  215 1    
   187   95   96 1    
   188   95   97 1    
   189   95  216 1    
   190   96  217 1    
   191   96  218 1    
   192   96  219 1    
   193   97   98 2    
   194   97   99 am   BACKBONE|DICT|INTERRES
   195   99  100 1    
   196   99  220 1    
   197  100  101 1    
   198  100  102 1    
   199  100  221 1    
   200  101  222 1    
   201  101  223 1    
   202  101  224 1    
   203  102  103 2    
   204  102  104 am   BACKBONE|DICT|INTERRES
   205  104  105 1    
   206  104  225 1    
   207  105  106 1    
   208  105  107 1    
   209  105  226 1    
   210  106  227 1    
   211  106  228 1    
   212  106  229 1    
   213  107  108 2    
   214  107  109 am   BACKBONE|DICT|INTERRES
   215  109  110 1    
   216  109  230 1    
   217  110  111 1    
   218  110  112 1    
   219  110  231 1    
   220  111  232 1    
   221  111  233 1    
   222  111  234 1    
   223  112  113 2    
   224  112  114 am   BACKBONE|DICT|INTERRES
   225  114  115 1    
   226  114  235 1    
   227  115  116 1    
   228  115  117 1    
   229  115  236 1    
   230  116  237 1    
   231  116  238 1    
   232  116  239 1    
   233  117  118 2    
   234  117  119 am   BACKBONE|DICT|INTERRES
   235  119  120 1    
   236  119  240 1    
   237  120  121 1    
   238  120  124 1    
   239  120  241 1    
   240  121  122 am   BACKBONE|DICT|INTERRES
   241  121  123 2    
   242  122  242 1    
   243  122  243 1    
   244  124  125 1    
   245  124  244 1    
   246  124  245 1    
   247  125  126 1    
   248  126  246 1    
   249  126  247 1    
@<TRIPOS>SUBSTRUCTURE
     1 UNK         1 GROUP             0       ****    0 ROOT    
