@<TRIPOS>MOLECULE
3R540
247   249    1
SMALL
USER_CHARGES


@<TRIPOS>ATOM
      1 CA          0.5372  -11.6123  -50.0894 C.3       0 UNK        -0.1800 
      2 C           1.9035  -11.5926  -49.4199 C.2       0 UNK         0.5000 
      3 O           2.4433  -10.5129  -49.1753 O.2       0 UNK        -0.5000 
      4 N           2.4586  -12.7783  -49.1312 N.am      1 UNK        -0.5000 
      5 CA          3.7764  -13.0098  -48.5237 C.3       1 UNK         0.1400 
      6 C6          4.0463  -14.5156  -48.2941 C.3       23 UNK        -0.0398 
      7 S7          4.1503  -15.4445  -49.8592 S.3       23 UNK        -0.2404 
      8 C8          4.5006  -17.1207  -49.2289 C.3       23 UNK        -0.0205 
      9 C9          3.3107  -18.0750  -49.2951 C.ar      23 UNK        -0.0193 
     10 C10         2.0078  -17.6577  -48.9917 C.ar      23 UNK        -0.1150 
     11 C11         0.9390  -18.5574  -49.0455 C.ar      23 UNK        -0.0193 
     12 C12         1.1823  -19.8882  -49.3944 C.ar      23 UNK        -0.1150 
     13 C13         2.4785  -20.3260  -49.6806 C.ar      23 UNK        -0.0193 
     14 C14         3.5343  -19.4127  -49.6368 C.ar      23 UNK        -0.1150 
     15 C15         2.7373  -21.7893  -50.0201 C.3       23 UNK        -0.0205 
     16 S16         3.6811  -22.6728  -48.7256 S.3       23 UNK        -0.2404 
     17 C17         2.7111  -22.3345  -47.2120 C.3       23 UNK        -0.0398 
     18 CA          1.7180  -23.4390  -46.7739 C.3       11 UNK         0.1400 
     19 N           1.0259  -23.0475  -45.5433 N.am      11 UNK        -0.5000 
     20 C           0.2887  -23.8642  -44.7766 C.2       10 UNK         0.5000 
     21 O           0.1642  -25.0697  -44.9904 O.2       10 UNK        -0.5000 
     22 CA         -0.4803  -23.2161  -43.6047 C.3       10 UNK         0.1400 
     23 CB          0.3920  -23.1820  -42.3416 C.3       10 UNK        -0.1800 
     24 N          -0.9469  -21.8593  -43.9026 N.am      10 UNK        -0.5000 
     25 C          -1.7899  -21.5456  -44.8967 C.2       9 UNK         0.5000 
     26 O          -2.3578  -22.3932  -45.5834 O.2       9 UNK        -0.5000 
     27 CA         -2.0022  -20.0527  -45.2229 C.3       9 UNK         0.1400 
     28 CB         -3.3597  -19.5817  -44.6833 C.3       9 UNK        -0.1800 
     29 N          -0.9589  -19.1425  -44.7390 N.am      9 UNK        -0.5000 
     30 C           0.3587  -19.2189  -44.9761 C.2       8 UNK         0.5000 
     31 O           0.8756  -20.1304  -45.6198 O.2       8 UNK        -0.5000 
     32 CA          1.2611  -18.1212  -44.3733 C.3       8 UNK         0.1400 
     33 CB          1.8682  -17.2481  -45.4807 C.3       8 UNK        -0.1800 
     34 N           0.5797  -17.2572  -43.4068 N.am      8 UNK        -0.5000 
     35 C           0.1802  -17.6296  -42.1821 C.2       7 UNK         0.5000 
     36 O           0.3700  -18.7517  -41.7121 O.2       7 UNK        -0.5000 
     37 CA         -0.6046  -16.5839  -41.3727 C.3       7 UNK         0.1400 
     38 CB          0.3507  -15.6313  -40.6373 C.3       7 UNK        -0.1800 
     39 N          -1.4972  -15.8140  -42.2417 N.am      7 UNK        -0.5000 
     40 C          -2.7246  -16.2145  -42.6033 C.2       6 UNK         0.5000 
     41 O          -3.2591  -17.2358  -42.1727 O.2       6 UNK        -0.5000 
     42 CA         -3.4854  -15.3417  -43.6218 C.3       6 UNK         0.1400 
     43 CB         -4.3885  -14.3338  -42.8951 C.3       6 UNK        -0.1800 
     44 N          -2.6037  -14.6170  -44.5380 N.am      6 UNK        -0.5000 
     45 C          -1.8845  -15.1853  -45.5161 C.2       5 UNK         0.5000 
     46 O          -1.9215  -16.3841  -45.7837 O.2       5 UNK        -0.5000 
     47 CA         -0.9303  -14.2643  -46.3021 C.3       5 UNK         0.1400 
     48 CB         -1.6281  -13.7076  -47.5498 C.3       5 UNK        -0.1800 
     49 N          -0.3897  -13.1487  -45.5192 N.am      5 UNK        -0.5000 
     50 C           0.3169  -13.2623  -44.3852 C.2       4 UNK         0.5000 
     51 O           0.5501  -14.3433  -43.8413 O.2       4 UNK        -0.5000 
     52 CA          0.8197  -11.9509  -43.7575 C.3       4 UNK         0.1400 
     53 CB          2.0010  -12.1735  -42.7961 C.3       4 UNK        -0.1800 
     54 N           1.2344  -11.0199  -44.8037 N.am      4 UNK        -0.5000 
     55 C           0.8110   -9.7580  -44.9567 C.2       3 UNK         0.5000 
     56 O          -0.0678   -9.2491  -44.2592 O.2       3 UNK        -0.5000 
     57 CA          1.4781   -8.9305  -46.0825 C.3       3 UNK         0.1400 
     58 CB          1.4804   -7.4150  -45.7933 C.3       3 UNK        -0.1800 
     59 N           2.8249   -9.4024  -46.4276 N.am      3 UNK        -0.5000 
     60 C           3.8927   -9.4813  -45.6153 C.2       2 UNK         0.5000 
     61 O           3.9240   -9.0000  -44.4816 O.2       2 UNK        -0.5000 
     62 CA          5.1188  -10.2624  -46.1447 C.3       2 UNK         0.1400 
     63 CB          5.8756  -10.9908  -45.0142 C.3       2 UNK        -0.1800 
     64 N           4.8113  -11.2029  -47.2326 N.am      2 UNK        -0.5000 
     65 C           3.9469  -12.2296  -47.2054 C.2       1 UNK         0.5000 
     66 O           3.2638  -12.5366  -46.2268 O.2       1 UNK        -0.5000 
     67 C           0.6992  -23.7931  -47.8767 C.2       11 UNK         0.5000 
     68 O           0.8466  -24.8229  -48.5346 O.2       11 UNK        -0.5000 
     69 N          -0.3406  -22.9596  -48.0290 N.am      12 UNK        -0.5000 
     70 CA         -1.4354  -23.1822  -48.9738 C.3       12 UNK         0.1400 
     71 CB         -2.3313  -21.9414  -49.0486 C.3       12 UNK        -0.1800 
     72 C          -2.2661  -24.4282  -48.6282 C.2       12 UNK         0.5000 
     73 O          -2.6158  -25.1857  -49.5311 O.2       12 UNK        -0.5000 
     74 N          -2.5270  -24.6424  -47.3316 N.am      13 UNK        -0.5000 
     75 CA         -3.2016  -25.8266  -46.8019 C.3       13 UNK         0.1400 
     76 CB         -3.4758  -25.6381  -45.3027 C.3       13 UNK        -0.1800 
     77 C          -2.4097  -27.1218  -47.0585 C.2       13 UNK         0.5000 
     78 O          -3.0031  -28.1173  -47.4733 O.2       13 UNK        -0.5000 
     79 N          -1.0844  -27.0748  -46.8553 N.am      14 UNK        -0.5000 
     80 CA         -0.1605  -28.1745  -47.1450 C.3       14 UNK         0.1400 
     81 CB          1.2229  -27.8518  -46.5603 C.3       14 UNK        -0.1800 
     82 C          -0.0587  -28.4908  -48.6499 C.2       14 UNK         0.5000 
     83 O           0.0013  -29.6631  -49.0221 O.2       14 UNK        -0.5000 
     84 N          -0.0720  -27.4445  -49.4868 N.am      15 UNK        -0.5000 
     85 CA         -0.0866  -27.5383  -50.9489 C.3       15 UNK         0.1400 
     86 CB          0.3317  -26.1791  -51.5328 C.3       15 UNK        -0.1800 
     87 C          -1.4501  -27.9700  -51.5301 C.2       15 UNK         0.5000 
     88 O          -1.5077  -28.3443  -52.7020 O.2       15 UNK        -0.5000 
     89 N          -2.5132  -27.8880  -50.7159 N.am      16 UNK        -0.5000 
     90 CA         -3.9264  -28.0897  -51.0530 C.3       16 UNK         0.1400 
     91 CB         -4.1986  -29.5520  -51.4628 C.3       16 UNK        -0.1800 
     92 C          -4.4409  -27.0566  -52.0802 C.2       16 UNK         0.5000 
     93 O          -5.2281  -27.3950  -52.9667 O.2       16 UNK        -0.5000 
     94 N          -3.9725  -25.8104  -51.9433 N.am      17 UNK        -0.5000 
     95 CA         -4.3552  -24.6693  -52.7694 C.3       17 UNK         0.1400 
     96 CB         -3.2324  -23.6225  -52.7052 C.3       17 UNK        -0.1800 
     97 C          -5.6968  -24.0659  -52.3123 C.2       17 UNK         0.5000 
     98 O          -6.0886  -24.2201  -51.1522 O.2       17 UNK        -0.5000 
     99 N          -6.3714  -23.3774  -53.2403 N.am      18 UNK        -0.5000 
    100 CA        -7.6284  -22.6655  -53.0073 C.3       18 UNK         0.1400 
    101 CB        -8.2639  -22.3465  -54.3705 C.3       18 UNK        -0.1800 
    102 C         -7.4213  -21.3665  -52.2067 C.2       18 UNK         0.5000 
    103 O         -6.3133  -20.8259  -52.1775 O.2       18 UNK        -0.5000 
    104 N         -8.5110  -20.8411  -51.6299 N.am      19 UNK        -0.5000 
    105 CA        -8.5443  -19.5773  -50.8806 C.3       19 UNK         0.1400 
    106 CB        -9.9449  -19.3854  -50.2802 C.3       19 UNK        -0.1800 
    107 C         -8.1428  -18.3434  -51.7162 C.2       19 UNK         0.5000 
    108 O         -7.6000  -17.3848  -51.1663 O.2       19 UNK        -0.5000 
    109 N         -8.3720  -18.4110  -53.0359 N.am      20 UNK        -0.5000 
    110 CA        -7.9296  -17.4241  -54.0249 C.3       20 UNK         0.1400 
    111 CB        -8.6227  -17.7231  -55.3632 C.3       20 UNK        -0.1800 
    112 C         -6.3971  -17.3838  -54.2103 C.2       20 UNK         0.5000 
    113 O         -5.8720  -16.3734  -54.6783 O.2       20 UNK        -0.5000 
    114 N         -5.7115  -18.4667  -53.8240 N.am      21 UNK        -0.5000 
    115 CA        -4.2586  -18.6136  -53.8045 C.3       21 UNK         0.1400 
    116 CB        -3.8789  -19.8337  -54.6633 C.3       21 UNK        -0.1800 
    117 C         -3.7769  -18.7339  -52.3443 C.2       21 UNK         0.5000 
    118 O         -2.9317  -19.5766  -52.0427 O.2       21 UNK        -0.5000 
    119 N         -4.3635  -17.8990  -51.4724 N.am      22 UNK        -0.5000 
    120 CA        -4.1545  -17.7845  -50.0166 C.3       22 UNK         0.1400 
    121 C         -4.3751  -19.0693  -49.1636 C.2       22 UNK         0.5000 
    122 N         -5.0269  -20.1071  -49.6725 N.am      22 UNK        -0.7600 
    123 O         -4.0059  -19.1100  -47.9947 O.2       22 UNK        -0.5000 
    124 C124       -2.9161  -16.9287  -49.6041 C.3       23 UNK        -0.0398 
    125 S125       -1.2848  -17.4580  -50.2326 S.3       23 UNK        -0.2404 
    126 C126       -0.4760  -18.0912  -48.7334 C.3       23 UNK        -0.0205 
    127 H127       -0.1991  -11.1201  -49.4542 H         1 UNK         0.0600 
    128 H128        0.1965  -12.6286  -50.2887 H         1 UNK         0.0600 
    129 H129        0.5792  -11.0781  -51.0385 H         1 UNK         0.0600 
    130 H130        1.9542  -13.6190  -49.3713 H         1 UNK         0.3000 
    131 H131        4.5206  -12.6410  -49.2328 H         1 UNK         0.0600 
    132 H132        4.9913  -14.6551  -47.7652 H         1 UNK         0.0800 
    133 H133        3.2721  -14.9566  -47.6630 H         1 UNK         0.0800 
    134 H134        4.8564  -17.0752  -48.1990 H         1 UNK         0.0800 
    135 H135        5.3282  -17.5214  -49.8164 H         1 UNK         0.0800 
    136 H136        1.8179  -16.6307  -48.7173 H         1 UNK         0.1150 
    137 H137        0.3625  -20.5875  -49.4363 H         1 UNK         0.1150 
    138 H138        4.5368  -19.7538  -49.8549 H         1 UNK         0.1150 
    139 H139        1.7983  -22.3146  -50.2002 H         1 UNK         0.0800 
    140 H140        3.2943  -21.8429  -50.9564 H         1 UNK         0.0800 
    141 H141        2.1927  -21.3860  -47.3218 H         1 UNK         0.0800 
    142 H142        3.4300  -22.1697  -46.4086 H         1 UNK         0.0800 
    143 H143        2.2936  -24.3420  -46.5596 H         1 UNK         0.0600 
    144 H144        1.0290  -22.0533  -45.3329 H         1 UNK         0.3000 
    145 H145       -1.3568  -23.8336  -43.4001 H         1 UNK         0.0600 
    146 H146       -0.1665  -22.8002  -41.4867 H         1 UNK         0.0600 
    147 H147        0.7408  -24.1822  -42.0809 H         1 UNK         0.0600 
    148 H148        1.2716  -22.5513  -42.4768 H         1 UNK         0.0600 
    149 H149       -0.5226  -21.1049  -43.3821 H         1 UNK         0.3000 
    150 H150       -2.0189  -19.9650  -46.3099 H         1 UNK         0.0600 
    151 H151       -4.1694  -20.2039  -45.0670 H         1 UNK         0.0600 
    152 H152       -3.5709  -18.5570  -44.9899 H         1 UNK         0.0600 
    153 H153       -3.3963  -19.6245  -43.5943 H         1 UNK         0.0600 
    154 H154       -1.2867  -18.3282  -44.2404 H         1 UNK         0.3000 
    155 H155        2.0788  -18.6256  -43.8546 H         1 UNK         0.0600 
    156 H156        1.0946  -16.7728  -46.0817 H         1 UNK         0.0600 
    157 H157        2.5038  -16.4639  -45.0685 H         1 UNK         0.0600 
    158 H158        2.4847  -17.8473  -46.1516 H         1 UNK         0.0600 
    159 H159        0.4312  -16.2926  -43.6878 H         1 UNK         0.3000 
    160 H160       -1.1961  -17.1108  -40.6208 H         1 UNK         0.0600 
    161 H161        1.0116  -15.1052  -41.3260 H         1 UNK         0.0600 
    162 H162        0.9812  -16.1802  -39.9368 H         1 UNK         0.0600 
    163 H163       -0.1997  -14.8853  -40.0639 H         1 UNK         0.0600 
    164 H164       -1.0961  -14.9974  -42.6848 H         1 UNK         0.3000 
    165 H165       -4.1207  -16.0046  -44.2134 H         1 UNK         0.0600 
    166 H166       -4.9892  -13.7611  -43.6019 H         1 UNK         0.0600 
    167 H167       -5.0792  -14.8432  -42.2218 H         1 UNK         0.0600 
    168 H168       -3.8077  -13.6294  -42.2983 H         1 UNK         0.0600 
    169 H169       -2.5137  -13.6224  -44.3928 H         1 UNK         0.3000 
    170 H170       -0.0843  -14.8689  -46.6315 H         1 UNK         0.0600 
    171 H171       -1.9963  -14.5134  -48.1841 H         1 UNK         0.0600 
    172 H172       -2.4791  -13.0769  -47.2896 H         1 UNK         0.0600 
    173 H173       -0.9410  -13.1145  -48.1501 H         1 UNK         0.0600 
    174 H174       -0.5368  -12.2220  -45.8907 H         1 UNK         0.3000 
    175 H175       -0.0140  -11.5397  -43.1857 H         1 UNK         0.0600 
    176 H176        2.8424  -12.6497  -43.3013 H         1 UNK         0.0600 
    177 H177        2.3530  -11.2290  -42.3807 H         1 UNK         0.0600 
    178 H178        1.7138  -12.8090  -41.9580 H         1 UNK         0.0600 
    179 H179        1.9540  -11.3798  -45.4265 H         1 UNK         0.3000 
    180 H180        0.8689   -9.0929  -46.9726 H         1 UNK         0.0600 
    181 H181        2.0052   -7.1783  -44.8676 H         1 UNK         0.0600 
    182 H182        0.4632   -7.0336  -45.6972 H         1 UNK         0.0600 
    183 H183        1.9575   -6.8604  -46.6014 H         1 UNK         0.0600 
    184 H184        2.9040   -9.8179  -47.3517 H         1 UNK         0.3000 
    185 H185        5.7917   -9.5150  -46.5670 H         1 UNK         0.0600 
    186 H186        6.2461  -10.2852  -44.2698 H         1 UNK         0.0600 
    187 H187        5.2359  -11.7061  -44.4960 H         1 UNK         0.0600 
    188 H188        6.7388  -11.5319  -45.4016 H         1 UNK         0.0600 
    189 H189        5.2797  -11.0057  -48.1065 H         1 UNK         0.3000 
    190 H190       -0.4203  -22.1630  -47.4147 H         1 UNK         0.3000 
    191 H191       -0.9997  -23.3410  -49.9623 H         1 UNK         0.0600 
    192 H192       -2.7172  -21.6548  -48.0714 H         1 UNK         0.0600 
    193 H193       -3.1916  -22.1278  -49.6903 H         1 UNK         0.0600 
    194 H194       -1.8080  -21.0842  -49.4688 H         1 UNK         0.0600 
    195 H195       -2.2716  -23.9221  -46.6605 H         1 UNK         0.3000 
    196 H196       -4.1618  -25.9159  -47.3143 H         1 UNK         0.0600 
    197 H197       -4.0260  -26.4880  -44.8973 H         1 UNK         0.0600 
    198 H198       -4.0739  -24.7450  -45.1202 H         1 UNK         0.0600 
    199 H199       -2.5517  -25.5438  -44.7326 H         1 UNK         0.0600 
    200 H200       -0.6766  -26.2304  -46.4678 H         1 UNK         0.3000 
    201 H201       -0.5383  -29.0684  -46.6445 H         1 UNK         0.0600 
    202 H202        1.1702  -27.7091  -45.4808 H         1 UNK         0.0600 
    203 H203        1.6443  -26.9457  -46.9962 H         1 UNK         0.0600 
    204 H204        1.9258  -28.6645  -46.7472 H         1 UNK         0.0600 
    205 H205       -0.0442  -26.5078  -49.0947 H         1 UNK         0.3000 
    206 H206        0.6512  -28.2829  -51.2542 H         1 UNK         0.0600 
    207 H207        1.3164  -25.8801  -51.1729 H         1 UNK         0.0600 
    208 H208        0.3815  -26.2178  -52.6216 H         1 UNK         0.0600 
    209 H209       -0.3753  -25.3935  -51.2649 H         1 UNK         0.0600 
    210 H210       -2.3460  -27.5257  -49.7863 H         1 UNK         0.3000 
    211 H211       -4.4815  -27.8995  -50.1334 H         1 UNK         0.0600 
    212 H212       -3.7305  -29.8026  -52.4149 H         1 UNK         0.0600 
    213 H213       -5.2687  -29.7340  -51.5682 H         1 UNK         0.0600 
    214 H214       -3.8246  -30.2469  -50.7109 H         1 UNK         0.0600 
    215 H215       -3.3946  -25.6038  -51.1309 H         1 UNK         0.3000 
    216 H216       -4.4571  -25.0029  -53.8043 H         1 UNK         0.0600 
    217 H217       -3.4562  -22.7635  -53.3374 H         1 UNK         0.0600 
    218 H218       -2.2840  -24.0389  -53.0453 H         1 UNK         0.0600 
    219 H219       -3.0890  -23.2516  -51.6917 H         1 UNK         0.0600 
    220 H220       -5.9624  -23.2657  -54.1561 H         1 UNK         0.3000 
    221 H221       -8.3010  -23.3172  -52.4456 H         1 UNK         0.0600 
    222 H222       -7.6334  -21.6823  -54.9637 H         1 UNK         0.0600 
    223 H223       -8.4311  -23.2550  -54.9496 H         1 UNK         0.0600 
    224 H224       -9.2327  -21.8596  -54.2520 H         1 UNK         0.0600 
    225 H225       -9.3886  -21.3351  -51.7068 H         1 UNK         0.3000 
    226 H226       -7.8308  -19.6594  -50.0586 H         1 UNK         0.0600 
    227 H227      -10.2046  -20.2075  -49.6131 H         1 UNK         0.0600 
    228 H228       -9.9967  -18.4661  -49.6952 H         1 UNK         0.0600 
    229 H229      -10.7104  -19.3252  -51.0549 H         1 UNK         0.0600 
    230 H230       -8.8331  -19.2334  -53.3956 H         1 UNK         0.3000 
    231 H231       -8.2462  -16.4358  -53.6853 H         1 UNK         0.0600 
    232 H232       -8.3415  -16.9910  -56.1214 H         1 UNK         0.0600 
    233 H233       -9.7076  -17.6845  -55.2634 H         1 UNK         0.0600 
    234 H234       -8.3541  -18.7095  -55.7436 H         1 UNK         0.0600 
    235 H235       -6.2142  -19.2335  -53.3900 H         1 UNK         0.3000 
    236 H236       -3.7730  -17.7327  -54.2285 H         1 UNK         0.0600 
    237 H237       -4.2107  -19.7064  -55.6937 H         1 UNK         0.0600 
    238 H238       -2.7986  -19.9810  -54.6859 H         1 UNK         0.0600 
    239 H239       -4.3317  -20.7473  -54.2775 H         1 UNK         0.0600 
    240 H240       -5.0887  -17.2980  -51.8367 H         1 UNK         0.3000 
    241 H241       -5.0100  -17.1823  -49.7086 H         1 UNK         0.0600 
    242 H242       -5.3159  -20.1342  -50.6444 H         1 UNK         0.3800 
    243 H243       -5.1767  -20.9126  -49.0896 H         1 UNK         0.3800 
    244 H244       -3.0677  -15.9140  -49.9736 H         1 UNK         0.0800 
    245 H245       -2.8673  -16.8252  -48.5187 H         1 UNK         0.0800 
    246 H246       -0.4548  -17.3117  -47.9710 H         1 UNK         0.0800 
    247 H247       -1.0649  -18.9117  -48.3211 H         1 UNK         0.0800 
@<TRIPOS>BOND
     1    1    2 1    
     2    1  127 1    
     3    1  128 1    
     4    1  129 1    
     5    2    3 2    
     6    2    4 am   BACKBONE|DICT|INTERRES
     7    4    5 1    
     8    4  130 1    
     9    5    6 1    
    10    5   65 1    
    11    5  131 1    
    12    6    7 1    
    13    6  132 1    
    14    6  133 1    
    15    7    8 1    
    16    8    9 1    
    17    8  134 1    
    18    8  135 1    
    19    9   10 ar   
    20    9   14 ar   
    21   10   11 ar   
    22   10  136 1    
    23   11   12 ar   
    24   11  126 1    
    25   12   13 ar   
    26   12  137 1    
    27   13   14 ar   
    28   13   15 1    
    29   14  138 1    
    30   15   16 1    
    31   15  139 1    
    32   15  140 1    
    33   16   17 1    
    34   17   18 1    
    35   17  141 1    
    36   17  142 1    
    37   18   19 1    
    38   18   67 1    
    39   18  143 1    
    40   19   20 am   BACKBONE|DICT|INTERRES
    41   19  144 1    
    42   20   21 2    
    43   20   22 1    
    44   22   23 1    
    45   22   24 1    
    46   22  145 1    
    47   23  146 1    
    48   23  147 1    
    49   23  148 1    
    50   24   25 am   BACKBONE|DICT|INTERRES
    51   24  149 1    
    52   25   26 2    
    53   25   27 1    
    54   27   28 1    
    55   27   29 1    
    56   27  150 1    
    57   28  151 1    
    58   28  152 1    
    59   28  153 1    
    60   29   30 am   BACKBONE|DICT|INTERRES
    61   29  154 1    
    62   30   31 2    
    63   30   32 1    
    64   32   33 1    
    65   32   34 1    
    66   32  155 1    
    67   33  156 1    
    68   33  157 1    
    69   33  158 1    
    70   34   35 am   BACKBONE|DICT|INTERRES
    71   34  159 1    
    72   35   36 2    
    73   35   37 1    
    74   37   38 1    
    75   37   39 1    
    76   37  160 1    
    77   38  161 1    
    78   38  162 1    
    79   38  163 1    
    80   39   40 am   BACKBONE|DICT|INTERRES
    81   39  164 1    
    82   40   41 2    
    83   40   42 1    
    84   42   43 1    
    85   42   44 1    
    86   42  165 1    
    87   43  166 1    
    88   43  167 1    
    89   43  168 1    
    90   44   45 am   BACKBONE|DICT|INTERRES
    91   44  169 1    
    92   45   46 2    
    93   45   47 1    
    94   47   48 1    
    95   47   49 1    
    96   47  170 1    
    97   48  171 1    
    98   48  172 1    
    99   48  173 1    
   100   49   50 am   BACKBONE|DICT|INTERRES
   101   49  174 1    
   102   50   51 2    
   103   50   52 1    
   104   52   53 1    
   105   52   54 1    
   106   52  175 1    
   107   53  176 1    
   108   53  177 1    
   109   53  178 1    
   110   54   55 am   BACKBONE|DICT|INTERRES
   111   54  179 1    
   112   55   56 2    
   113   55   57 1    
   114   57   58 1    
   115   57   59 1    
   116   57  180 1    
   117   58  181 1    
   118   58  182 1    
   119   58  183 1    
   120   59   60 am   BACKBONE|DICT|INTERRES
   121   59  184 1    
   122   60   61 2    
   123   60   62 1    
   124   62   63 1    
   125   62   64 1    
   126   62  185 1    
   127   63  186 1    
   128   63  187 1    
   129   63  188 1    
   130   64   65 am   BACKBONE|DICT|INTERRES
   131   64  189 1    
   132   65   66 2    
   133   67   68 2    
   134   67   69 am   BACKBONE|DICT|INTERRES
   135   69   70 1    
   136   69  190 1    
   137   70   71 1    
   138   70   72 1    
   139   70  191 1    
   140   71  192 1    
   141   71  193 1    
   142   71  194 1    
   143   72   73 2    
   144   72   74 am   BACKBONE|DICT|INTERRES
   145   74   75 1    
   146   74  195 1    
   147   75   76 1    
   148   75   77 1    
   149   75  196 1    
   150   76  197 1    
   151   76  198 1    
   152   76  199 1    
   153   77   78 2    
   154   77   79 am   BACKBONE|DICT|INTERRES
   155   79   80 1    
   156   79  200 1    
   157   80   81 1    
   158   80   82 1    
   159   80  201 1    
   160   81  202 1    
   161   81  203 1    
   162   81  204 1    
   163   82   83 2    
   164   82   84 am   BACKBONE|DICT|INTERRES
   165   84   85 1    
   166   84  205 1    
   167   85   86 1    
   168   85   87 1    
   169   85  206 1    
   170   86  207 1    
   171   86  208 1    
   172   86  209 1    
   173   87   88 2    
   174   87   89 am   BACKBONE|DICT|INTERRES
   175   89   90 1    
   176   89  210 1    
   177   90   91 1    
   178   90   92 1    
   179   90  211 1    
   180   91  212 1    
   181   91  213 1    
   182   91  214 1    
   183   92   93 2    
   184   92   94 am   BACKBONE|DICT|INTERRES
   185   94   95 1    
   186   94  215 1    
   187   95   96 1    
   188   95   97 1    
   189   95  216 1    
   190   96  217 1    
   191   96  218 1    
   192   96  219 1    
   193   97   98 2    
   194   97   99 am   BACKBONE|DICT|INTERRES
   195   99  100 1    
   196   99  220 1    
   197  100  101 1    
   198  100  102 1    
   199  100  221 1    
   200  101  222 1    
   201  101  223 1    
   202  101  224 1    
   203  102  103 2    
   204  102  104 am   BACKBONE|DICT|INTERRES
   205  104  105 1    
   206  104  225 1    
   207  105  106 1    
   208  105  107 1    
   209  105  226 1    
   210  106  227 1    
   211  106  228 1    
   212  106  229 1    
   213  107  108 2    
   214  107  109 am   BACKBONE|DICT|INTERRES
   215  109  110 1    
   216  109  230 1    
   217  110  111 1    
   218  110  112 1    
   219  110  231 1    
   220  111  232 1    
   221  111  233 1    
   222  111  234 1    
   223  112  113 2    
   224  112  114 am   BACKBONE|DICT|INTERRES
   225  114  115 1    
   226  114  235 1    
   227  115  116 1    
   228  115  117 1    
   229  115  236 1    
   230  116  237 1    
   231  116  238 1    
   232  116  239 1    
   233  117  118 2    
   234  117  119 am   BACKBONE|DICT|INTERRES
   235  119  120 1    
   236  119  240 1    
   237  120  121 1    
   238  120  124 1    
   239  120  241 1    
   240  121  122 am   BACKBONE|DICT|INTERRES
   241  121  123 2    
   242  122  242 1    
   243  122  243 1    
   244  124  125 1    
   245  124  244 1    
   246  124  245 1    
   247  125  126 1    
   248  126  246 1    
   249  126  247 1    
@<TRIPOS>SUBSTRUCTURE
     1 UNK         1 GROUP             0       ****    0 ROOT    
