@<TRIPOS>MOLECULE
3R540
247   249    1
SMALL
USER_CHARGES


@<TRIPOS>ATOM
      1 CA          6.0414  -13.0026  -50.2988 C.3       0 UNK        -0.1800 
      2 C           4.6178  -13.2498  -50.7969 C.2       0 UNK         0.5000 
      3 O           3.9800  -12.3138  -51.2754 O.2       0 UNK        -0.5000 
      4 N           4.0796  -14.4758  -50.7301 N.am      1 UNK        -0.5000 
      5 CA          4.6608  -15.6864  -50.1347 C.3       1 UNK         0.1400 
      6 C6          3.7797  -16.9299  -50.4141 C.3       23 UNK        -0.0398 
      7 S7          3.5942  -17.2865  -52.1928 S.3       23 UNK        -0.2404 
      8 C8          2.3296  -18.5997  -52.1660 C.3       23 UNK        -0.0205 
      9 C9          0.9772  -18.0800  -51.7010 C.ar      23 UNK        -0.0193 
     10 C10         0.2077  -17.2761  -52.5456 C.ar      23 UNK        -0.1150 
     11 C11        -1.0297  -16.7768  -52.1262 C.ar      23 UNK        -0.0193 
     12 C12        -1.4874  -17.0790  -50.8386 C.ar      23 UNK        -0.1150 
     13 C13        -0.7208  -17.8745  -49.9802 C.ar      23 UNK        -0.0193 
     14 C14         0.5023  -18.3853  -50.4229 C.ar      23 UNK        -0.1150 
     15 C15        -1.1724  -18.1276  -48.5511 C.3       23 UNK        -0.0205 
     16 S16        -2.2430  -19.5853  -48.4186 S.3       23 UNK        -0.2404 
     17 C17        -2.2200  -19.8505  -46.6115 C.3       23 UNK        -0.0398 
     18 CA         -1.3342  -21.0573  -46.2228 C.3       11 UNK         0.1400 
     19 N          -0.8086  -20.9457  -44.8585 N.am      11 UNK        -0.5000 
     20 C           0.0791  -21.7869  -44.3061 C.2       10 UNK         0.5000 
     21 O           0.5782  -22.7420  -44.9013 O.2       10 UNK        -0.5000 
     22 CA          0.4145  -21.5546  -42.8253 C.3       10 UNK         0.1400 
     23 CB          1.4557  -20.4363  -42.6648 C.3       10 UNK        -0.1800 
     24 N          -0.7967  -21.2296  -42.0710 N.am      10 UNK        -0.5000 
     25 C          -1.6999  -22.1432  -41.6843 C.2       9 UNK         0.5000 
     26 O          -1.5428  -23.3557  -41.8264 O.2       9 UNK        -0.5000 
     27 CA         -3.0108  -21.6218  -41.0617 C.3       9 UNK         0.1400 
     28 CB         -2.8680  -21.4949  -39.5377 C.3       9 UNK        -0.1800 
     29 N          -3.4409  -20.3344  -41.6100 N.am      9 UNK        -0.5000 
     30 C          -3.8371  -20.1302  -42.8748 C.2       8 UNK         0.5000 
     31 O          -3.9396  -21.0265  -43.7097 O.2       8 UNK        -0.5000 
     32 CA         -4.1030  -18.6703  -43.2965 C.3       8 UNK         0.1400 
     33 CB         -5.5882  -18.3228  -43.1219 C.3       8 UNK        -0.1800 
     34 N          -3.2838  -17.6935  -42.5703 N.am      8 UNK        -0.5000 
     35 C          -1.9441  -17.6738  -42.5693 C.2       7 UNK         0.5000 
     36 O          -1.2544  -18.4676  -43.2128 O.2       7 UNK        -0.5000 
     37 CA         -1.2843  -16.6842  -41.6013 C.3       7 UNK         0.1400 
     38 CB         -1.3770  -17.2552  -40.1679 C.3       7 UNK        -0.1800 
     39 N           0.1130  -16.4603  -41.9742 N.am      7 UNK        -0.5000 
     40 C           0.9248  -15.5661  -41.3920 C.2       6 UNK         0.5000 
     41 O           0.5481  -14.7617  -40.5379 O.2       6 UNK        -0.5000 
     42 CA          2.4100  -15.5788  -41.7999 C.3       6 UNK         0.1400 
     43 CB          2.9897  -17.0029  -41.8667 C.3       6 UNK        -0.1800 
     44 N           2.6416  -14.8878  -43.0648 N.am      6 UNK        -0.5000 
     45 C           2.5710  -13.5619  -43.2514 C.2       5 UNK         0.5000 
     46 O           2.3471  -12.7513  -42.3519 O.2       5 UNK        -0.5000 
     47 CA          2.7876  -13.0478  -44.6892 C.3       5 UNK         0.1400 
     48 CB          4.2734  -12.7555  -44.9490 C.3       5 UNK        -0.1800 
     49 N           2.2984  -13.9792  -45.7041 N.am      5 UNK        -0.5000 
     50 C           1.0075  -14.2786  -45.9050 C.2       4 UNK         0.5000 
     51 O           0.0733  -13.7378  -45.3127 O.2       4 UNK        -0.5000 
     52 CA          0.7205  -15.3963  -46.9207 C.3       4 UNK         0.1400 
     53 CB          0.6980  -14.8333  -48.3517 C.3       4 UNK        -0.1800 
     54 N           1.7010  -16.4809  -46.8258 N.am      4 UNK        -0.5000 
     55 C           1.7759  -17.3416  -45.7994 C.2       3 UNK         0.5000 
     56 O           1.0045  -17.3317  -44.8430 O.2       3 UNK        -0.5000 
     57 CA          2.9258  -18.3652  -45.8277 C.3       3 UNK         0.1400 
     58 CB          2.5206  -19.6068  -46.6307 C.3       3 UNK        -0.1800 
     59 N           4.1627  -17.8177  -46.3831 N.am      3 UNK        -0.5000 
     60 C           4.8998  -16.8628  -45.7984 C.2       2 UNK         0.5000 
     61 O           4.6386  -16.3763  -44.7001 O.2       2 UNK        -0.5000 
     62 CA          6.0921  -16.3186  -46.6096 C.3       2 UNK         0.1400 
     63 CB          7.3510  -17.1593  -46.3513 C.3       2 UNK        -0.1800 
     64 N           5.8274  -16.2650  -48.0522 N.am      2 UNK        -0.5000 
     65 C           4.8521  -15.5359  -48.6111 C.2       1 UNK         0.5000 
     66 O           4.0872  -14.8194  -47.9614 O.2       1 UNK        -0.5000 
     67 C          -2.0539  -22.3991  -46.4794 C.2       11 UNK         0.5000 
     68 O          -1.9323  -22.9466  -47.5739 O.2       11 UNK        -0.5000 
     69 N          -2.7535  -22.9298  -45.4669 N.am      12 UNK        -0.5000 
     70 CA         -3.4109  -24.2391  -45.4842 C.3       12 UNK         0.1400 
     71 CB         -4.1828  -24.4409  -44.1719 C.3       12 UNK        -0.1800 
     72 C          -2.4458  -25.4125  -45.7295 C.2       12 UNK         0.5000 
     73 O          -2.8244  -26.3724  -46.4006 O.2       12 UNK        -0.5000 
     74 N          -1.2172  -25.3047  -45.2099 N.am      13 UNK        -0.5000 
     75 CA         -0.1483  -26.2714  -45.4429 C.3       13 UNK         0.1400 
     76 CB          0.8268  -26.2458  -44.2551 C.3       13 UNK        -0.1800 
     77 C           0.5902  -25.9887  -46.7623 C.2       13 UNK         0.5000 
     78 O           0.8870  -26.9254  -47.5045 O.2       13 UNK        -0.5000 
     79 N           0.8922  -24.7088  -47.0176 N.am      14 UNK        -0.5000 
     80 CA          1.7383  -24.2688  -48.1249 C.3       14 UNK         0.1400 
     81 CB          2.2352  -22.8443  -47.8412 C.3       14 UNK        -0.1800 
     82 C           1.0646  -24.3284  -49.5064 C.2       14 UNK         0.5000 
     83 O           1.7230  -24.7189  -50.4719 O.2       14 UNK        -0.5000 
     84 N          -0.2037  -23.9065  -49.5943 N.am      15 UNK        -0.5000 
     85 CA         -0.8920  -23.6606  -50.8655 C.3       15 UNK         0.1400 
     86 CB         -0.6100  -22.2135  -51.3143 C.3       15 UNK        -0.1800 
     87 C          -2.3994  -23.9782  -50.8125 C.2       15 UNK         0.5000 
     88 O          -3.1342  -23.5654  -51.7097 O.2       15 UNK        -0.5000 
     89 N          -2.8341  -24.7176  -49.7815 N.am      16 UNK        -0.5000 
     90 CA         -4.2109  -25.1565  -49.5248 C.3       16 UNK         0.1400 
     91 CB         -4.6710  -26.1813  -50.5830 C.3       16 UNK        -0.1800 
     92 C          -5.2127  -24.0007  -49.2979 C.2       16 UNK         0.5000 
     93 O          -6.3785  -24.1117  -49.6827 O.2       16 UNK        -0.5000 
     94 N          -4.7404  -22.9330  -48.6351 N.am      17 UNK        -0.5000 
     95 CA         -5.4898  -21.7815  -48.1156 C.3       17 UNK         0.1400 
     96 CB         -6.2382  -22.1628  -46.8199 C.3       17 UNK        -0.1800 
     97 C          -6.3990  -21.1084  -49.1607 C.2       17 UNK         0.5000 
     98 O          -5.9070  -20.3283  -49.9728 O.2       17 UNK        -0.5000 
     99 N          -7.7014  -21.4256  -49.1317 N.am      18 UNK        -0.5000 
    100 CA        -8.7356  -20.8937  -50.0232 C.3       18 UNK         0.1400 
    101 CB       -10.1020  -21.4343  -49.5750 C.3       18 UNK        -0.1800 
    102 C         -8.5025  -21.1888  -51.5185 C.2       18 UNK         0.5000 
    103 O         -9.0196  -20.4558  -52.3625 O.2       18 UNK        -0.5000 
    104 N         -7.7165  -22.2314  -51.8245 N.am      19 UNK        -0.5000 
    105 CA        -7.2623  -22.5502  -53.1783 C.3       19 UNK         0.1400 
    106 CB        -6.6319  -23.9486  -53.1779 C.3       19 UNK        -0.1800 
    107 C         -6.2651  -21.5149  -53.7380 C.2       19 UNK         0.5000 
    108 O         -6.2092  -21.3262  -54.9542 O.2       19 UNK        -0.5000 
    109 N         -5.5157  -20.8411  -52.8551 N.am      20 UNK        -0.5000 
    110 CA        -4.5511  -19.7974  -53.1889 C.3       20 UNK         0.1400 
    111 CB        -3.3930  -19.8464  -52.1799 C.3       20 UNK        -0.1800 
    112 C         -5.2513  -18.4277  -53.2343 C.2       20 UNK         0.5000 
    113 O         -4.9481  -17.5379  -52.4376 O.2       20 UNK        -0.5000 
    114 N         -6.2024  -18.2899  -54.1678 N.am      21 UNK        -0.5000 
    115 CA        -6.9141  -17.0406  -54.4425 C.3       21 UNK         0.1400 
    116 CB        -8.1227  -17.3322  -55.3447 C.3       21 UNK        -0.1800 
    117 C         -5.9935  -15.9814  -55.0786 C.2       21 UNK         0.5000 
    118 O         -6.1050  -14.8004  -54.7482 O.2       21 UNK        -0.5000 
    119 N         -5.0869  -16.4411  -55.9538 N.am      22 UNK        -0.5000 
    120 CA        -3.9992  -15.6693  -56.5833 C.3       22 UNK         0.1400 
    121 C         -4.4596  -14.5156  -57.5289 C.2       22 UNK         0.5000 
    122 N         -5.6945  -14.5151  -58.0159 N.am      22 UNK        -0.7600 
    123 O         -3.6815  -13.6238  -57.8579 O.2       22 UNK        -0.5000 
    124 C124       -2.9195  -15.2179  -55.5587 C.3       23 UNK        -0.0398 
    125 S125       -2.1658  -16.6261  -54.6702 S.3       23 UNK        -0.2404 
    126 C126       -1.8436  -15.8708  -53.0432 C.3       23 UNK        -0.0205 
    127 H127        6.7142  -13.8167  -50.5654 H         1 UNK         0.0600 
    128 H128        6.0493  -12.8780  -49.2160 H         1 UNK         0.0600 
    129 H129        6.4433  -12.0912  -50.7418 H         1 UNK         0.0600 
    130 H130        3.1419  -14.5961  -51.0831 H         1 UNK         0.3000 
    131 H131        5.6387  -15.8527  -50.5897 H         1 UNK         0.0600 
    132 H132        4.2019  -17.8214  -49.9465 H         1 UNK         0.0800 
    133 H133        2.7895  -16.7902  -49.9783 H         1 UNK         0.0800 
    134 H134        2.2276  -19.0122  -53.1708 H         1 UNK         0.0800 
    135 H135        2.6698  -19.4206  -51.5328 H         1 UNK         0.0800 
    136 H136        0.5785  -17.0306  -53.5310 H         1 UNK         0.1150 
    137 H137       -2.4339  -16.6840  -50.4971 H         1 UNK         0.1150 
    138 H138        1.0965  -18.9996  -49.7620 H         1 UNK         0.1150 
    139 H139       -0.2996  -18.2649  -47.9120 H         1 UNK         0.0800 
    140 H140       -1.7038  -17.2560  -48.1668 H         1 UNK         0.0800 
    141 H141       -1.8516  -18.9429  -46.1301 H         1 UNK         0.0800 
    142 H142       -3.2429  -19.9761  -46.2538 H         1 UNK         0.0800 
    143 H143       -0.4585  -21.0481  -46.8733 H         1 UNK         0.0600 
    144 H144       -1.1291  -20.1580  -44.3044 H         1 UNK         0.3000 
    145 H145        0.8465  -22.4752  -42.4268 H         1 UNK         0.0600 
    146 H146        1.6888  -20.2601  -41.6147 H         1 UNK         0.0600 
    147 H147        2.3876  -20.7004  -43.1660 H         1 UNK         0.0600 
    148 H148        1.1130  -19.4958  -43.0938 H         1 UNK         0.0600 
    149 H149       -1.0193  -20.2474  -41.9803 H         1 UNK         0.3000 
    150 H150       -3.7911  -22.3560  -41.2738 H         1 UNK         0.0600 
    151 H151       -2.5688  -22.4450  -39.0931 H         1 UNK         0.0600 
    152 H152       -3.8118  -21.2046  -39.0757 H         1 UNK         0.0600 
    153 H153       -2.1168  -20.7529  -39.2636 H         1 UNK         0.0600 
    154 H154       -3.3950  -19.5401  -40.9900 H         1 UNK         0.3000 
    155 H155       -3.8563  -18.5836  -44.3558 H         1 UNK         0.0600 
    156 H156       -5.8067  -17.3232  -43.4980 H         1 UNK         0.0600 
    157 H157       -5.8912  -18.3625  -42.0748 H         1 UNK         0.0600 
    158 H158       -6.2197  -19.0209  -43.6734 H         1 UNK         0.0600 
    159 H159       -3.7840  -17.0233  -42.0038 H         1 UNK         0.3000 
    160 H160       -1.8192  -15.7343  -41.6598 H         1 UNK         0.0600 
    161 H161       -0.8015  -18.1765  -40.0673 H         1 UNK         0.0600 
    162 H162       -2.4080  -17.4814  -39.8937 H         1 UNK         0.0600 
    163 H163       -1.0077  -16.5509  -39.4233 H         1 UNK         0.0600 
    164 H164        0.4473  -17.0380  -42.7410 H         1 UNK         0.3000 
    165 H165        2.9605  -15.0457  -41.0217 H         1 UNK         0.0600 
    166 H166        2.5774  -17.5749  -42.6956 H         1 UNK         0.0600 
    167 H167        4.0724  -16.9777  -41.9914 H         1 UNK         0.0600 
    168 H168        2.7819  -17.5551  -40.9493 H         1 UNK         0.0600 
    169 H169        2.9004  -15.4681  -43.8529 H         1 UNK         0.3000 
    170 H170        2.2334  -12.1128  -44.7951 H         1 UNK         0.0600 
    171 H171        4.6552  -12.0191  -44.2410 H         1 UNK         0.0600 
    172 H172        4.8840  -13.6530  -44.8495 H         1 UNK         0.0600 
    173 H173        4.4279  -12.3556  -45.9515 H         1 UNK         0.0600 
    174 H174        2.9948  -14.4278  -46.2899 H         1 UNK         0.3000 
    175 H175       -0.2657  -15.8088  -46.6981 H         1 UNK         0.0600 
    176 H176       -0.1270  -14.1312  -48.4761 H         1 UNK         0.0600 
    177 H177        1.6157  -14.2991  -48.5968 H         1 UNK         0.0600 
    178 H178        0.5681  -15.6196  -49.0923 H         1 UNK         0.0600 
    179 H179        2.4207  -16.5001  -47.5311 H         1 UNK         0.3000 
    180 H180        3.1233  -18.6752  -44.7997 H         1 UNK         0.0600 
    181 H181        2.3276  -19.3710  -47.6774 H         1 UNK         0.0600 
    182 H182        1.6160  -20.0530  -46.2205 H         1 UNK         0.0600 
    183 H183        3.3013  -20.3664  -46.5944 H         1 UNK         0.0600 
    184 H184        4.4639  -18.1790  -47.2752 H         1 UNK         0.3000 
    185 H185        6.2853  -15.2998  -46.2672 H         1 UNK         0.0600 
    186 H186        7.5811  -17.1994  -45.2856 H         1 UNK         0.0600 
    187 H187        7.2302  -18.1857  -46.6999 H         1 UNK         0.0600 
    188 H188        8.2197  -16.7333  -46.8535 H         1 UNK         0.0600 
    189 H189        6.4245  -16.8316  -48.6380 H         1 UNK         0.3000 
    190 H190       -2.8954  -22.3658  -44.6341 H         1 UNK         0.3000 
    191 H191       -4.1315  -24.2427  -46.3016 H         1 UNK         0.0600 
    192 H192       -4.7208  -25.3897  -44.1776 H         1 UNK         0.0600 
    193 H193       -4.9189  -23.6522  -44.0171 H         1 UNK         0.0600 
    194 H194       -3.5154  -24.4481  -43.3102 H         1 UNK         0.0600 
    195 H195       -0.9724  -24.4660  -44.7008 H         1 UNK         0.3000 
    196 H196       -0.5738  -27.2757  -45.5023 H         1 UNK         0.0600 
    197 H197        1.6266  -26.9746  -44.3921 H         1 UNK         0.0600 
    198 H198        0.3175  -26.4929  -43.3234 H         1 UNK         0.0600 
    199 H199        1.2924  -25.2675  -44.1312 H         1 UNK         0.0600 
    200 H200        0.6464  -24.0039  -46.3280 H         1 UNK         0.3000 
    201 H201        2.6126  -24.9226  -48.1577 H         1 UNK         0.0600 
    202 H202        2.7696  -22.7961  -46.8923 H         1 UNK         0.0600 
    203 H203        1.4099  -22.1343  -47.7989 H         1 UNK         0.0600 
    204 H204        2.9200  -22.5047  -48.6193 H         1 UNK         0.0600 
    205 H205       -0.6902  -23.5896  -48.7576 H         1 UNK         0.3000 
    206 H206       -0.4908  -24.3319  -51.6272 H         1 UNK         0.0600 
    207 H207        0.4599  -22.0092  -51.3567 H         1 UNK         0.0600 
    208 H208       -1.0064  -22.0276  -52.3126 H         1 UNK         0.0600 
    209 H209       -1.0598  -21.4897  -50.6336 H         1 UNK         0.0600 
    210 H210       -2.1534  -24.9919  -49.0874 H         1 UNK         0.3000 
    211 H211       -4.1797  -25.6878  -48.5740 H         1 UNK         0.0600 
    212 H212       -4.6999  -25.7544  -51.5840 H         1 UNK         0.0600 
    213 H213       -5.6683  -26.5616  -50.3591 H         1 UNK         0.0600 
    214 H214       -3.9998  -27.0396  -50.6101 H         1 UNK         0.0600 
    215 H215       -3.7467  -22.9288  -48.4277 H         1 UNK         0.3000 
    216 H216       -4.7497  -21.0296  -47.8461 H         1 UNK         0.0600 
    217 H217       -5.5378  -22.3572  -46.0102 H         1 UNK         0.0600 
    218 H218       -6.8807  -21.3500  -46.4781 H         1 UNK         0.0600 
    219 H219       -6.8590  -23.0504  -46.9456 H         1 UNK         0.0600 
    220 H220       -8.0040  -22.1149  -48.4591 H         1 UNK         0.3000 
    221 H221       -8.7412  -19.8081  -49.9069 H         1 UNK         0.0600 
    222 H222      -10.1439  -22.5223  -49.6412 H         1 UNK         0.0600 
    223 H223      -10.3213  -21.1506  -48.5455 H         1 UNK         0.0600 
    224 H224      -10.9042  -21.0361  -50.1979 H         1 UNK         0.0600 
    225 H225       -7.3354  -22.7922  -51.0696 H         1 UNK         0.3000 
    226 H226       -8.1334  -22.5666  -53.8365 H         1 UNK         0.0600 
    227 H227       -5.7326  -23.9698  -52.5634 H         1 UNK         0.0600 
    228 H228       -7.3225  -24.6989  -52.7924 H         1 UNK         0.0600 
    229 H229       -6.3475  -24.2506  -54.1866 H         1 UNK         0.0600 
    230 H230       -5.6786  -20.9767  -51.8627 H         1 UNK         0.3000 
    231 H231       -4.1301  -19.9904  -54.1777 H         1 UNK         0.0600 
    232 H232       -2.5753  -19.2003  -52.4981 H         1 UNK         0.0600 
    233 H233       -2.9973  -20.8556  -52.0933 H         1 UNK         0.0600 
    234 H234       -3.6982  -19.5259  -51.1838 H         1 UNK         0.0600 
    235 H235       -6.4189  -19.0875  -54.7524 H         1 UNK         0.3000 
    236 H236       -7.2830  -16.6404  -53.4957 H         1 UNK         0.0600 
    237 H237       -8.8081  -18.0334  -54.8677 H         1 UNK         0.0600 
    238 H238       -8.6836  -16.4199  -55.5520 H         1 UNK         0.0600 
    239 H239       -7.8201  -17.7579  -56.3022 H         1 UNK         0.0600 
    240 H240       -5.0882  -17.4295  -56.1568 H         1 UNK         0.3000 
    241 H241       -3.5110  -16.3727  -57.2585 H         1 UNK         0.0600 
    242 H242       -6.3446  -15.2422  -57.7635 H         1 UNK         0.3800 
    243 H243       -5.9847  -13.7742  -58.6349 H         1 UNK         0.3800 
    244 H244       -2.1093  -14.6850  -56.0588 H         1 UNK         0.0800 
    245 H245       -3.3497  -14.5159  -54.8431 H         1 UNK         0.0800 
    246 H246       -1.2997  -14.9353  -53.1802 H         1 UNK         0.0800 
    247 H247       -2.7993  -15.6154  -52.5824 H         1 UNK         0.0800 
@<TRIPOS>BOND
     1    1    2 1    
     2    1  127 1    
     3    1  128 1    
     4    1  129 1    
     5    2    3 2    
     6    2    4 am   BACKBONE|DICT|INTERRES
     7    4    5 1    
     8    4  130 1    
     9    5    6 1    
    10    5   65 1    
    11    5  131 1    
    12    6    7 1    
    13    6  132 1    
    14    6  133 1    
    15    7    8 1    
    16    8    9 1    
    17    8  134 1    
    18    8  135 1    
    19    9   10 ar   
    20    9   14 ar   
    21   10   11 ar   
    22   10  136 1    
    23   11   12 ar   
    24   11  126 1    
    25   12   13 ar   
    26   12  137 1    
    27   13   14 ar   
    28   13   15 1    
    29   14  138 1    
    30   15   16 1    
    31   15  139 1    
    32   15  140 1    
    33   16   17 1    
    34   17   18 1    
    35   17  141 1    
    36   17  142 1    
    37   18   19 1    
    38   18   67 1    
    39   18  143 1    
    40   19   20 am   BACKBONE|DICT|INTERRES
    41   19  144 1    
    42   20   21 2    
    43   20   22 1    
    44   22   23 1    
    45   22   24 1    
    46   22  145 1    
    47   23  146 1    
    48   23  147 1    
    49   23  148 1    
    50   24   25 am   BACKBONE|DICT|INTERRES
    51   24  149 1    
    52   25   26 2    
    53   25   27 1    
    54   27   28 1    
    55   27   29 1    
    56   27  150 1    
    57   28  151 1    
    58   28  152 1    
    59   28  153 1    
    60   29   30 am   BACKBONE|DICT|INTERRES
    61   29  154 1    
    62   30   31 2    
    63   30   32 1    
    64   32   33 1    
    65   32   34 1    
    66   32  155 1    
    67   33  156 1    
    68   33  157 1    
    69   33  158 1    
    70   34   35 am   BACKBONE|DICT|INTERRES
    71   34  159 1    
    72   35   36 2    
    73   35   37 1    
    74   37   38 1    
    75   37   39 1    
    76   37  160 1    
    77   38  161 1    
    78   38  162 1    
    79   38  163 1    
    80   39   40 am   BACKBONE|DICT|INTERRES
    81   39  164 1    
    82   40   41 2    
    83   40   42 1    
    84   42   43 1    
    85   42   44 1    
    86   42  165 1    
    87   43  166 1    
    88   43  167 1    
    89   43  168 1    
    90   44   45 am   BACKBONE|DICT|INTERRES
    91   44  169 1    
    92   45   46 2    
    93   45   47 1    
    94   47   48 1    
    95   47   49 1    
    96   47  170 1    
    97   48  171 1    
    98   48  172 1    
    99   48  173 1    
   100   49   50 am   BACKBONE|DICT|INTERRES
   101   49  174 1    
   102   50   51 2    
   103   50   52 1    
   104   52   53 1    
   105   52   54 1    
   106   52  175 1    
   107   53  176 1    
   108   53  177 1    
   109   53  178 1    
   110   54   55 am   BACKBONE|DICT|INTERRES
   111   54  179 1    
   112   55   56 2    
   113   55   57 1    
   114   57   58 1    
   115   57   59 1    
   116   57  180 1    
   117   58  181 1    
   118   58  182 1    
   119   58  183 1    
   120   59   60 am   BACKBONE|DICT|INTERRES
   121   59  184 1    
   122   60   61 2    
   123   60   62 1    
   124   62   63 1    
   125   62   64 1    
   126   62  185 1    
   127   63  186 1    
   128   63  187 1    
   129   63  188 1    
   130   64   65 am   BACKBONE|DICT|INTERRES
   131   64  189 1    
   132   65   66 2    
   133   67   68 2    
   134   67   69 am   BACKBONE|DICT|INTERRES
   135   69   70 1    
   136   69  190 1    
   137   70   71 1    
   138   70   72 1    
   139   70  191 1    
   140   71  192 1    
   141   71  193 1    
   142   71  194 1    
   143   72   73 2    
   144   72   74 am   BACKBONE|DICT|INTERRES
   145   74   75 1    
   146   74  195 1    
   147   75   76 1    
   148   75   77 1    
   149   75  196 1    
   150   76  197 1    
   151   76  198 1    
   152   76  199 1    
   153   77   78 2    
   154   77   79 am   BACKBONE|DICT|INTERRES
   155   79   80 1    
   156   79  200 1    
   157   80   81 1    
   158   80   82 1    
   159   80  201 1    
   160   81  202 1    
   161   81  203 1    
   162   81  204 1    
   163   82   83 2    
   164   82   84 am   BACKBONE|DICT|INTERRES
   165   84   85 1    
   166   84  205 1    
   167   85   86 1    
   168   85   87 1    
   169   85  206 1    
   170   86  207 1    
   171   86  208 1    
   172   86  209 1    
   173   87   88 2    
   174   87   89 am   BACKBONE|DICT|INTERRES
   175   89   90 1    
   176   89  210 1    
   177   90   91 1    
   178   90   92 1    
   179   90  211 1    
   180   91  212 1    
   181   91  213 1    
   182   91  214 1    
   183   92   93 2    
   184   92   94 am   BACKBONE|DICT|INTERRES
   185   94   95 1    
   186   94  215 1    
   187   95   96 1    
   188   95   97 1    
   189   95  216 1    
   190   96  217 1    
   191   96  218 1    
   192   96  219 1    
   193   97   98 2    
   194   97   99 am   BACKBONE|DICT|INTERRES
   195   99  100 1    
   196   99  220 1    
   197  100  101 1    
   198  100  102 1    
   199  100  221 1    
   200  101  222 1    
   201  101  223 1    
   202  101  224 1    
   203  102  103 2    
   204  102  104 am   BACKBONE|DICT|INTERRES
   205  104  105 1    
   206  104  225 1    
   207  105  106 1    
   208  105  107 1    
   209  105  226 1    
   210  106  227 1    
   211  106  228 1    
   212  106  229 1    
   213  107  108 2    
   214  107  109 am   BACKBONE|DICT|INTERRES
   215  109  110 1    
   216  109  230 1    
   217  110  111 1    
   218  110  112 1    
   219  110  231 1    
   220  111  232 1    
   221  111  233 1    
   222  111  234 1    
   223  112  113 2    
   224  112  114 am   BACKBONE|DICT|INTERRES
   225  114  115 1    
   226  114  235 1    
   227  115  116 1    
   228  115  117 1    
   229  115  236 1    
   230  116  237 1    
   231  116  238 1    
   232  116  239 1    
   233  117  118 2    
   234  117  119 am   BACKBONE|DICT|INTERRES
   235  119  120 1    
   236  119  240 1    
   237  120  121 1    
   238  120  124 1    
   239  120  241 1    
   240  121  122 am   BACKBONE|DICT|INTERRES
   241  121  123 2    
   242  122  242 1    
   243  122  243 1    
   244  124  125 1    
   245  124  244 1    
   246  124  245 1    
   247  125  126 1    
   248  126  246 1    
   249  126  247 1    
@<TRIPOS>SUBSTRUCTURE
     1 UNK         1 GROUP             0       ****    0 ROOT    
