@<TRIPOS>MOLECULE
3R540
247   249    1
SMALL
USER_CHARGES


@<TRIPOS>ATOM
      1 CA          3.0404  -15.8129  -45.5646 C.3       0 UNK        -0.1800 
      2 C           2.1791  -15.0324  -46.5422 C.2       0 UNK         0.5000 
      3 O           1.0420  -14.6887  -46.2163 O.2       0 UNK        -0.5000 
      4 N           2.7217  -14.7484  -47.7336 N.am      1 UNK        -0.5000 
      5 CA          2.0330  -14.0893  -48.8529 C.3       1 UNK         0.1400 
      6 C6          2.9172  -14.0648  -50.1289 C.3       23 UNK        -0.0398 
      7 S7          1.9734  -14.4481  -51.6445 S.3       23 UNK        -0.2404 
      8 C8          2.8531  -15.9117  -52.2819 C.3       23 UNK        -0.0205 
      9 C9          2.3195  -17.2193  -51.7101 C.ar      23 UNK        -0.0193 
     10 C10         1.5124  -18.0460  -52.4977 C.ar      23 UNK        -0.1150 
     11 C11         1.0707  -19.2804  -52.0135 C.ar      23 UNK        -0.0193 
     12 C12         1.4248  -19.6811  -50.7220 C.ar      23 UNK        -0.1150 
     13 C13         2.2328  -18.8662  -49.9249 C.ar      23 UNK        -0.0193 
     14 C14         2.6759  -17.6371  -50.4236 C.ar      23 UNK        -0.1150 
     15 C15         2.6797  -19.3356  -48.5493 C.3       23 UNK        -0.0205 
     16 S16         1.5938  -18.7286  -47.2231 S.3       23 UNK        -0.2404 
     17 C17         0.1699  -19.8721  -47.3003 C.3       23 UNK        -0.0398 
     18 CA          0.4783  -21.3650  -47.0153 C.3       11 UNK         0.1400 
     19 N           1.5444  -21.5755  -46.0300 N.am      11 UNK        -0.5000 
     20 C           2.4100  -22.5966  -46.0819 C.2       10 UNK         0.5000 
     21 O           2.3346  -23.5146  -46.8992 O.2       10 UNK        -0.5000 
     22 CA          3.5388  -22.6021  -45.0363 C.3       10 UNK         0.1400 
     23 CB          4.6797  -21.6740  -45.4815 C.3       10 UNK        -0.1800 
     24 N           3.1126  -22.2199  -43.6892 N.am      10 UNK        -0.5000 
     25 C           2.1554  -22.8131  -42.9663 C.2       9 UNK         0.5000 
     26 O           1.4416  -23.7165  -43.3996 O.2       9 UNK        -0.5000 
     27 CA          1.9376  -22.3129  -41.5256 C.3       9 UNK         0.1400 
     28 CB          2.8622  -23.0466  -40.5366 C.3       9 UNK        -0.1800 
     29 N           2.0187  -20.8554  -41.3614 N.am      9 UNK        -0.5000 
     30 C           3.0754  -20.0352  -41.4800 C.2       8 UNK         0.5000 
     31 O           4.2086  -20.4253  -41.7630 O.2       8 UNK        -0.5000 
     32 CA          2.8274  -18.5223  -41.3039 C.3       8 UNK         0.1400 
     33 CB          3.2302  -17.7649  -42.5775 C.3       8 UNK        -0.1800 
     34 N           1.4267  -18.2188  -41.0061 N.am      8 UNK        -0.5000 
     35 C           0.8986  -18.1763  -39.7739 C.2       7 UNK         0.5000 
     36 O           1.5623  -18.2896  -38.7433 O.2       7 UNK        -0.5000 
     37 CA         -0.6327  -18.0189  -39.6722 C.3       7 UNK         0.1400 
     38 CB         -1.0027  -16.5627  -39.3532 C.3       7 UNK        -0.1800 
     39 N          -1.3359  -18.4627  -40.8824 N.am      7 UNK        -0.5000 
     40 C          -1.4023  -19.7452  -41.2772 C.2       6 UNK         0.5000 
     41 O          -0.9247  -20.6722  -40.6243 O.2       6 UNK        -0.5000 
     42 CA         -2.0456  -20.0632  -42.6418 C.3       6 UNK         0.1400 
     43 CB         -3.4434  -20.6711  -42.4614 C.3       6 UNK        -0.1800 
     44 N          -2.1267  -18.9214  -43.5525 N.am      6 UNK        -0.5000 
     45 C          -1.0716  -18.2860  -44.0786 C.2       5 UNK         0.5000 
     46 O           0.0948  -18.6045  -43.8425 O.2       5 UNK        -0.5000 
     47 CA         -1.3590  -17.0841  -45.0032 C.3       5 UNK         0.1400 
     48 CB         -2.8473  -16.9078  -45.3706 C.3       5 UNK        -0.1800 
     49 N          -0.8344  -15.8363  -44.4573 N.am      5 UNK        -0.5000 
     50 C          -1.0759  -15.3121  -43.2476 C.2       4 UNK         0.5000 
     51 O          -1.7897  -15.8418  -42.3952 O.2       4 UNK        -0.5000 
     52 CA         -0.4294  -13.9468  -42.9658 C.3       4 UNK         0.1400 
     53 CB          1.0522  -14.1083  -42.5945 C.3       4 UNK        -0.1800 
     54 N          -0.5597  -13.0642  -44.1276 N.am      4 UNK        -0.5000 
     55 C          -1.6584  -12.3451  -44.3955 C.2       3 UNK         0.5000 
     56 O          -2.6251  -12.2890  -43.6329 O.2       3 UNK        -0.5000 
     57 CA         -1.7191  -11.5869  -45.7410 C.3       3 UNK         0.1400 
     58 CB         -2.4423  -10.2293  -45.6158 C.3       3 UNK        -0.1800 
     59 N          -0.4337  -11.4222  -46.4298 N.am      3 UNK        -0.5000 
     60 C           0.6440  -10.7336  -46.0303 C.2       2 UNK         0.5000 
     61 O           0.7264  -10.1694  -44.9381 O.2       2 UNK        -0.5000 
     62 CA          1.8267  -10.6774  -47.0267 C.3       2 UNK         0.1400 
     63 CB          3.0899  -10.0478  -46.4119 C.3       2 UNK        -0.1800 
     64 N           2.1798  -11.9933  -47.5661 N.am      2 UNK        -0.5000 
     65 C           1.5131  -12.6732  -48.5106 C.2       1 UNK         0.5000 
     66 O           0.5045  -12.2394  -49.0688 O.2       1 UNK        -0.5000 
     67 C          -0.8143  -22.1293  -46.6595 C.2       11 UNK         0.5000 
     68 O          -1.7560  -22.1057  -47.4547 O.2       11 UNK        -0.5000 
     69 N          -0.8586  -22.8072  -45.4998 N.am      12 UNK        -0.5000 
     70 CA         -1.9808  -23.6578  -45.0851 C.3       12 UNK         0.1400 
     71 CB         -1.7942  -24.1054  -43.6286 C.3       12 UNK        -0.1800 
     72 C          -2.1607  -24.8767  -46.0108 C.2       12 UNK         0.5000 
     73 O          -3.2923  -25.2954  -46.2528 O.2       12 UNK        -0.5000 
     74 N          -1.0460  -25.3679  -46.5729 N.am      13 UNK        -0.5000 
     75 CA         -1.0000  -26.4079  -47.6039 C.3       13 UNK         0.1400 
     76 CB          0.4592  -26.8485  -47.7940 C.3       13 UNK        -0.1800 
     77 C          -1.6090  -25.9645  -48.9514 C.2       13 UNK         0.5000 
     78 O          -2.0215  -26.8173  -49.7370 O.2       13 UNK        -0.5000 
     79 N          -1.6855  -24.6460  -49.1785 N.am      14 UNK        -0.5000 
     80 CA         -2.3362  -24.0073  -50.3220 C.3       14 UNK         0.1400 
     81 CB         -1.4317  -22.8741  -50.8370 C.3       14 UNK        -0.1800 
     82 C          -3.7437  -23.5000  -49.9446 C.2       14 UNK         0.5000 
     83 O          -4.2058  -22.5079  -50.5076 O.2       14 UNK        -0.5000 
     84 N          -4.3890  -24.1709  -48.9769 N.am      15 UNK        -0.5000 
     85 CA         -5.7299  -23.9022  -48.4466 C.3       15 UNK         0.1400 
     86 CB         -6.8046  -24.2370  -49.5012 C.3       15 UNK        -0.1800 
     87 C          -5.8708  -22.4847  -47.8533 C.2       15 UNK         0.5000 
     88 O          -6.8867  -21.8216  -48.0653 O.2       15 UNK        -0.5000 
     89 N          -4.8291  -22.0587  -47.1231 N.am      16 UNK        -0.5000 
     90 CA         -4.6442  -20.7318  -46.5285 C.3       16 UNK         0.1400 
     91 CB         -5.7452  -20.4107  -45.4951 C.3       16 UNK        -0.1800 
     92 C          -4.4793  -19.6506  -47.6132 C.2       16 UNK         0.5000 
     93 O          -5.1825  -18.6393  -47.5964 O.2       16 UNK        -0.5000 
     94 N          -3.5308  -19.9008  -48.5281 N.am      17 UNK        -0.5000 
     95 CA         -3.1519  -19.0559  -49.6666 C.3       17 UNK         0.1400 
     96 CB         -2.4617  -17.7627  -49.1767 C.3       17 UNK        -0.1800 
     97 C          -4.3311  -18.7699  -50.6243 C.2       17 UNK         0.5000 
     98 O          -4.5523  -17.6191  -51.0093 O.2       17 UNK        -0.5000 
     99 N          -5.0922  -19.8167  -50.9689 N.am      18 UNK        -0.5000 
    100 CA        -6.2444  -19.7339  -51.8633 C.3       18 UNK         0.1400 
    101 CB        -7.0523  -21.0359  -51.7698 C.3       18 UNK        -0.1800 
    102 C         -5.8070  -19.4922  -53.3157 C.2       18 UNK         0.5000 
    103 O         -4.8595  -20.1282  -53.7797 O.2       18 UNK        -0.5000 
    104 N         -6.5400  -18.6319  -54.0344 N.am      19 UNK        -0.5000 
    105 CA        -6.2837  -18.2919  -55.4392 C.3       19 UNK         0.1400 
    106 CB        -7.2509  -17.1819  -55.8763 C.3       19 UNK        -0.1800 
    107 C         -6.3760  -19.4974  -56.3957 C.2       19 UNK         0.5000 
    108 O         -5.6595  -19.5367  -57.3955 O.2       19 UNK        -0.5000 
    109 N         -7.2170  -20.4803  -56.0455 N.am      20 UNK        -0.5000 
    110 CA        -7.3542  -21.7553  -56.7509 C.3       20 UNK         0.1400 
    111 CB        -8.5819  -22.4969  -56.2000 C.3       20 UNK        -0.1800 
    112 C         -6.0997  -22.6486  -56.6579 C.2       20 UNK         0.5000 
    113 O         -5.8810  -23.4679  -57.5513 O.2       20 UNK        -0.5000 
    114 N         -5.3052  -22.4791  -55.5922 N.am      21 UNK        -0.5000 
    115 CA        -4.0429  -23.1818  -55.3794 C.3       21 UNK         0.1400 
    116 CB        -3.8874  -23.5068  -53.8841 C.3       21 UNK        -0.1800 
    117 C         -2.8584  -22.3401  -55.8797 C.2       21 UNK         0.5000 
    118 O         -1.9962  -22.8650  -56.5857 O.2       21 UNK        -0.5000 
    119 N         -2.8313  -21.0584  -55.4946 N.am      22 UNK        -0.5000 
    120 CA        -1.7192  -20.1321  -55.7564 C.3       22 UNK         0.1400 
    121 C         -1.7075  -19.5043  -57.1782 C.2       22 UNK         0.5000 
    122 N         -2.7961  -19.5262  -57.9360 N.am      22 UNK        -0.7600 
    123 O         -0.6778  -18.9938  -57.6106 O.2       22 UNK        -0.5000 
    124 C124       -1.6099  -19.0339  -54.6658 C.3       23 UNK        -0.0398 
    125 S125       -1.4895  -19.7209  -52.9787 S.3       23 UNK        -0.2404 
    126 C126        0.2604  -20.2066  -52.9043 C.3       23 UNK        -0.0205 
    127 H127        3.4789  -15.1458  -44.8232 H         1 UNK         0.0600 
    128 H128        3.8450  -16.3459  -46.0717 H         1 UNK         0.0600 
    129 H129        2.4223  -16.5474  -45.0511 H         1 UNK         0.0600 
    130 H130        3.6696  -15.0445  -47.9153 H         1 UNK         0.3000 
    131 H131        1.1514  -14.7043  -49.0480 H         1 UNK         0.0600 
    132 H132        3.7354  -14.7788  -50.0416 H         1 UNK         0.0800 
    133 H133        3.4127  -13.1012  -50.2641 H         1 UNK         0.0800 
    134 H134        2.7529  -15.9163  -53.3684 H         1 UNK         0.0800 
    135 H135        3.9235  -15.8287  -52.0894 H         1 UNK         0.0800 
    136 H136        1.2467  -17.7411  -53.4999 H         1 UNK         0.1150 
    137 H137        1.0949  -20.6401  -50.3483 H         1 UNK         0.1150 
    138 H138        3.3156  -17.0183  -49.8127 H         1 UNK         0.1150 
    139 H139        2.7472  -20.4233  -48.5168 H         1 UNK         0.0800 
    140 H140        3.6900  -18.9728  -48.3552 H         1 UNK         0.0800 
    141 H141       -0.2852  -19.7822  -48.2871 H         1 UNK         0.0800 
    142 H142       -0.5744  -19.4983  -46.5998 H         1 UNK         0.0800 
    143 H143        0.8112  -21.7900  -47.9647 H         1 UNK         0.0600 
    144 H144        1.6695  -20.8540  -45.3334 H         1 UNK         0.3000 
    145 H145        3.9278  -23.6206  -44.9785 H         1 UNK         0.0600 
    146 H146        5.5296  -21.7400  -44.8020 H         1 UNK         0.0600 
    147 H147        5.0379  -21.9422  -46.4764 H         1 UNK         0.0600 
    148 H148        4.3598  -20.6315  -45.5172 H         1 UNK         0.0600 
    149 H149        3.6591  -21.5025  -43.2210 H         1 UNK         0.3000 
    150 H150        0.9124  -22.5782  -41.2633 H         1 UNK         0.0600 
    151 H151        2.7053  -24.1247  -40.5872 H         1 UNK         0.0600 
    152 H152        2.6650  -22.7375  -39.5101 H         1 UNK         0.0600 
    153 H153        3.9162  -22.8630  -40.7465 H         1 UNK         0.0600 
    154 H154        1.1319  -20.4259  -41.1291 H         1 UNK         0.3000 
    155 H155        3.4617  -18.1748  -40.4861 H         1 UNK         0.0600 
    156 H156        3.0061  -16.7013  -42.4965 H         1 UNK         0.0600 
    157 H157        2.7094  -18.1578  -43.4508 H         1 UNK         0.0600 
    158 H158        4.3001  -17.8579  -42.7680 H         1 UNK         0.0600 
    159 H159        0.8115  -18.1422  -41.8078 H         1 UNK         0.3000 
    160 H160       -0.9735  -18.6408  -38.8416 H         1 UNK         0.0600 
    161 H161       -2.0834  -16.4206  -39.3337 H         1 UNK         0.0600 
    162 H162       -0.6183  -16.2723  -38.3748 H         1 UNK         0.0600 
    163 H163       -0.5831  -15.8694  -40.0819 H         1 UNK         0.0600 
    164 H164       -1.7175  -17.7340  -41.4769 H         1 UNK         0.3000 
    165 H165       -1.4121  -20.8147  -43.1176 H         1 UNK         0.0600 
    166 H166       -3.8264  -21.0555  -43.4054 H         1 UNK         0.0600 
    167 H167       -3.4209  -21.5087  -41.7627 H         1 UNK         0.0600 
    168 H168       -4.1555  -19.9404  -42.0763 H         1 UNK         0.0600 
    169 H169       -3.0497  -18.5621  -43.7468 H         1 UNK         0.3000 
    170 H170       -0.8083  -17.2621  -45.9267 H         1 UNK         0.0600 
    171 H171       -3.2504  -17.8142  -45.8176 H         1 UNK         0.0600 
    172 H172       -3.4622  -16.6573  -44.5054 H         1 UNK         0.0600 
    173 H173       -2.9730  -16.1102  -46.1031 H         1 UNK         0.0600 
    174 H174       -0.1973  -15.3363  -45.0748 H         1 UNK         0.3000 
    175 H175       -0.9403  -13.5015  -42.1094 H         1 UNK         0.0600 
    176 H176        1.6267  -14.5483  -43.4077 H         1 UNK         0.0600 
    177 H177        1.5028  -13.1466  -42.3487 H         1 UNK         0.0600 
    178 H178        1.1685  -14.7557  -41.7243 H         1 UNK         0.0600 
    179 H179        0.1700  -13.1108  -44.8268 H         1 UNK         0.3000 
    180 H180       -2.3220  -12.2145  -46.3986 H         1 UNK         0.0600 
    181 H181       -2.5012   -9.7231  -46.5794 H         1 UNK         0.0600 
    182 H182       -1.9348   -9.5636  -44.9171 H         1 UNK         0.0600 
    183 H183       -3.4646  -10.3585  -45.2585 H         1 UNK         0.0600 
    184 H184       -0.3740  -11.8513  -47.3484 H         1 UNK         0.3000 
    185 H185        1.5101  -10.0396  -47.8545 H         1 UNK         0.0600 
    186 H186        3.8934   -9.9786  -47.1455 H         1 UNK         0.0600 
    187 H187        2.8918   -9.0357  -46.0566 H         1 UNK         0.0600 
    188 H188        3.4572  -10.6287  -45.5649 H         1 UNK         0.0600 
    189 H189        2.9694  -12.4505  -47.1342 H         1 UNK         0.3000 
    190 H190       -0.0374  -22.8196  -44.9079 H         1 UNK         0.3000 
    191 H191       -2.8919  -23.0593  -45.1360 H         1 UNK         0.0600 
    192 H192       -2.6827  -24.6248  -43.2676 H         1 UNK         0.0600 
    193 H193       -1.6224  -23.2575  -42.9662 H         1 UNK         0.0600 
    194 H194       -0.9533  -24.7910  -43.5219 H         1 UNK         0.0600 
    195 H195       -0.1602  -24.9565  -46.3138 H         1 UNK         0.3000 
    196 H196       -1.5763  -27.2644  -47.2480 H         1 UNK         0.0600 
    197 H197        1.0885  -26.0217  -48.1267 H         1 UNK         0.0600 
    198 H198        0.8786  -27.2362  -46.8654 H         1 UNK         0.0600 
    199 H199        0.5355  -27.6411  -48.5397 H         1 UNK         0.0600 
    200 H200       -1.3731  -24.0142  -48.4538 H         1 UNK         0.3000 
    201 H201       -2.4642  -24.7274  -51.1324 H         1 UNK         0.0600 
    202 H202       -1.3298  -22.0692  -50.1090 H         1 UNK         0.0600 
    203 H203       -1.8385  -22.4397  -51.7502 H         1 UNK         0.0600 
    204 H204       -0.4334  -23.2424  -51.0726 H         1 UNK         0.0600 
    205 H205       -3.9024  -24.9403  -48.5370 H         1 UNK         0.3000 
    206 H206       -5.8696  -24.5890  -47.6105 H         1 UNK         0.0600 
    207 H207       -6.7130  -25.2688  -49.8402 H         1 UNK         0.0600 
    208 H208       -7.8087  -24.1194  -49.0922 H         1 UNK         0.0600 
    209 H209       -6.7287  -23.5925  -50.3757 H         1 UNK         0.0600 
    210 H210       -4.0226  -22.6663  -47.0806 H         1 UNK         0.3000 
    211 H211       -3.6979  -20.7667  -45.9870 H         1 UNK         0.0600 
    212 H212       -5.5044  -19.5013  -44.9437 H         1 UNK         0.0600 
    213 H213       -5.8529  -21.2152  -44.7679 H         1 UNK         0.0600 
    214 H214       -6.7166  -20.2549  -45.9649 H         1 UNK         0.0600 
    215 H215       -3.0278  -20.7773  -48.4466 H         1 UNK         0.3000 
    216 H216       -2.4187  -19.6297  -50.2327 H         1 UNK         0.0600 
    217 H217       -1.6530  -17.9696  -48.4793 H         1 UNK         0.0600 
    218 H218       -2.0307  -17.2138  -50.0148 H         1 UNK         0.0600 
    219 H219       -3.1637  -17.0957  -48.6753 H         1 UNK         0.0600 
    220 H220       -4.8113  -20.7511  -50.6789 H         1 UNK         0.3000 
    221 H221       -6.8776  -18.9073  -51.5344 H         1 UNK         0.0600 
    222 H222       -7.3850  -21.2188  -50.7482 H         1 UNK         0.0600 
    223 H223       -6.4629  -21.8958  -52.0915 H         1 UNK         0.0600 
    224 H224       -7.9421  -20.9933  -52.3989 H         1 UNK         0.0600 
    225 H225       -7.3120  -18.1549  -53.5912 H         1 UNK         0.3000 
    226 H226       -5.2650  -17.9037  -55.5044 H         1 UNK         0.0600 
    227 H227       -8.2910  -17.5021  -55.8033 H         1 UNK         0.0600 
    228 H228       -7.1296  -16.2885  -55.2634 H         1 UNK         0.0600 
    229 H229       -7.0688  -16.8906  -56.9117 H         1 UNK         0.0600 
    230 H230       -7.7688  -20.3617  -55.2091 H         1 UNK         0.3000 
    231 H231       -7.5280  -21.5406  -57.8074 H         1 UNK         0.0600 
    232 H232       -8.4733  -22.7211  -55.1380 H         1 UNK         0.0600 
    233 H233       -8.7333  -23.4431  -56.7214 H         1 UNK         0.0600 
    234 H234       -9.4901  -21.9079  -56.3289 H         1 UNK         0.0600 
    235 H235       -5.5187  -21.7408  -54.9330 H         1 UNK         0.3000 
    236 H236       -4.0419  -24.1270  -55.9264 H         1 UNK         0.0600 
    237 H237       -2.9540  -24.0383  -53.6955 H         1 UNK         0.0600 
    238 H238       -3.8797  -22.6050  -53.2708 H         1 UNK         0.0600 
    239 H239       -4.7009  -24.1403  -53.5307 H         1 UNK         0.0600 
    240 H240       -3.5640  -20.7101  -54.8791 H         1 UNK         0.3000 
    241 H241       -0.7999  -20.7179  -55.7018 H         1 UNK         0.0600 
    242 H242       -2.7585  -19.1197  -58.8569 H         1 UNK         0.3800 
    243 H243       -3.6836  -19.8691  -57.5866 H         1 UNK         0.3800 
    244 H244       -2.4872  -18.3858  -54.6987 H         1 UNK         0.0800 
    245 H245       -0.7475  -18.3894  -54.8437 H         1 UNK         0.0800 
    246 H246        0.6988  -20.2267  -53.9025 H         1 UNK         0.0800 
    247 H247        0.3209  -21.2310  -52.5357 H         1 UNK         0.0800 
@<TRIPOS>BOND
     1    1    2 1    
     2    1  127 1    
     3    1  128 1    
     4    1  129 1    
     5    2    3 2    
     6    2    4 am   BACKBONE|DICT|INTERRES
     7    4    5 1    
     8    4  130 1    
     9    5    6 1    
    10    5   65 1    
    11    5  131 1    
    12    6    7 1    
    13    6  132 1    
    14    6  133 1    
    15    7    8 1    
    16    8    9 1    
    17    8  134 1    
    18    8  135 1    
    19    9   10 ar   
    20    9   14 ar   
    21   10   11 ar   
    22   10  136 1    
    23   11   12 ar   
    24   11  126 1    
    25   12   13 ar   
    26   12  137 1    
    27   13   14 ar   
    28   13   15 1    
    29   14  138 1    
    30   15   16 1    
    31   15  139 1    
    32   15  140 1    
    33   16   17 1    
    34   17   18 1    
    35   17  141 1    
    36   17  142 1    
    37   18   19 1    
    38   18   67 1    
    39   18  143 1    
    40   19   20 am   BACKBONE|DICT|INTERRES
    41   19  144 1    
    42   20   21 2    
    43   20   22 1    
    44   22   23 1    
    45   22   24 1    
    46   22  145 1    
    47   23  146 1    
    48   23  147 1    
    49   23  148 1    
    50   24   25 am   BACKBONE|DICT|INTERRES
    51   24  149 1    
    52   25   26 2    
    53   25   27 1    
    54   27   28 1    
    55   27   29 1    
    56   27  150 1    
    57   28  151 1    
    58   28  152 1    
    59   28  153 1    
    60   29   30 am   BACKBONE|DICT|INTERRES
    61   29  154 1    
    62   30   31 2    
    63   30   32 1    
    64   32   33 1    
    65   32   34 1    
    66   32  155 1    
    67   33  156 1    
    68   33  157 1    
    69   33  158 1    
    70   34   35 am   BACKBONE|DICT|INTERRES
    71   34  159 1    
    72   35   36 2    
    73   35   37 1    
    74   37   38 1    
    75   37   39 1    
    76   37  160 1    
    77   38  161 1    
    78   38  162 1    
    79   38  163 1    
    80   39   40 am   BACKBONE|DICT|INTERRES
    81   39  164 1    
    82   40   41 2    
    83   40   42 1    
    84   42   43 1    
    85   42   44 1    
    86   42  165 1    
    87   43  166 1    
    88   43  167 1    
    89   43  168 1    
    90   44   45 am   BACKBONE|DICT|INTERRES
    91   44  169 1    
    92   45   46 2    
    93   45   47 1    
    94   47   48 1    
    95   47   49 1    
    96   47  170 1    
    97   48  171 1    
    98   48  172 1    
    99   48  173 1    
   100   49   50 am   BACKBONE|DICT|INTERRES
   101   49  174 1    
   102   50   51 2    
   103   50   52 1    
   104   52   53 1    
   105   52   54 1    
   106   52  175 1    
   107   53  176 1    
   108   53  177 1    
   109   53  178 1    
   110   54   55 am   BACKBONE|DICT|INTERRES
   111   54  179 1    
   112   55   56 2    
   113   55   57 1    
   114   57   58 1    
   115   57   59 1    
   116   57  180 1    
   117   58  181 1    
   118   58  182 1    
   119   58  183 1    
   120   59   60 am   BACKBONE|DICT|INTERRES
   121   59  184 1    
   122   60   61 2    
   123   60   62 1    
   124   62   63 1    
   125   62   64 1    
   126   62  185 1    
   127   63  186 1    
   128   63  187 1    
   129   63  188 1    
   130   64   65 am   BACKBONE|DICT|INTERRES
   131   64  189 1    
   132   65   66 2    
   133   67   68 2    
   134   67   69 am   BACKBONE|DICT|INTERRES
   135   69   70 1    
   136   69  190 1    
   137   70   71 1    
   138   70   72 1    
   139   70  191 1    
   140   71  192 1    
   141   71  193 1    
   142   71  194 1    
   143   72   73 2    
   144   72   74 am   BACKBONE|DICT|INTERRES
   145   74   75 1    
   146   74  195 1    
   147   75   76 1    
   148   75   77 1    
   149   75  196 1    
   150   76  197 1    
   151   76  198 1    
   152   76  199 1    
   153   77   78 2    
   154   77   79 am   BACKBONE|DICT|INTERRES
   155   79   80 1    
   156   79  200 1    
   157   80   81 1    
   158   80   82 1    
   159   80  201 1    
   160   81  202 1    
   161   81  203 1    
   162   81  204 1    
   163   82   83 2    
   164   82   84 am   BACKBONE|DICT|INTERRES
   165   84   85 1    
   166   84  205 1    
   167   85   86 1    
   168   85   87 1    
   169   85  206 1    
   170   86  207 1    
   171   86  208 1    
   172   86  209 1    
   173   87   88 2    
   174   87   89 am   BACKBONE|DICT|INTERRES
   175   89   90 1    
   176   89  210 1    
   177   90   91 1    
   178   90   92 1    
   179   90  211 1    
   180   91  212 1    
   181   91  213 1    
   182   91  214 1    
   183   92   93 2    
   184   92   94 am   BACKBONE|DICT|INTERRES
   185   94   95 1    
   186   94  215 1    
   187   95   96 1    
   188   95   97 1    
   189   95  216 1    
   190   96  217 1    
   191   96  218 1    
   192   96  219 1    
   193   97   98 2    
   194   97   99 am   BACKBONE|DICT|INTERRES
   195   99  100 1    
   196   99  220 1    
   197  100  101 1    
   198  100  102 1    
   199  100  221 1    
   200  101  222 1    
   201  101  223 1    
   202  101  224 1    
   203  102  103 2    
   204  102  104 am   BACKBONE|DICT|INTERRES
   205  104  105 1    
   206  104  225 1    
   207  105  106 1    
   208  105  107 1    
   209  105  226 1    
   210  106  227 1    
   211  106  228 1    
   212  106  229 1    
   213  107  108 2    
   214  107  109 am   BACKBONE|DICT|INTERRES
   215  109  110 1    
   216  109  230 1    
   217  110  111 1    
   218  110  112 1    
   219  110  231 1    
   220  111  232 1    
   221  111  233 1    
   222  111  234 1    
   223  112  113 2    
   224  112  114 am   BACKBONE|DICT|INTERRES
   225  114  115 1    
   226  114  235 1    
   227  115  116 1    
   228  115  117 1    
   229  115  236 1    
   230  116  237 1    
   231  116  238 1    
   232  116  239 1    
   233  117  118 2    
   234  117  119 am   BACKBONE|DICT|INTERRES
   235  119  120 1    
   236  119  240 1    
   237  120  121 1    
   238  120  124 1    
   239  120  241 1    
   240  121  122 am   BACKBONE|DICT|INTERRES
   241  121  123 2    
   242  122  242 1    
   243  122  243 1    
   244  124  125 1    
   245  124  244 1    
   246  124  245 1    
   247  125  126 1    
   248  126  246 1    
   249  126  247 1    
@<TRIPOS>SUBSTRUCTURE
     1 UNK         1 GROUP             0       ****    0 ROOT    
