@<TRIPOS>MOLECULE
3R540
247   249    1
SMALL
USER_CHARGES


@<TRIPOS>ATOM
      1 CA          5.5987  -11.8924  -47.0824 C.3       0 UNK        -0.1800 
      2 C           4.7110  -12.9283  -47.7568 C.2       0 UNK         0.5000 
      3 O           3.9624  -13.6174  -47.0642 O.2       0 UNK        -0.5000 
      4 N           4.8053  -13.0303  -49.0922 N.am      1 UNK        -0.5000 
      5 CA          4.0663  -13.9280  -49.9958 C.3       1 UNK         0.1400 
      6 C6          2.7042  -13.3443  -50.4782 C.3       23 UNK        -0.0398 
      7 S7          1.4380  -13.1177  -49.1818 S.3       23 UNK        -0.2404 
      8 C8         -0.0471  -12.7592  -50.1635 C.3       23 UNK        -0.0205 
      9 C9         -0.6307  -14.0059  -50.8117 C.ar      23 UNK        -0.0193 
     10 C10        -0.4634  -14.2309  -52.1817 C.ar      23 UNK        -0.1150 
     11 C11        -1.0624  -15.3340  -52.7951 C.ar      23 UNK        -0.0193 
     12 C12        -1.8263  -16.2166  -52.0293 C.ar      23 UNK        -0.1150 
     13 C13        -1.9921  -16.0122  -50.6570 C.ar      23 UNK        -0.0193 
     14 C14        -1.3870  -14.9058  -50.0519 C.ar      23 UNK        -0.1150 
     15 C15        -2.8834  -16.9484  -49.8529 C.3       23 UNK        -0.0205 
     16 S16        -2.3971  -18.6958  -50.0279 S.3       23 UNK        -0.2404 
     17 C17        -1.6947  -19.0408  -48.3856 C.3       23 UNK        -0.0398 
     18 CA         -1.1098  -20.4718  -48.2961 C.3       11 UNK         0.1400 
     19 N          -0.0674  -20.5948  -47.2750 N.am      11 UNK        -0.5000 
     20 C           0.6651  -21.6979  -47.0553 C.2       10 UNK         0.5000 
     21 O           0.5978  -22.7162  -47.7414 O.2       10 UNK        -0.5000 
     22 CA          1.5832  -21.6896  -45.8221 C.3       10 UNK         0.1400 
     23 CB          2.9549  -21.0907  -46.1601 C.3       10 UNK        -0.1800 
     24 N           0.9776  -20.9806  -44.6930 N.am      10 UNK        -0.5000 
     25 C          -0.0908  -21.4370  -44.0220 C.2       9 UNK         0.5000 
     26 O          -0.6415  -22.5115  -44.2639 O.2       9 UNK        -0.5000 
     27 CA         -0.6683  -20.5217  -42.9284 C.3       9 UNK         0.1400 
     28 CB          0.1157  -20.6890  -41.6187 C.3       9 UNK        -0.1800 
     29 N          -0.6966  -19.1071  -43.3069 N.am      9 UNK        -0.5000 
     30 C          -1.3797  -18.6035  -44.3461 C.2       8 UNK         0.5000 
     31 O          -2.0483  -19.2956  -45.1158 O.2       8 UNK        -0.5000 
     32 CA         -1.2772  -17.0806  -44.5644 C.3       8 UNK         0.1400 
     33 CB         -2.4102  -16.5014  -45.4362 C.3       8 UNK        -0.1800 
     34 N          -1.1356  -16.3322  -43.3115 N.am      8 UNK        -0.5000 
     35 C          -2.0495  -16.1860  -42.3397 C.2       7 UNK         0.5000 
     36 O          -3.1738  -16.6886  -42.3722 O.2       7 UNK        -0.5000 
     37 CA         -1.6301  -15.3120  -41.1381 C.3       7 UNK         0.1400 
     38 CB         -2.4942  -15.5486  -39.8811 C.3       7 UNK        -0.1800 
     39 N          -0.2000  -15.4074  -40.8242 N.am      7 UNK        -0.5000 
     40 C           0.4691  -16.4894  -40.3952 C.2       6 UNK         0.5000 
     41 O          -0.0653  -17.5793  -40.1934 O.2       6 UNK        -0.5000 
     42 CA          1.9906  -16.3407  -40.1828 C.3       6 UNK         0.1400 
     43 CB          2.7447  -17.6172  -40.5971 C.3       6 UNK        -0.1800 
     44 N           2.5227  -15.2128  -40.9480 N.am      6 UNK        -0.5000 
     45 C           2.8592  -14.0146  -40.4509 C.2       5 UNK         0.5000 
     46 O           2.8304  -13.7407  -39.2510 O.2       5 UNK        -0.5000 
     47 CA          3.2719  -12.9243  -41.4644 C.3       5 UNK         0.1400 
     48 CB          4.8020  -12.8036  -41.5275 C.3       5 UNK        -0.1800 
     49 N           2.7620  -13.1537  -42.8192 N.am      5 UNK        -0.5000 
     50 C           1.4687  -13.1558  -43.1730 C.2       4 UNK         0.5000 
     51 O           0.5487  -12.8978  -42.3970 O.2       4 UNK        -0.5000 
     52 CA          1.1464  -13.6000  -44.6139 C.3       4 UNK         0.1400 
     53 CB          1.0523  -12.3817  -45.5410 C.3       4 UNK        -0.1800 
     54 N           2.1078  -14.5696  -45.1564 N.am      4 UNK        -0.5000 
     55 C           2.3580  -15.7730  -44.6223 C.2       3 UNK         0.5000 
     56 O           1.7582  -16.2049  -43.6350 O.2       3 UNK        -0.5000 
     57 CA          3.4894  -16.5980  -45.2630 C.3       3 UNK         0.1400 
     58 CB          3.6750  -17.9737  -44.5928 C.3       3 UNK        -0.1800 
     59 N           3.3583  -16.7380  -46.7142 N.am      3 UNK        -0.5000 
     60 C           2.3796  -17.3295  -47.4129 C.2       2 UNK         0.5000 
     61 O           1.3822  -17.8463  -46.9038 O.2       2 UNK        -0.5000 
     62 CA          2.5831  -17.3491  -48.9457 C.3       2 UNK         0.1400 
     63 CB          1.4005  -17.9469  -49.7227 C.3       2 UNK        -0.1800 
     64 N           2.8397  -16.0083  -49.4653 N.am      2 UNK        -0.5000 
     65 C           4.0281  -15.3955  -49.5019 C.2       1 UNK         0.5000 
     66 O           5.0759  -15.9409  -49.1468 O.2       1 UNK        -0.5000 
     67 C          -2.2306  -21.5034  -48.0786 C.2       11 UNK         0.5000 
     68 O          -2.5602  -22.2500  -48.9993 O.2       11 UNK        -0.5000 
     69 N          -2.7630  -21.5462  -46.8492 N.am      12 UNK        -0.5000 
     70 CA         -3.8031  -22.4815  -46.4283 C.3       12 UNK         0.1400 
     71 CB         -4.2450  -22.1503  -44.9960 C.3       12 UNK        -0.1800 
     72 C          -3.3671  -23.9519  -46.5475 C.2       12 UNK         0.5000 
     73 O          -4.1505  -24.7711  -47.0262 O.2       12 UNK        -0.5000 
     74 N          -2.1228  -24.2525  -46.1532 N.am      13 UNK        -0.5000 
     75 CA         -1.5201  -25.5786  -46.2756 C.3       13 UNK         0.1400 
     76 CB         -0.1815  -25.6086  -45.5221 C.3       13 UNK        -0.1800 
     77 C          -1.3371  -26.0194  -47.7399 C.2       13 UNK         0.5000 
     78 O          -1.7350  -27.1308  -48.0906 O.2       13 UNK        -0.5000 
     79 N          -0.7510  -25.1434  -48.5678 N.am      14 UNK        -0.5000 
     80 CA         -0.4460  -25.4141  -49.9734 C.3       14 UNK         0.1400 
     81 CB          0.5163  -24.3412  -50.5033 C.3       14 UNK        -0.1800 
     82 C          -1.6962  -25.5035  -50.8648 C.2       14 UNK         0.5000 
     83 O          -1.7574  -26.3731  -51.7348 O.2       14 UNK        -0.5000 
     84 N          -2.6679  -24.6109  -50.6367 N.am      15 UNK        -0.5000 
     85 CA         -3.9008  -24.5203  -51.4205 C.3       15 UNK         0.1400 
     86 CB         -4.3802  -23.0624  -51.4107 C.3       15 UNK        -0.1800 
     87 C          -5.0187  -25.4549  -50.9205 C.2       15 UNK         0.5000 
     88 O          -6.0784  -25.4902  -51.5447 O.2       15 UNK        -0.5000 
     89 N          -4.7922  -26.1612  -49.8023 N.am      16 UNK        -0.5000 
     90 CA         -5.7390  -27.0445  -49.1100 C.3       16 UNK         0.1400 
     91 CB         -6.0593  -28.2893  -49.9635 C.3       16 UNK        -0.1800 
     92 C          -6.9969  -26.2803  -48.6449 C.2       16 UNK         0.5000 
     93 O          -8.1221  -26.6424  -48.9918 O.2       16 UNK        -0.5000 
     94 N          -6.7506  -25.2012  -47.8908 N.am      17 UNK        -0.5000 
     95 CA         -7.6977  -24.2572  -47.2865 C.3       17 UNK         0.1400 
     96 CB         -8.6963  -24.9795  -46.3592 C.3       17 UNK        -0.1800 
     97 C          -8.4083  -23.3098  -48.2769 C.2       17 UNK         0.5000 
     98 O          -9.1835  -22.4631  -47.8306 O.2       17 UNK        -0.5000 
     99 N          -8.1254  -23.4194  -49.5839 N.am      18 UNK        -0.5000 
    100 CA        -8.6924  -22.5481  -50.6203 C.3       18 UNK         0.1400 
    101 CB        -8.5465  -23.2242  -51.9916 C.3       18 UNK        -0.1800 
    102 C         -8.0682  -21.1372  -50.6436 C.2       18 UNK         0.5000 
    103 O         -8.7030  -20.2115  -51.1492 O.2       18 UNK        -0.5000 
    104 N         -6.8486  -21.0076  -50.0955 N.am      19 UNK        -0.5000 
    105 CA        -6.0450  -19.7853  -49.9692 C.3       19 UNK         0.1400 
    106 CB        -6.6576  -18.8447  -48.9124 C.3       19 UNK        -0.1800 
    107 C         -5.7838  -19.0906  -51.3241 C.2       19 UNK         0.5000 
    108 O         -6.0542  -17.8987  -51.4812 O.2       19 UNK        -0.5000 
    109 N         -5.2629  -19.8660  -52.2815 N.am      20 UNK        -0.5000 
    110 CA        -4.9313  -19.4265  -53.6366 C.3       20 UNK         0.1400 
    111 CB        -6.1539  -19.6178  -54.5541 C.3       20 UNK        -0.1800 
    112 C         -3.6773  -20.1674  -54.1343 C.2       20 UNK         0.5000 
    113 O         -3.6397  -20.6354  -55.2741 O.2       20 UNK        -0.5000 
    114 N         -2.6708  -20.2827  -53.2547 N.am      21 UNK        -0.5000 
    115 CA        -1.4541  -21.0803  -53.4540 C.3       21 UNK         0.1400 
    116 CB        -0.6422  -21.0840  -52.1523 C.3       21 UNK        -0.1800 
    117 C         -0.5684  -20.6478  -54.6390 C.2       21 UNK         0.5000 
    118 O          0.2120  -21.4634  -55.1320 O.2       21 UNK        -0.5000 
    119 N         -0.7087  -19.3929  -55.0837 N.am      22 UNK        -0.5000 
    120 CA        -0.0271  -18.8491  -56.2706 C.3       22 UNK         0.1400 
    121 C         -0.5796  -19.3875  -57.6254 C.2       22 UNK         0.5000 
    122 N         -1.7261  -20.0593  -57.6631 N.am      22 UNK        -0.7600 
    123 O          0.0471  -19.1926  -58.6633 O.2       22 UNK        -0.5000 
    124 C124        0.0129  -17.2971  -56.2826 C.3       23 UNK        -0.0398 
    125 S125        0.5322  -16.5640  -54.6897 S.3       23 UNK        -0.2404 
    126 C126       -0.9299  -15.5575  -54.2908 C.3       23 UNK        -0.0205 
    127 H127        6.2056  -11.3444  -47.8034 H         1 UNK         0.0600 
    128 H128        6.2679  -12.3785  -46.3726 H         1 UNK         0.0600 
    129 H129        4.9859  -11.1744  -46.5375 H         1 UNK         0.0600 
    130 H130        5.4748  -12.4357  -49.5595 H         1 UNK         0.3000 
    131 H131        4.6924  -13.9764  -50.8880 H         1 UNK         0.0600 
    132 H132        2.8777  -12.3710  -50.9388 H         1 UNK         0.0800 
    133 H133        2.2943  -13.9680  -51.2741 H         1 UNK         0.0800 
    134 H134       -0.7973  -12.3148  -49.5079 H         1 UNK         0.0800 
    135 H135        0.1852  -12.0012  -50.9132 H         1 UNK         0.0800 
    136 H136        0.1130  -13.5362  -52.7765 H         1 UNK         0.1150 
    137 H137       -2.3066  -17.0600  -52.5045 H         1 UNK         0.1150 
    138 H138       -1.5253  -14.7257  -48.9949 H         1 UNK         0.1150 
    139 H139       -2.8984  -16.6642  -48.8005 H         1 UNK         0.0800 
    140 H140       -3.9069  -16.8326  -50.2094 H         1 UNK         0.0800 
    141 H141       -0.9292  -18.2960  -48.1764 H         1 UNK         0.0800 
    142 H142       -2.4728  -18.8785  -47.6395 H         1 UNK         0.0800 
    143 H143       -0.6218  -20.7068  -49.2428 H         1 UNK         0.0600 
    144 H144        0.0728  -19.7938  -46.6743 H         1 UNK         0.3000 
    145 H145        1.7411  -22.7270  -45.5195 H         1 UNK         0.0600 
    146 H146        3.6112  -21.0860  -45.2899 H         1 UNK         0.0600 
    147 H147        3.4498  -21.6748  -46.9369 H         1 UNK         0.0600 
    148 H148        2.8715  -20.0702  -46.5286 H         1 UNK         0.0600 
    149 H149        1.3581  -20.0781  -44.4515 H         1 UNK         0.3000 
    150 H150       -1.6988  -20.8361  -42.7506 H         1 UNK         0.0600 
    151 H151        0.1887  -21.7401  -41.3361 H         1 UNK         0.0600 
    152 H152       -0.3782  -20.1702  -40.7974 H         1 UNK         0.0600 
    153 H153        1.1307  -20.2983  -41.7015 H         1 UNK         0.0600 
    154 H154       -0.2000  -18.4660  -42.7043 H         1 UNK         0.3000 
    155 H155       -0.3500  -16.9246  -45.1139 H         1 UNK         0.0600 
    156 H156       -2.3279  -15.4180  -45.5222 H         1 UNK         0.0600 
    157 H157       -3.3958  -16.7348  -45.0330 H         1 UNK         0.0600 
    158 H158       -2.3672  -16.9048  -46.4457 H         1 UNK         0.0600 
    159 H159       -0.2086  -15.9523  -43.1551 H         1 UNK         0.3000 
    160 H160       -1.7959  -14.2808  -41.4531 H         1 UNK         0.0600 
    161 H161       -2.4498  -16.5848  -39.5454 H         1 UNK         0.0600 
    162 H162       -3.5412  -15.3156  -40.0780 H         1 UNK         0.0600 
    163 H163       -2.1722  -14.9136  -39.0558 H         1 UNK         0.0600 
    164 H164        0.3290  -14.5617  -40.9994 H         1 UNK         0.3000 
    165 H165        2.1523  -16.1842  -39.1147 H         1 UNK         0.0600 
    166 H166        2.5247  -17.8969  -41.6274 H         1 UNK         0.0600 
    167 H167        3.8231  -17.4881  -40.5057 H         1 UNK         0.0600 
    168 H168        2.4652  -18.4603  -39.9642 H         1 UNK         0.0600 
    169 H169        2.5263  -15.3445  -41.9530 H         1 UNK         0.3000 
    170 H170        2.8655  -11.9754  -41.1084 H         1 UNK         0.0600 
    171 H171        5.2195  -12.6007  -40.5404 H         1 UNK         0.0600 
    172 H172        5.2630  -13.7207  -41.8967 H         1 UNK         0.0600 
    173 H173        5.1073  -11.9865  -42.1815 H         1 UNK         0.0600 
    174 H174        3.4462  -13.3752  -43.5277 H         1 UNK         0.3000 
    175 H175        0.1665  -14.0800  -44.5922 H         1 UNK         0.0600 
    176 H176        2.0314  -11.9420  -45.7342 H         1 UNK         0.0600 
    177 H177        0.6094  -12.6582  -46.4956 H         1 UNK         0.0600 
    178 H178        0.4192  -11.6046  -45.1107 H         1 UNK         0.0600 
    179 H179        2.6702  -14.2625  -45.9498 H         1 UNK         0.3000 
    180 H180        4.4066  -16.0305  -45.1003 H         1 UNK         0.0600 
    181 H181        2.7553  -18.5573  -44.6101 H         1 UNK         0.0600 
    182 H182        3.9693  -17.8591  -43.5494 H         1 UNK         0.0600 
    183 H183        4.4559  -18.5528  -45.0852 H         1 UNK         0.0600 
    184 H184        4.1020  -16.3108  -47.2546 H         1 UNK         0.3000 
    185 H185        3.4504  -17.9839  -49.1386 H         1 UNK         0.0600 
    186 H186        1.6287  -18.0254  -50.7858 H         1 UNK         0.0600 
    187 H187        1.1661  -18.9512  -49.3715 H         1 UNK         0.0600 
    188 H188        0.5077  -17.3300  -49.6261 H         1 UNK         0.0600 
    189 H189        2.0200  -15.4620  -49.6939 H         1 UNK         0.3000 
    190 H190       -2.4389  -20.8776  -46.1548 H         1 UNK         0.3000 
    191 H191       -4.6598  -22.3374  -47.0897 H         1 UNK         0.0600 
    192 H192       -4.6218  -21.1296  -44.9267 H         1 UNK         0.0600 
    193 H193       -5.0444  -22.8166  -44.6693 H         1 UNK         0.0600 
    194 H194       -3.4222  -22.2501  -44.2873 H         1 UNK         0.0600 
    195 H195       -1.5551  -23.5288  -45.7231 H         1 UNK         0.3000 
    196 H196       -2.1913  -26.2940  -45.7958 H         1 UNK         0.0600 
    197 H197        0.2784  -26.5958  -45.5812 H         1 UNK         0.0600 
    198 H198       -0.3192  -25.3762  -44.4660 H         1 UNK         0.0600 
    199 H199        0.5285  -24.8900  -45.9317 H         1 UNK         0.0600 
    200 H200       -0.4359  -24.2476  -48.2031 H         1 UNK         0.3000 
    201 H201        0.0650  -26.3777  -50.0276 H         1 UNK         0.0600 
    202 H202        1.4627  -24.3610  -49.9627 H         1 UNK         0.0600 
    203 H203        0.0944  -23.3421  -50.3961 H         1 UNK         0.0600 
    204 H204        0.7401  -24.4959  -51.5596 H         1 UNK         0.0600 
    205 H205       -2.5375  -23.9017  -49.9181 H         1 UNK         0.3000 
    206 H206       -3.6866  -24.7929  -52.4561 H         1 UNK         0.0600 
    207 H207       -3.5755  -22.3867  -51.6946 H         1 UNK         0.0600 
    208 H208       -5.1982  -22.9148  -52.1154 H         1 UNK         0.0600 
    209 H209       -4.7283  -22.7700  -50.4207 H         1 UNK         0.0600 
    210 H210       -3.9006  -26.0327  -49.3430 H         1 UNK         0.3000 
    211 H211       -5.2337  -27.3880  -48.2059 H         1 UNK         0.0600 
    212 H212       -6.5981  -28.0330  -50.8761 H         1 UNK         0.0600 
    213 H213       -6.6791  -28.9927  -49.4064 H         1 UNK         0.0600 
    214 H214       -5.1480  -28.8147  -50.2490 H         1 UNK         0.0600 
    215 H215       -5.7722  -25.0213  -47.6632 H         1 UNK         0.3000 
    216 H216       -7.0875  -23.6099  -46.6551 H         1 UNK         0.0600 
    217 H217       -8.1792  -25.6209  -45.6454 H         1 UNK         0.0600 
    218 H218       -9.3998  -25.5961  -46.9188 H         1 UNK         0.0600 
    219 H219       -9.2828  -24.2631  -45.7828 H         1 UNK         0.0600 
    220 H220       -7.5193  -24.1676  -49.8921 H         1 UNK         0.3000 
    221 H221       -9.7597  -22.4293  -50.4210 H         1 UNK         0.0600 
    222 H222       -7.5023  -23.3313  -52.2817 H         1 UNK         0.0600 
    223 H223       -8.9982  -24.2164  -51.9939 H         1 UNK         0.0600 
    224 H224       -9.0411  -22.6397  -52.7683 H         1 UNK         0.0600 
    225 H225       -6.4397  -21.8418  -49.7032 H         1 UNK         0.3000 
    226 H226       -5.0698  -20.0997  -49.5943 H         1 UNK         0.0600 
    227 H227       -6.7791  -19.3537  -47.9562 H         1 UNK         0.0600 
    228 H228       -6.0149  -17.9804  -48.7402 H         1 UNK         0.0600 
    229 H229       -7.6350  -18.4719  -49.2204 H         1 UNK         0.0600 
    230 H230       -5.0723  -20.8355  -52.0741 H         1 UNK         0.3000 
    231 H231       -4.6719  -18.3657  -53.6249 H         1 UNK         0.0600 
    232 H232       -5.9462  -19.2674  -55.5658 H         1 UNK         0.0600 
    233 H233       -7.0132  -19.0559  -54.1875 H         1 UNK         0.0600 
    234 H234       -6.4445  -20.6670  -54.6192 H         1 UNK         0.0600 
    235 H235       -2.7701  -19.8449  -52.3490 H         1 UNK         0.3000 
    236 H236       -1.7695  -22.1063  -53.6550 H         1 UNK         0.0600 
    237 H237       -1.2237  -21.5136  -51.3378 H         1 UNK         0.0600 
    238 H238        0.2638  -21.6824  -52.2550 H         1 UNK         0.0600 
    239 H239       -0.3388  -20.0771  -51.8631 H         1 UNK         0.0600 
    240 H240       -1.3574  -18.7810  -54.6143 H         1 UNK         0.3000 
    241 H241        1.0096  -19.1876  -56.2193 H         1 UNK         0.0600 
    242 H242       -2.2607  -20.2333  -56.8198 H         1 UNK         0.3800 
    243 H243       -2.0678  -20.4031  -58.5466 H         1 UNK         0.3800 
    244 H244       -0.9599  -16.8976  -56.5730 H         1 UNK         0.0800 
    245 H245        0.7109  -16.9507  -57.0467 H         1 UNK         0.0800 
    246 H246       -0.8633  -14.6021  -54.8136 H         1 UNK         0.0800 
    247 H247       -1.8352  -16.0436  -54.6571 H         1 UNK         0.0800 
@<TRIPOS>BOND
     1    1    2 1    
     2    1  127 1    
     3    1  128 1    
     4    1  129 1    
     5    2    3 2    
     6    2    4 am   BACKBONE|DICT|INTERRES
     7    4    5 1    
     8    4  130 1    
     9    5    6 1    
    10    5   65 1    
    11    5  131 1    
    12    6    7 1    
    13    6  132 1    
    14    6  133 1    
    15    7    8 1    
    16    8    9 1    
    17    8  134 1    
    18    8  135 1    
    19    9   10 ar   
    20    9   14 ar   
    21   10   11 ar   
    22   10  136 1    
    23   11   12 ar   
    24   11  126 1    
    25   12   13 ar   
    26   12  137 1    
    27   13   14 ar   
    28   13   15 1    
    29   14  138 1    
    30   15   16 1    
    31   15  139 1    
    32   15  140 1    
    33   16   17 1    
    34   17   18 1    
    35   17  141 1    
    36   17  142 1    
    37   18   19 1    
    38   18   67 1    
    39   18  143 1    
    40   19   20 am   BACKBONE|DICT|INTERRES
    41   19  144 1    
    42   20   21 2    
    43   20   22 1    
    44   22   23 1    
    45   22   24 1    
    46   22  145 1    
    47   23  146 1    
    48   23  147 1    
    49   23  148 1    
    50   24   25 am   BACKBONE|DICT|INTERRES
    51   24  149 1    
    52   25   26 2    
    53   25   27 1    
    54   27   28 1    
    55   27   29 1    
    56   27  150 1    
    57   28  151 1    
    58   28  152 1    
    59   28  153 1    
    60   29   30 am   BACKBONE|DICT|INTERRES
    61   29  154 1    
    62   30   31 2    
    63   30   32 1    
    64   32   33 1    
    65   32   34 1    
    66   32  155 1    
    67   33  156 1    
    68   33  157 1    
    69   33  158 1    
    70   34   35 am   BACKBONE|DICT|INTERRES
    71   34  159 1    
    72   35   36 2    
    73   35   37 1    
    74   37   38 1    
    75   37   39 1    
    76   37  160 1    
    77   38  161 1    
    78   38  162 1    
    79   38  163 1    
    80   39   40 am   BACKBONE|DICT|INTERRES
    81   39  164 1    
    82   40   41 2    
    83   40   42 1    
    84   42   43 1    
    85   42   44 1    
    86   42  165 1    
    87   43  166 1    
    88   43  167 1    
    89   43  168 1    
    90   44   45 am   BACKBONE|DICT|INTERRES
    91   44  169 1    
    92   45   46 2    
    93   45   47 1    
    94   47   48 1    
    95   47   49 1    
    96   47  170 1    
    97   48  171 1    
    98   48  172 1    
    99   48  173 1    
   100   49   50 am   BACKBONE|DICT|INTERRES
   101   49  174 1    
   102   50   51 2    
   103   50   52 1    
   104   52   53 1    
   105   52   54 1    
   106   52  175 1    
   107   53  176 1    
   108   53  177 1    
   109   53  178 1    
   110   54   55 am   BACKBONE|DICT|INTERRES
   111   54  179 1    
   112   55   56 2    
   113   55   57 1    
   114   57   58 1    
   115   57   59 1    
   116   57  180 1    
   117   58  181 1    
   118   58  182 1    
   119   58  183 1    
   120   59   60 am   BACKBONE|DICT|INTERRES
   121   59  184 1    
   122   60   61 2    
   123   60   62 1    
   124   62   63 1    
   125   62   64 1    
   126   62  185 1    
   127   63  186 1    
   128   63  187 1    
   129   63  188 1    
   130   64   65 am   BACKBONE|DICT|INTERRES
   131   64  189 1    
   132   65   66 2    
   133   67   68 2    
   134   67   69 am   BACKBONE|DICT|INTERRES
   135   69   70 1    
   136   69  190 1    
   137   70   71 1    
   138   70   72 1    
   139   70  191 1    
   140   71  192 1    
   141   71  193 1    
   142   71  194 1    
   143   72   73 2    
   144   72   74 am   BACKBONE|DICT|INTERRES
   145   74   75 1    
   146   74  195 1    
   147   75   76 1    
   148   75   77 1    
   149   75  196 1    
   150   76  197 1    
   151   76  198 1    
   152   76  199 1    
   153   77   78 2    
   154   77   79 am   BACKBONE|DICT|INTERRES
   155   79   80 1    
   156   79  200 1    
   157   80   81 1    
   158   80   82 1    
   159   80  201 1    
   160   81  202 1    
   161   81  203 1    
   162   81  204 1    
   163   82   83 2    
   164   82   84 am   BACKBONE|DICT|INTERRES
   165   84   85 1    
   166   84  205 1    
   167   85   86 1    
   168   85   87 1    
   169   85  206 1    
   170   86  207 1    
   171   86  208 1    
   172   86  209 1    
   173   87   88 2    
   174   87   89 am   BACKBONE|DICT|INTERRES
   175   89   90 1    
   176   89  210 1    
   177   90   91 1    
   178   90   92 1    
   179   90  211 1    
   180   91  212 1    
   181   91  213 1    
   182   91  214 1    
   183   92   93 2    
   184   92   94 am   BACKBONE|DICT|INTERRES
   185   94   95 1    
   186   94  215 1    
   187   95   96 1    
   188   95   97 1    
   189   95  216 1    
   190   96  217 1    
   191   96  218 1    
   192   96  219 1    
   193   97   98 2    
   194   97   99 am   BACKBONE|DICT|INTERRES
   195   99  100 1    
   196   99  220 1    
   197  100  101 1    
   198  100  102 1    
   199  100  221 1    
   200  101  222 1    
   201  101  223 1    
   202  101  224 1    
   203  102  103 2    
   204  102  104 am   BACKBONE|DICT|INTERRES
   205  104  105 1    
   206  104  225 1    
   207  105  106 1    
   208  105  107 1    
   209  105  226 1    
   210  106  227 1    
   211  106  228 1    
   212  106  229 1    
   213  107  108 2    
   214  107  109 am   BACKBONE|DICT|INTERRES
   215  109  110 1    
   216  109  230 1    
   217  110  111 1    
   218  110  112 1    
   219  110  231 1    
   220  111  232 1    
   221  111  233 1    
   222  111  234 1    
   223  112  113 2    
   224  112  114 am   BACKBONE|DICT|INTERRES
   225  114  115 1    
   226  114  235 1    
   227  115  116 1    
   228  115  117 1    
   229  115  236 1    
   230  116  237 1    
   231  116  238 1    
   232  116  239 1    
   233  117  118 2    
   234  117  119 am   BACKBONE|DICT|INTERRES
   235  119  120 1    
   236  119  240 1    
   237  120  121 1    
   238  120  124 1    
   239  120  241 1    
   240  121  122 am   BACKBONE|DICT|INTERRES
   241  121  123 2    
   242  122  242 1    
   243  122  243 1    
   244  124  125 1    
   245  124  244 1    
   246  124  245 1    
   247  125  126 1    
   248  126  246 1    
   249  126  247 1    
@<TRIPOS>SUBSTRUCTURE
     1 UNK         1 GROUP             0       ****    0 ROOT    
