@<TRIPOS>MOLECULE
3R540
247   249    1
SMALL
USER_CHARGES


@<TRIPOS>ATOM
      1 CA          3.9275  -15.9769  -46.2586 C.3       0 UNK        -0.1800 
      2 C           3.1508  -14.6950  -46.5213 C.2       0 UNK         0.5000 
      3 O           2.7201  -14.0391  -45.5763 O.2       0 UNK        -0.5000 
      4 N           2.9906  -14.3166  -47.7969 N.am      1 UNK        -0.5000 
      5 CA          2.2342  -13.1322  -48.2400 C.3       1 UNK         0.1400 
      6 C6          1.9608  -13.1455  -49.7652 C.3       23 UNK        -0.0398 
      7 S7          0.9975  -14.6062  -50.2851 S.3       23 UNK        -0.2404 
      8 C8          2.2797  -15.6357  -51.0678 C.3       23 UNK        -0.0205 
      9 C9          2.0262  -17.1091  -50.7984 C.ar      23 UNK        -0.0193 
     10 C10         1.5083  -17.9425  -51.7944 C.ar      23 UNK        -0.1150 
     11 C11         1.2609  -19.2940  -51.5296 C.ar      23 UNK        -0.0193 
     12 C12         1.5564  -19.8092  -50.2638 C.ar      23 UNK        -0.1150 
     13 C13         2.0659  -18.9827  -49.2580 C.ar      23 UNK        -0.0193 
     14 C14         2.3043  -17.6366  -49.5353 C.ar      23 UNK        -0.1150 
     15 C15         2.3061  -19.5253  -47.8587 C.3       23 UNK        -0.0205 
     16 S16         3.6287  -20.7639  -47.8117 S.3       23 UNK        -0.2404 
     17 C17         3.3919  -21.3810  -46.1045 C.3       23 UNK        -0.0398 
     18 CA          2.2355  -22.3967  -45.8182 C.3       11 UNK         0.1400 
     19 N           1.2525  -21.8548  -44.8657 N.am      11 UNK        -0.5000 
     20 C           0.4402  -22.6255  -44.1263 C.2       10 UNK         0.5000 
     21 O           0.4572  -23.8564  -44.1594 O.2       10 UNK        -0.5000 
     22 CA         -0.5713  -21.9152  -43.2129 C.3       10 UNK         0.1400 
     23 CB          0.1132  -21.4606  -41.9154 C.3       10 UNK        -0.1800 
     24 N          -1.2629  -20.7848  -43.8400 N.am      10 UNK        -0.5000 
     25 C          -2.0855  -20.8830  -44.8957 C.2       9 UNK         0.5000 
     26 O          -2.2648  -21.9258  -45.5220 O.2       9 UNK        -0.5000 
     27 CA         -2.8428  -19.6117  -45.3229 C.3       9 UNK         0.1400 
     28 CB         -4.0081  -19.3213  -44.3655 C.3       9 UNK        -0.1800 
     29 N          -1.9682  -18.4444  -45.3957 N.am      9 UNK        -0.5000 
     30 C          -1.0843  -18.2309  -46.3791 C.2       8 UNK         0.5000 
     31 O          -0.9887  -18.9484  -47.3704 O.2       8 UNK        -0.5000 
     32 CA         -0.1168  -17.0433  -46.2125 C.3       8 UNK         0.1400 
     33 CB         -0.7289  -15.7484  -46.7644 C.3       8 UNK        -0.1800 
     34 N           0.2979  -16.8418  -44.8240 N.am      8 UNK        -0.5000 
     35 C           0.9728  -17.7374  -44.0875 C.2       7 UNK         0.5000 
     36 O           1.3719  -18.8249  -44.5100 O.2       7 UNK        -0.5000 
     37 CA          1.1890  -17.3672  -42.6116 C.3       7 UNK         0.1400 
     38 CB          2.3974  -16.4310  -42.4569 C.3       7 UNK        -0.1800 
     39 N          -0.0039  -16.7447  -42.0314 N.am      7 UNK        -0.5000 
     40 C          -1.1362  -17.4092  -41.7539 C.2       6 UNK         0.5000 
     41 O          -1.2787  -18.6149  -41.9443 O.2       6 UNK        -0.5000 
     42 CA         -2.3271  -16.5923  -41.2188 C.3       6 UNK         0.1400 
     43 CB         -2.1985  -16.3779  -39.7034 C.3       6 UNK        -0.1800 
     44 N          -2.4699  -15.2970  -41.8796 N.am      6 UNK        -0.5000 
     45 C          -2.7201  -15.1263  -43.1854 C.2       5 UNK         0.5000 
     46 O          -2.9444  -16.0534  -43.9624 O.2       5 UNK        -0.5000 
     47 CA         -2.6572  -13.6814  -43.7218 C.3       5 UNK         0.1400 
     48 CB         -4.0627  -13.0646  -43.7685 C.3       5 UNK        -0.1800 
     49 N          -1.7685  -12.8016  -42.9528 N.am      5 UNK        -0.5000 
     50 C          -0.4566  -13.0065  -42.7727 C.2       4 UNK         0.5000 
     51 O           0.1481  -13.9816  -43.2252 O.2       4 UNK        -0.5000 
     52 CA          0.2680  -12.0032  -41.8570 C.3       4 UNK         0.1400 
     53 CB          0.0714  -12.3991  -40.3846 C.3       4 UNK        -0.1800 
     54 N           1.7018  -11.9434  -42.1339 N.am      4 UNK        -0.5000 
     55 C           2.2459  -11.4048  -43.2317 C.2       3 UNK         0.5000 
     56 O           1.5872  -10.8121  -44.0906 O.2       3 UNK        -0.5000 
     57 CA          3.7782  -11.5142  -43.3719 C.3       3 UNK         0.1400 
     58 CB          4.3628  -12.7808  -42.7139 C.3       3 UNK        -0.1800 
     59 N           4.1394  -11.5209  -44.7857 N.am      3 UNK        -0.5000 
     60 C           4.7188  -10.5144  -45.4529 C.2       2 UNK         0.5000 
     61 O           5.0754   -9.4603  -44.9242 O.2       2 UNK        -0.5000 
     62 CA          4.9620  -10.7137  -46.9647 C.3       2 UNK         0.1400 
     63 CB          6.4552  -10.9502  -47.2418 C.3       2 UNK        -0.1800 
     64 N           4.2012  -11.8313  -47.5257 N.am      2 UNK        -0.5000 
     65 C           2.8943  -11.7984  -47.8220 C.2       1 UNK         0.5000 
     66 O           2.2101  -10.7762  -47.7640 O.2       1 UNK        -0.5000 
     67 C           1.5432  -23.0093  -47.0633 C.2       11 UNK         0.5000 
     68 O           2.1043  -23.8998  -47.7021 O.2       11 UNK        -0.5000 
     69 N           0.3219  -22.5455  -47.3598 N.am      12 UNK        -0.5000 
     70 CA         -0.4981  -22.9466  -48.4971 C.3       12 UNK         0.1400 
     71 CB         -1.3148  -21.7336  -48.9561 C.3       12 UNK        -0.1800 
     72 C          -1.4260  -24.1328  -48.1805 C.2       12 UNK         0.5000 
     73 O          -2.4253  -24.3102  -48.8787 O.2       12 UNK        -0.5000 
     74 N          -1.1095  -24.9368  -47.1553 N.am      13 UNK        -0.5000 
     75 CA         -1.8756  -26.1206  -46.7473 C.3       13 UNK         0.1400 
     76 CB         -1.2191  -26.7484  -45.5100 C.3       13 UNK        -0.1800 
     77 C          -2.0382  -27.1684  -47.8686 C.2       13 UNK         0.5000 
     78 O          -3.0985  -27.7842  -47.9788 O.2       13 UNK        -0.5000 
     79 N          -1.0115  -27.2959  -48.7218 N.am      14 UNK        -0.5000 
     80 CA         -1.0129  -28.1253  -49.9310 C.3       14 UNK         0.1400 
     81 CB          0.4301  -28.2521  -50.4427 C.3       14 UNK        -0.1800 
     82 C          -1.9347  -27.5907  -51.0493 C.2       14 UNK         0.5000 
     83 O          -2.3171  -28.3569  -51.9336 O.2       14 UNK        -0.5000 
     84 N          -2.2886  -26.3009  -50.9811 N.am      15 UNK        -0.5000 
     85 CA         -3.2219  -25.6070  -51.8682 C.3       15 UNK         0.1400 
     86 CB         -2.5678  -24.2955  -52.3412 C.3       15 UNK        -0.1800 
     87 C          -4.5678  -25.3570  -51.1553 C.2       15 UNK         0.5000 
     88 O          -5.2545  -24.3840  -51.4709 O.2       15 UNK        -0.5000 
     89 N          -4.9039  -26.2235  -50.1855 N.am      16 UNK        -0.5000 
     90 CA         -6.1198  -26.2262  -49.3650 C.3       16 UNK         0.1400 
     91 CB         -7.3448  -26.6166  -50.2162 C.3       16 UNK        -0.1800 
     92 C          -6.3169  -24.9241  -48.5598 C.2       16 UNK         0.5000 
     93 O          -7.4349  -24.4163  -48.4625 O.2       16 UNK        -0.5000 
     94 N          -5.2085  -24.4194  -47.9997 N.am      17 UNK        -0.5000 
     95 CA         -5.0775  -23.1726  -47.2418 C.3       17 UNK         0.1400 
     96 CB         -5.9257  -23.1934  -45.9531 C.3       17 UNK        -0.1800 
     97 C          -5.3176  -21.9358  -48.1285 C.2       17 UNK         0.5000 
     98 O          -6.0811  -21.0426  -47.7578 O.2       17 UNK        -0.5000 
     99 N          -4.6435  -21.9262  -49.2883 N.am      18 UNK        -0.5000 
    100 CA        -4.6678  -20.8905  -50.3264 C.3       18 UNK         0.1400 
    101 CB        -4.0979  -19.5528  -49.8007 C.3       18 UNK        -0.1800 
    102 C         -6.0601  -20.7354  -50.9682 C.2       18 UNK         0.5000 
    103 O         -6.5882  -19.6238  -51.0545 O.2       18 UNK        -0.5000 
    104 N         -6.6344  -21.8562  -51.4242 N.am      19 UNK        -0.5000 
    105 CA        -7.9223  -21.9181  -52.1161 C.3       19 UNK         0.1400 
    106 CB        -8.4679  -23.3528  -52.0316 C.3       19 UNK        -0.1800 
    107 C         -7.7981  -21.4197  -53.5704 C.2       19 UNK         0.5000 
    108 O         -7.8283  -22.2180  -54.5080 O.2       19 UNK        -0.5000 
    109 N         -7.6034  -20.1028  -53.7211 N.am      20 UNK        -0.5000 
    110 CA        -7.4662  -19.3077  -54.9509 C.3       20 UNK         0.1400 
    111 CB        -8.7176  -19.4359  -55.8401 C.3       20 UNK        -0.1800 
    112 C         -6.1818  -19.5613  -55.7676 C.2       20 UNK         0.5000 
    113 O         -5.7113  -18.6400  -56.4359 O.2       20 UNK        -0.5000 
    114 N         -5.6170  -20.7732  -55.6896 N.am      21 UNK        -0.5000 
    115 CA        -4.4299  -21.2282  -56.4218 C.3       21 UNK         0.1400 
    116 CB        -4.1844  -22.7077  -56.0914 C.3       21 UNK        -0.1800 
    117 C         -3.1549  -20.3985  -56.1656 C.2       21 UNK         0.5000 
    118 O         -2.3083  -20.3036  -57.0554 O.2       21 UNK        -0.5000 
    119 N         -3.0537  -19.7976  -54.9738 N.am      22 UNK        -0.5000 
    120 CA        -1.9939  -18.8455  -54.6023 C.3       22 UNK         0.1400 
    121 C         -2.2079  -17.4022  -55.1514 C.2       22 UNK         0.5000 
    122 N         -3.3178  -17.0795  -55.8058 N.am      22 UNK        -0.7600 
    123 O         -1.3354  -16.5530  -54.9924 O.2       22 UNK        -0.5000 
    124 C124       -1.7463  -18.8304  -53.0717 C.3       23 UNK        -0.0398 
    125 S125       -1.1184  -20.4272  -52.4491 S.3       23 UNK        -0.2404 
    126 C126        0.6860  -20.2040  -52.6075 C.3       23 UNK        -0.0205 
    127 H127        4.3873  -16.3694  -47.1655 H         1 UNK         0.0600 
    128 H128        3.2648  -16.7389  -45.8506 H         1 UNK         0.0600 
    129 H129        4.7184  -15.7916  -45.5318 H         1 UNK         0.0600 
    130 H130        3.3823  -14.8813  -48.5349 H         1 UNK         0.3000 
    131 H131        1.2677  -13.1615  -47.7325 H         1 UNK         0.0600 
    132 H132        1.3822  -12.2653  -50.0518 H         1 UNK         0.0800 
    133 H133        2.8921  -13.0870  -50.3309 H         1 UNK         0.0800 
    134 H134        2.2969  -15.4325  -52.1397 H         1 UNK         0.0800 
    135 H135        3.2693  -15.3755  -50.6908 H         1 UNK         0.0800 
    136 H136        1.2898  -17.5367  -52.7722 H         1 UNK         0.1150 
    137 H137        1.3772  -20.8541  -50.0551 H         1 UNK         0.1150 
    138 H138        2.6854  -16.9908  -48.7600 H         1 UNK         0.1150 
    139 H139        2.5600  -18.7239  -47.1649 H         1 UNK         0.0800 
    140 H140        1.3812  -19.9674  -47.4924 H         1 UNK         0.0800 
    141 H141        3.3264  -20.5183  -45.4397 H         1 UNK         0.0800 
    142 H142        4.3354  -21.8557  -45.8318 H         1 UNK         0.0800 
    143 H143        2.7054  -23.2459  -45.3161 H         1 UNK         0.0600 
    144 H144        1.1947  -20.8439  -44.7779 H         1 UNK         0.3000 
    145 H145       -1.3333  -22.6503  -42.9456 H         1 UNK         0.0600 
    146 H146       -0.6163  -21.0992  -41.1908 H         1 UNK         0.0600 
    147 H147        0.6514  -22.2847  -41.4450 H         1 UNK         0.0600 
    148 H148        0.8314  -20.6614  -42.0995 H         1 UNK         0.0600 
    149 H149       -1.1980  -19.8976  -43.3484 H         1 UNK         0.3000 
    150 H150       -3.2641  -19.7921  -46.3148 H         1 UNK         0.0600 
    151 H151       -4.6856  -20.1738  -44.3049 H         1 UNK         0.0600 
    152 H152       -4.5914  -18.4657  -44.7065 H         1 UNK         0.0600 
    153 H153       -3.6587  -19.1044  -43.3555 H         1 UNK         0.0600 
    154 H154       -2.0477  -17.7597  -44.6520 H         1 UNK         0.3000 
    155 H155        0.7801  -17.2578  -46.7937 H         1 UNK         0.0600 
    156 H156       -1.6798  -15.5148  -46.2869 H         1 UNK         0.0600 
    157 H157       -0.0607  -14.9001  -46.6175 H         1 UNK         0.0600 
    158 H158       -0.9139  -15.8362  -47.8358 H         1 UNK         0.0600 
    159 H159        0.0401  -15.9640  -44.3898 H         1 UNK         0.3000 
    160 H160        1.4008  -18.2850  -42.0597 H         1 UNK         0.0600 
    161 H161        2.2705  -15.5085  -43.0236 H         1 UNK         0.0600 
    162 H162        3.3078  -16.9099  -42.8195 H         1 UNK         0.0600 
    163 H163        2.5621  -16.1646  -41.4129 H         1 UNK         0.0600 
    164 H164        0.0107  -15.7364  -41.9477 H         1 UNK         0.3000 
    165 H165       -3.2360  -17.1673  -41.4080 H         1 UNK         0.0600 
    166 H166       -3.0767  -15.8728  -39.3006 H         1 UNK         0.0600 
    167 H167       -2.1054  -17.3312  -39.1814 H         1 UNK         0.0600 
    168 H168       -1.3218  -15.7791  -39.4531 H         1 UNK         0.0600 
    169 H169       -2.3059  -14.4774  -41.3150 H         1 UNK         0.3000 
    170 H170       -2.2702  -13.7283  -44.7413 H         1 UNK         0.0600 
    171 H171       -4.4912  -12.9629  -42.7706 H         1 UNK         0.0600 
    172 H172       -4.0458  -12.0772  -44.2302 H         1 UNK         0.0600 
    173 H173       -4.7417  -13.6844  -44.3558 H         1 UNK         0.0600 
    174 H174       -2.1983  -11.9895  -42.5334 H         1 UNK         0.3000 
    175 H175       -0.1583  -11.0105  -42.0164 H         1 UNK         0.0600 
    176 H176        0.5599  -11.6890  -39.7169 H         1 UNK         0.0600 
    177 H177        0.4778  -13.3898  -40.1756 H         1 UNK         0.0600 
    178 H178       -0.9861  -12.4154  -40.1180 H         1 UNK         0.0600 
    179 H179        2.3025  -12.4387  -41.4925 H         1 UNK         0.3000 
    180 H180        4.2075  -10.6441  -42.8718 H         1 UNK         0.0600 
    181 H181        3.8921  -13.6870  -43.0960 H         1 UNK         0.0600 
    182 H182        4.2359  -12.7673  -41.6311 H         1 UNK         0.0600 
    183 H183        5.4332  -12.8605  -42.9043 H         1 UNK         0.0600 
    184 H184        3.7898  -12.3181  -45.3062 H         1 UNK         0.3000 
    185 H185        4.6624   -9.7933  -47.4705 H         1 UNK         0.0600 
    186 H186        7.0584  -10.1206  -46.8705 H         1 UNK         0.0600 
    187 H187        6.8152  -11.8595  -46.7587 H         1 UNK         0.0600 
    188 H188        6.6494  -11.0374  -48.3110 H         1 UNK         0.0600 
    189 H189        4.6866  -12.7126  -47.6073 H         1 UNK         0.3000 
    190 H190       -0.1006  -21.8727  -46.7347 H         1 UNK         0.3000 
    191 H191        0.1492  -23.2496  -49.3222 H         1 UNK         0.0600 
    192 H192       -0.6867  -20.8657  -49.1385 H         1 UNK         0.0600 
    193 H193       -1.8412  -21.9420  -49.8862 H         1 UNK         0.0600 
    194 H194       -2.0542  -21.4476  -48.2082 H         1 UNK         0.0600 
    195 H195       -0.2964  -24.7086  -46.6009 H         1 UNK         0.3000 
    196 H196       -2.8755  -25.7833  -46.4669 H         1 UNK         0.0600 
    197 H197       -1.7673  -27.6322  -45.1809 H         1 UNK         0.0600 
    198 H198       -1.2047  -26.0478  -44.6750 H         1 UNK         0.0600 
    199 H199       -0.1911  -27.0531  -45.7100 H         1 UNK         0.0600 
    200 H200       -0.1822  -26.7447  -48.5539 H         1 UNK         0.3000 
    201 H201       -1.3702  -29.1211  -49.6606 H         1 UNK         0.0600 
    202 H202        1.0789  -28.6971  -49.6880 H         1 UNK         0.0600 
    203 H203        0.8469  -27.2817  -50.7154 H         1 UNK         0.0600 
    204 H204        0.4776  -28.8900  -51.3264 H         1 UNK         0.0600 
    205 H205       -1.9879  -25.7568  -50.1806 H         1 UNK         0.3000 
    206 H206       -3.4361  -26.2159  -52.7483 H         1 UNK         0.0600 
    207 H207       -1.6254  -24.4873  -52.8540 H         1 UNK         0.0600 
    208 H208       -3.2122  -23.7626  -53.0394 H         1 UNK         0.0600 
    209 H209       -2.3636  -23.6224  -51.5092 H         1 UNK         0.0600 
    210 H210       -4.2422  -26.9569  -49.9702 H         1 UNK         0.3000 
    211 H211       -5.9797  -27.0121  -48.6214 H         1 UNK         0.0600 
    212 H212       -7.5417  -25.8871  -50.9996 H         1 UNK         0.0600 
    213 H213       -8.2437  -26.6933  -49.6035 H         1 UNK         0.0600 
    214 H214       -7.1967  -27.5849  -50.6941 H         1 UNK         0.0600 
    215 H215       -4.3284  -24.8662  -48.2281 H         1 UNK         0.3000 
    216 H216       -4.0341  -23.1241  -46.9343 H         1 UNK         0.0600 
    217 H217       -5.7056  -22.3236  -45.3334 H         1 UNK         0.0600 
    218 H218       -5.7114  -24.0791  -45.3553 H         1 UNK         0.0600 
    219 H219       -6.9949  -23.1795  -46.1650 H         1 UNK         0.0600 
    220 H220       -4.0702  -22.7349  -49.4926 H         1 UNK         0.3000 
    221 H221       -4.0053  -21.2371  -51.1210 H         1 UNK         0.0600 
    222 H222       -4.7000  -19.1403  -48.9912 H         1 UNK         0.0600 
    223 H223       -3.0791  -19.6632  -49.4338 H         1 UNK         0.0600 
    224 H224       -4.0691  -18.8037  -50.5919 H         1 UNK         0.0600 
    225 H225       -6.1290  -22.7372  -51.3481 H         1 UNK         0.3000 
    226 H226       -8.6314  -21.2668  -51.6008 H         1 UNK         0.0600 
    227 H227       -8.5895  -23.6649  -50.9942 H         1 UNK         0.0600 
    228 H228       -9.4443  -23.4290  -52.5113 H         1 UNK         0.0600 
    229 H229       -7.8036  -24.0646  -52.5227 H         1 UNK         0.0600 
    230 H230       -7.4871  -19.5760  -52.8603 H         1 UNK         0.3000 
    231 H231       -7.4106  -18.2703  -54.6173 H         1 UNK         0.0600 
    232 H232       -8.8317  -20.4430  -56.2422 H         1 UNK         0.0600 
    233 H233       -8.6624  -18.7531  -56.6889 H         1 UNK         0.0600 
    234 H234       -9.6231  -19.1906  -55.2851 H         1 UNK         0.0600 
    235 H235       -6.1250  -21.4775  -55.1652 H         1 UNK         0.3000 
    236 H236       -4.6561  -21.1495  -57.4870 H         1 UNK         0.0600 
    237 H237       -5.0379  -23.3229  -56.3768 H         1 UNK         0.0600 
    238 H238       -3.3138  -23.0915  -56.6248 H         1 UNK         0.0600 
    239 H239       -4.0090  -22.8525  -55.0258 H         1 UNK         0.0600 
    240 H240       -3.7970  -19.9296  -54.3056 H         1 UNK         0.3000 
    241 H241       -1.0675  -19.1845  -55.0696 H         1 UNK         0.0600 
    242 H242       -4.0551  -17.7557  -55.9794 H         1 UNK         0.3800 
    243 H243       -3.4224  -16.1402  -56.1548 H         1 UNK         0.3800 
    244 H244       -1.0456  -18.0447  -52.7913 H         1 UNK         0.0800 
    245 H245       -2.6721  -18.5962  -52.5458 H         1 UNK         0.0800 
    246 H246        0.9228  -19.8197  -53.6006 H         1 UNK         0.0800 
    247 H247        1.1628  -21.1830  -52.5424 H         1 UNK         0.0800 
@<TRIPOS>BOND
     1    1    2 1    
     2    1  127 1    
     3    1  128 1    
     4    1  129 1    
     5    2    3 2    
     6    2    4 am   BACKBONE|DICT|INTERRES
     7    4    5 1    
     8    4  130 1    
     9    5    6 1    
    10    5   65 1    
    11    5  131 1    
    12    6    7 1    
    13    6  132 1    
    14    6  133 1    
    15    7    8 1    
    16    8    9 1    
    17    8  134 1    
    18    8  135 1    
    19    9   10 ar   
    20    9   14 ar   
    21   10   11 ar   
    22   10  136 1    
    23   11   12 ar   
    24   11  126 1    
    25   12   13 ar   
    26   12  137 1    
    27   13   14 ar   
    28   13   15 1    
    29   14  138 1    
    30   15   16 1    
    31   15  139 1    
    32   15  140 1    
    33   16   17 1    
    34   17   18 1    
    35   17  141 1    
    36   17  142 1    
    37   18   19 1    
    38   18   67 1    
    39   18  143 1    
    40   19   20 am   BACKBONE|DICT|INTERRES
    41   19  144 1    
    42   20   21 2    
    43   20   22 1    
    44   22   23 1    
    45   22   24 1    
    46   22  145 1    
    47   23  146 1    
    48   23  147 1    
    49   23  148 1    
    50   24   25 am   BACKBONE|DICT|INTERRES
    51   24  149 1    
    52   25   26 2    
    53   25   27 1    
    54   27   28 1    
    55   27   29 1    
    56   27  150 1    
    57   28  151 1    
    58   28  152 1    
    59   28  153 1    
    60   29   30 am   BACKBONE|DICT|INTERRES
    61   29  154 1    
    62   30   31 2    
    63   30   32 1    
    64   32   33 1    
    65   32   34 1    
    66   32  155 1    
    67   33  156 1    
    68   33  157 1    
    69   33  158 1    
    70   34   35 am   BACKBONE|DICT|INTERRES
    71   34  159 1    
    72   35   36 2    
    73   35   37 1    
    74   37   38 1    
    75   37   39 1    
    76   37  160 1    
    77   38  161 1    
    78   38  162 1    
    79   38  163 1    
    80   39   40 am   BACKBONE|DICT|INTERRES
    81   39  164 1    
    82   40   41 2    
    83   40   42 1    
    84   42   43 1    
    85   42   44 1    
    86   42  165 1    
    87   43  166 1    
    88   43  167 1    
    89   43  168 1    
    90   44   45 am   BACKBONE|DICT|INTERRES
    91   44  169 1    
    92   45   46 2    
    93   45   47 1    
    94   47   48 1    
    95   47   49 1    
    96   47  170 1    
    97   48  171 1    
    98   48  172 1    
    99   48  173 1    
   100   49   50 am   BACKBONE|DICT|INTERRES
   101   49  174 1    
   102   50   51 2    
   103   50   52 1    
   104   52   53 1    
   105   52   54 1    
   106   52  175 1    
   107   53  176 1    
   108   53  177 1    
   109   53  178 1    
   110   54   55 am   BACKBONE|DICT|INTERRES
   111   54  179 1    
   112   55   56 2    
   113   55   57 1    
   114   57   58 1    
   115   57   59 1    
   116   57  180 1    
   117   58  181 1    
   118   58  182 1    
   119   58  183 1    
   120   59   60 am   BACKBONE|DICT|INTERRES
   121   59  184 1    
   122   60   61 2    
   123   60   62 1    
   124   62   63 1    
   125   62   64 1    
   126   62  185 1    
   127   63  186 1    
   128   63  187 1    
   129   63  188 1    
   130   64   65 am   BACKBONE|DICT|INTERRES
   131   64  189 1    
   132   65   66 2    
   133   67   68 2    
   134   67   69 am   BACKBONE|DICT|INTERRES
   135   69   70 1    
   136   69  190 1    
   137   70   71 1    
   138   70   72 1    
   139   70  191 1    
   140   71  192 1    
   141   71  193 1    
   142   71  194 1    
   143   72   73 2    
   144   72   74 am   BACKBONE|DICT|INTERRES
   145   74   75 1    
   146   74  195 1    
   147   75   76 1    
   148   75   77 1    
   149   75  196 1    
   150   76  197 1    
   151   76  198 1    
   152   76  199 1    
   153   77   78 2    
   154   77   79 am   BACKBONE|DICT|INTERRES
   155   79   80 1    
   156   79  200 1    
   157   80   81 1    
   158   80   82 1    
   159   80  201 1    
   160   81  202 1    
   161   81  203 1    
   162   81  204 1    
   163   82   83 2    
   164   82   84 am   BACKBONE|DICT|INTERRES
   165   84   85 1    
   166   84  205 1    
   167   85   86 1    
   168   85   87 1    
   169   85  206 1    
   170   86  207 1    
   171   86  208 1    
   172   86  209 1    
   173   87   88 2    
   174   87   89 am   BACKBONE|DICT|INTERRES
   175   89   90 1    
   176   89  210 1    
   177   90   91 1    
   178   90   92 1    
   179   90  211 1    
   180   91  212 1    
   181   91  213 1    
   182   91  214 1    
   183   92   93 2    
   184   92   94 am   BACKBONE|DICT|INTERRES
   185   94   95 1    
   186   94  215 1    
   187   95   96 1    
   188   95   97 1    
   189   95  216 1    
   190   96  217 1    
   191   96  218 1    
   192   96  219 1    
   193   97   98 2    
   194   97   99 am   BACKBONE|DICT|INTERRES
   195   99  100 1    
   196   99  220 1    
   197  100  101 1    
   198  100  102 1    
   199  100  221 1    
   200  101  222 1    
   201  101  223 1    
   202  101  224 1    
   203  102  103 2    
   204  102  104 am   BACKBONE|DICT|INTERRES
   205  104  105 1    
   206  104  225 1    
   207  105  106 1    
   208  105  107 1    
   209  105  226 1    
   210  106  227 1    
   211  106  228 1    
   212  106  229 1    
   213  107  108 2    
   214  107  109 am   BACKBONE|DICT|INTERRES
   215  109  110 1    
   216  109  230 1    
   217  110  111 1    
   218  110  112 1    
   219  110  231 1    
   220  111  232 1    
   221  111  233 1    
   222  111  234 1    
   223  112  113 2    
   224  112  114 am   BACKBONE|DICT|INTERRES
   225  114  115 1    
   226  114  235 1    
   227  115  116 1    
   228  115  117 1    
   229  115  236 1    
   230  116  237 1    
   231  116  238 1    
   232  116  239 1    
   233  117  118 2    
   234  117  119 am   BACKBONE|DICT|INTERRES
   235  119  120 1    
   236  119  240 1    
   237  120  121 1    
   238  120  124 1    
   239  120  241 1    
   240  121  122 am   BACKBONE|DICT|INTERRES
   241  121  123 2    
   242  122  242 1    
   243  122  243 1    
   244  124  125 1    
   245  124  244 1    
   246  124  245 1    
   247  125  126 1    
   248  126  246 1    
   249  126  247 1    
@<TRIPOS>SUBSTRUCTURE
     1 UNK         1 GROUP             0       ****    0 ROOT    
