@<TRIPOS>MOLECULE
3R540
247   249    1
SMALL
USER_CHARGES


@<TRIPOS>ATOM
      1 CA          3.6720  -14.2230  -52.6979 C.3       0 UNK        -0.1800 
      2 C           2.8817  -14.4916  -51.4248 C.2       0 UNK         0.5000 
      3 O           3.3700  -15.1930  -50.5386 O.2       0 UNK        -0.5000 
      4 N           1.6638  -13.9432  -51.3362 N.am      1 UNK        -0.5000 
      5 CA          0.7851  -14.0465  -50.1685 C.3       1 UNK         0.1400 
      6 C6         -0.6815  -13.7103  -50.5438 C.3       23 UNK        -0.0398 
      7 S7         -1.8920  -14.3720  -49.3454 S.3       23 UNK        -0.2404 
      8 C8         -2.7141  -15.6907  -50.3079 C.3       23 UNK        -0.0205 
      9 C9         -1.7938  -16.8227  -50.7641 C.ar      23 UNK        -0.0193 
     10 C10        -2.0371  -17.4496  -51.9888 C.ar      23 UNK        -0.1150 
     11 C11        -1.2232  -18.4954  -52.4319 C.ar      23 UNK        -0.0193 
     12 C12        -0.1429  -18.9031  -51.6466 C.ar      23 UNK        -0.1150 
     13 C13         0.1240  -18.2864  -50.4224 C.ar      23 UNK        -0.0193 
     14 C14        -0.7219  -17.2620  -49.9802 C.ar      23 UNK        -0.1150 
     15 C15         1.3501  -18.7309  -49.6251 C.3       23 UNK        -0.0205 
     16 S16         1.2201  -18.5297  -47.8164 S.3       23 UNK        -0.2404 
     17 C17        -0.2212  -19.5810  -47.4500 C.3       23 UNK        -0.0398 
     18 CA          0.1698  -21.0368  -47.1180 C.3       11 UNK         0.1400 
     19 N           0.9012  -21.1534  -45.8517 N.am      11 UNK        -0.5000 
     20 C           1.4561  -22.2826  -45.3898 C.2       10 UNK         0.5000 
     21 O           1.4555  -23.3441  -46.0105 O.2       10 UNK        -0.5000 
     22 CA          2.0535  -22.2437  -43.9717 C.3       10 UNK         0.1400 
     23 CB          3.4524  -21.6099  -43.9708 C.3       10 UNK        -0.1800 
     24 N           1.1824  -21.5490  -43.0228 N.am      10 UNK        -0.5000 
     25 C          -0.0385  -21.9786  -42.6721 C.2       9 UNK         0.5000 
     26 O          -0.5254  -23.0392  -43.0654 O.2       9 UNK        -0.5000 
     27 CA         -0.8749  -21.0533  -41.7689 C.3       9 UNK         0.1400 
     28 CB         -0.4903  -21.2365  -40.2936 C.3       9 UNK        -0.1800 
     29 N          -0.7626  -19.6415  -42.1400 N.am      9 UNK        -0.5000 
     30 C          -1.1725  -19.1290  -43.3097 C.2       8 UNK         0.5000 
     31 O          -1.7351  -19.7884  -44.1829 O.2       8 UNK        -0.5000 
     32 CA         -0.8556  -17.6449  -43.5741 C.3       8 UNK         0.1400 
     33 CB         -1.8699  -16.7371  -42.8643 C.3       8 UNK        -0.1800 
     34 N           0.5043  -17.2736  -43.1802 N.am      8 UNK        -0.5000 
     35 C           1.6180  -17.8353  -43.6707 C.2       7 UNK         0.5000 
     36 O           1.6182  -18.6999  -44.5440 O.2       7 UNK        -0.5000 
     37 CA          2.9489  -17.4355  -43.0131 C.3       7 UNK         0.1400 
     38 CB          3.4906  -16.1082  -43.5637 C.3       7 UNK        -0.1800 
     39 N           2.8328  -17.3852  -41.5544 N.am      7 UNK        -0.5000 
     40 C           2.6893  -18.4813  -40.7940 C.2       6 UNK         0.5000 
     41 O           2.6601  -19.6259  -41.2471 O.2       6 UNK        -0.5000 
     42 CA          2.5273  -18.2697  -39.2797 C.3       6 UNK         0.1400 
     43 CB          3.8943  -18.0593  -38.6119 C.3       6 UNK        -0.1800 
     44 N           1.6493  -17.1514  -38.9425 N.am      6 UNK        -0.5000 
     45 C           0.3376  -17.0867  -39.1978 C.2       5 UNK         0.5000 
     46 O          -0.2812  -17.9607  -39.8035 O.2       5 UNK        -0.5000 
     47 CA         -0.4073  -15.8287  -38.7094 C.3       5 UNK         0.1400 
     48 CB         -0.4901  -15.7741  -37.1717 C.3       5 UNK        -0.1800 
     49 N           0.1270  -14.5841  -39.2728 N.am      5 UNK        -0.5000 
     50 C           1.3391  -14.0327  -39.1164 C.2       4 UNK         0.5000 
     51 O           2.1801  -14.4531  -38.3194 O.2       4 UNK        -0.5000 
     52 CA          1.6887  -12.8232  -40.0141 C.3       4 UNK         0.1400 
     53 CB          3.1173  -12.9458  -40.5854 C.3       4 UNK        -0.1800 
     54 N           0.7402  -12.5391  -41.1046 N.am      4 UNK        -0.5000 
     55 C           0.3936  -13.3395  -42.1250 C.2       3 UNK         0.5000 
     56 O           0.7394  -14.5176  -42.2102 O.2       3 UNK        -0.5000 
     57 CA         -0.4888  -12.7302  -43.2312 C.3       3 UNK         0.1400 
     58 CB         -1.1647  -11.4023  -42.8337 C.3       3 UNK        -0.1800 
     59 N           0.3275  -12.5062  -44.4211 N.am      3 UNK        -0.5000 
     60 C           0.4755  -13.3719  -45.4300 C.2       2 UNK         0.5000 
     61 O          -0.1090  -14.4553  -45.5122 O.2       2 UNK        -0.5000 
     62 CA          1.4503  -12.9464  -46.5367 C.3       2 UNK         0.1400 
     63 CB          2.9028  -13.2840  -46.1589 C.3       2 UNK        -0.1800 
     64 N           1.0920  -13.6313  -47.7724 N.am      2 UNK        -0.5000 
     65 C           1.3025  -13.1682  -49.0080 C.2       1 UNK         0.5000 
     66 O           1.8562  -12.0920  -49.2508 O.2       1 UNK        -0.5000 
     67 C          -1.0833  -21.9326  -47.1520 C.2       11 UNK         0.5000 
     68 O          -1.3341  -22.5813  -48.1701 O.2       11 UNK        -0.5000 
     69 N          -1.8320  -21.9675  -46.0401 N.am      12 UNK        -0.5000 
     70 CA         -3.0102  -22.8122  -45.8581 C.3       12 UNK         0.1400 
     71 CB         -3.7203  -22.4578  -44.5441 C.3       12 UNK        -0.1800 
     72 C          -2.6781  -24.3126  -45.9263 C.2       12 UNK         0.5000 
     73 O          -3.4025  -25.0636  -46.5789 O.2       12 UNK        -0.5000 
     74 N          -1.5678  -24.7139  -45.2947 N.am      13 UNK        -0.5000 
     75 CA         -1.0365  -26.0744  -45.3590 C.3       13 UNK         0.1400 
     76 CB          0.0682  -26.2396  -44.3040 C.3       13 UNK        -0.1800 
     77 C          -0.5159  -26.4464  -46.7615 C.2       13 UNK         0.5000 
     78 O          -0.7318  -27.5742  -47.2069 O.2       13 UNK        -0.5000 
     79 N           0.1631  -25.5002  -47.4237 N.am      14 UNK        -0.5000 
     80 CA          0.7889  -25.6875  -48.7303 C.3       14 UNK         0.1400 
     81 CB          1.8054  -24.5624  -48.9829 C.3       14 UNK        -0.1800 
     82 C          -0.2145  -25.7748  -49.8925 C.2       14 UNK         0.5000 
     83 O          -0.1202  -26.7067  -50.6933 O.2       14 UNK        -0.5000 
     84 N          -1.1215  -24.7935  -49.9972 N.am      15 UNK        -0.5000 
     85 CA         -1.9582  -24.5962  -51.1859 C.3       15 UNK         0.1400 
     86 CB         -1.1609  -23.8047  -52.2422 C.3       15 UNK        -0.1800 
     87 C          -3.3126  -23.9371  -50.8703 C.2       15 UNK         0.5000 
     88 O          -3.9113  -23.3289  -51.7582 O.2       15 UNK        -0.5000 
     89 N          -3.7728  -24.0409  -49.6142 N.am      16 UNK        -0.5000 
     90 CA         -5.0362  -23.5006  -49.0858 C.3       16 UNK         0.1400 
     91 CB         -6.2473  -24.1395  -49.7981 C.3       16 UNK        -0.1800 
     92 C          -5.1282  -21.9566  -49.0626 C.2       16 UNK         0.5000 
     93 O          -6.1808  -21.4310  -48.6990 O.2       16 UNK        -0.5000 
     94 N          -4.0392  -21.2612  -49.4343 N.am      17 UNK        -0.5000 
     95 CA         -3.9127  -19.8053  -49.5937 C.3       17 UNK         0.1400 
     96 CB         -3.9242  -19.1202  -48.2112 C.3       17 UNK        -0.1800 
     97 C          -4.9654  -19.2149  -50.5637 C.2       17 UNK         0.5000 
     98 O          -5.4514  -18.1023  -50.3569 O.2       17 UNK        -0.5000 
     99 N          -5.3299  -19.9978  -51.5873 N.am      18 UNK        -0.5000 
    100 CA        -6.5306  -19.8168  -52.4033 C.3       18 UNK         0.1400 
    101 CB        -7.1035  -21.2094  -52.7086 C.3       18 UNK        -0.1800 
    102 C         -6.3182  -18.9796  -53.6823 C.2       18 UNK         0.5000 
    103 O         -7.1629  -19.0256  -54.5789 O.2       18 UNK        -0.5000 
    104 N         -5.2141  -18.2223  -53.7494 N.am      19 UNK        -0.5000 
    105 CA        -4.8339  -17.3013  -54.8276 C.3       19 UNK         0.1400 
    106 CB        -5.7676  -16.0705  -54.8369 C.3       19 UNK        -0.1800 
    107 C         -4.7257  -18.0216  -56.1861 C.2       19 UNK         0.5000 
    108 O         -3.8177  -18.8325  -56.3650 O.2       19 UNK        -0.5000 
    109 N         -5.6564  -17.7500  -57.1101 N.am      20 UNK        -0.5000 
    110 CA        -5.7393  -18.3913  -58.4250 C.3       20 UNK         0.1400 
    111 CB        -6.8460  -17.7096  -59.2438 C.3       20 UNK        -0.1800 
    112 C         -5.9762  -19.9145  -58.3598 C.2       20 UNK         0.5000 
    113 O         -5.5845  -20.6263  -59.2854 O.2       20 UNK        -0.5000 
    114 N         -6.5874  -20.3899  -57.2660 N.am      21 UNK        -0.5000 
    115 CA        -6.8579  -21.8033  -57.0117 C.3       21 UNK         0.1400 
    116 CB        -8.2048  -21.9325  -56.2828 C.3       21 UNK        -0.1800 
    117 C         -5.7122  -22.5280  -56.2716 C.2       21 UNK         0.5000 
    118 O         -5.8714  -23.7089  -55.9587 O.2       21 UNK        -0.5000 
    119 N         -4.5722  -21.8569  -56.0310 N.am      22 UNK        -0.5000 
    120 CA        -3.3325  -22.5011  -55.5495 C.3       22 UNK         0.1400 
    121 C         -2.7081  -23.5156  -56.5570 C.2       22 UNK         0.5000 
    122 N         -3.0136  -23.4505  -57.8484 N.am      22 UNK        -0.7600 
    123 O         -1.9311  -24.3781  -56.1575 O.2       22 UNK        -0.5000 
    124 C124       -2.2490  -21.4749  -55.1260 C.3       23 UNK        -0.0398 
    125 S125       -2.6449  -20.5628  -53.6005 S.3       23 UNK        -0.2404 
    126 C126       -1.4835  -19.1727  -53.7672 C.3       23 UNK        -0.0205 
    127 H127        3.9075  -15.1623  -53.1983 H         1 UNK         0.0600 
    128 H128        4.6082  -13.7186  -52.4586 H         1 UNK         0.0600 
    129 H129        3.1167  -13.5960  -53.3959 H         1 UNK         0.0600 
    130 H130        1.3364  -13.3464  -52.0820 H         1 UNK         0.3000 
    131 H131        0.8316  -15.0843  -49.8389 H         1 UNK         0.0600 
    132 H132       -0.8268  -12.6325  -50.6368 H         1 UNK         0.0800 
    133 H133       -0.9172  -14.1237  -51.5255 H         1 UNK         0.0800 
    134 H134       -3.5109  -16.1175  -49.6986 H         1 UNK         0.0800 
    135 H135       -3.2029  -15.2311  -51.1684 H         1 UNK         0.0800 
    136 H136       -2.8639  -17.1184  -52.5956 H         1 UNK         0.1150 
    137 H137        0.4988  -19.6996  -51.9971 H         1 UNK         0.1150 
    138 H138       -0.5364  -16.7903  -49.0272 H         1 UNK         0.1150 
    139 H139        1.5742  -19.7777  -49.8360 H         1 UNK         0.0800 
    140 H140        2.2086  -18.1547  -49.9728 H         1 UNK         0.0800 
    141 H141       -0.9029  -19.5504  -48.3002 H         1 UNK         0.0800 
    142 H142       -0.7644  -19.1307  -46.6185 H         1 UNK         0.0800 
    143 H143        0.8328  -21.3967  -47.9070 H         1 UNK         0.0600 
    144 H144        1.0008  -20.3003  -45.3052 H         1 UNK         0.3000 
    145 H145        2.1558  -23.2757  -43.6296 H         1 UNK         0.0600 
    146 H146        3.8920  -21.6275  -42.9734 H         1 UNK         0.0600 
    147 H147        4.1255  -22.1552  -44.6334 H         1 UNK         0.0600 
    148 H148        3.4316  -20.5743  -44.3079 H         1 UNK         0.0600 
    149 H149        1.5329  -20.6832  -42.6273 H         1 UNK         0.3000 
    150 H150       -1.9218  -21.3415  -41.8812 H         1 UNK         0.0600 
    151 H151       -0.5821  -22.2809  -39.9927 H         1 UNK         0.0600 
    152 H152       -1.1403  -20.6523  -39.6421 H         1 UNK         0.0600 
    153 H153        0.5378  -20.9286  -40.1030 H         1 UNK         0.0600 
    154 H154       -0.3581  -19.0193  -41.4463 H         1 UNK         0.3000 
    155 H155       -0.9423  -17.4740  -44.6491 H         1 UNK         0.0600 
    156 H156       -1.7789  -16.7964  -41.7797 H         1 UNK         0.0600 
    157 H157       -2.8922  -17.0130  -43.1259 H         1 UNK         0.0600 
    158 H158       -1.7317  -15.6980  -43.1571 H         1 UNK         0.0600 
    159 H159        0.5975  -16.5070  -42.5227 H         1 UNK         0.3000 
    160 H160        3.6805  -18.2077  -43.2614 H         1 UNK         0.0600 
    161 H161        2.7970  -15.2829  -43.4175 H         1 UNK         0.0600 
    162 H162        3.6758  -16.1901  -44.6350 H         1 UNK         0.0600 
    163 H163        4.4356  -15.8402  -43.0914 H         1 UNK         0.0600 
    164 H164        2.8074  -16.4747  -41.1201 H         1 UNK         0.3000 
    165 H165        2.0831  -19.1774  -38.8659 H         1 UNK         0.0600 
    166 H166        3.7981  -18.0037  -37.5274 H         1 UNK         0.0600 
    167 H167        4.5703  -18.8857  -38.8359 H         1 UNK         0.0600 
    168 H168        4.3725  -17.1403  -38.9532 H         1 UNK         0.0600 
    169 H169        2.0735  -16.3447  -38.4929 H         1 UNK         0.3000 
    170 H170       -1.4288  -15.9071  -39.0849 H         1 UNK         0.0600 
    171 H171       -0.9720  -16.6701  -36.7788 H         1 UNK         0.0600 
    172 H172        0.4928  -15.7048  -36.7055 H         1 UNK         0.0600 
    173 H173       -1.0776  -14.9178  -36.8408 H         1 UNK         0.0600 
    174 H174       -0.4549  -14.1620  -39.9817 H         1 UNK         0.3000 
    175 H175        1.6676  -11.9512  -39.3591 H         1 UNK         0.0600 
    176 H176        3.2291  -13.8338  -41.2082 H         1 UNK         0.0600 
    177 H177        3.3749  -12.0777  -41.1921 H         1 UNK         0.0600 
    178 H178        3.8585  -13.0109  -39.7880 H         1 UNK         0.0600 
    179 H179        0.3681  -11.5995  -41.1089 H         1 UNK         0.3000 
    180 H180       -1.2805  -13.4478  -43.4507 H         1 UNK         0.0600 
    181 H181       -1.8367  -11.0620  -43.6219 H         1 UNK         0.0600 
    182 H182       -0.4416  -10.6052  -42.6562 H         1 UNK         0.0600 
    183 H183       -1.7674  -11.5198  -41.9320 H         1 UNK         0.0600 
    184 H184        0.8735  -11.6567  -44.4282 H         1 UNK         0.3000 
    185 H185        1.3524  -11.8677  -46.6774 H         1 UNK         0.0600 
    186 H186        3.1808  -12.8307  -45.2067 H         1 UNK         0.0600 
    187 H187        3.0487  -14.3603  -46.0677 H         1 UNK         0.0600 
    188 H188        3.6013  -12.9162  -46.9107 H         1 UNK         0.0600 
    189 H189        0.5654  -14.4848  -47.6295 H         1 UNK         0.3000 
    190 H190       -1.5965  -21.3473  -45.2695 H         1 UNK         0.3000 
    191 H191       -3.6954  -22.5817  -46.6711 H         1 UNK         0.0600 
    192 H192       -4.0133  -21.4080  -44.5256 H         1 UNK         0.0600 
    193 H193       -4.6274  -23.0505  -44.4202 H         1 UNK         0.0600 
    194 H194       -3.0871  -22.6443  -43.6776 H         1 UNK         0.0600 
    195 H195       -1.0497  -24.0424  -44.7363 H         1 UNK         0.3000 
    196 H196       -1.8456  -26.7646  -45.1110 H         1 UNK         0.0600 
    197 H197        0.4658  -27.2551  -44.3101 H         1 UNK         0.0600 
    198 H198       -0.3129  -26.0444  -43.3015 H         1 UNK         0.0600 
    199 H199        0.9013  -25.5589  -44.4816 H         1 UNK         0.0600 
    200 H200        0.3562  -24.6208  -46.9529 H         1 UNK         0.3000 
    201 H201        1.3419  -26.6289  -48.7031 H         1 UNK         0.0600 
    202 H202        2.5934  -24.5677  -48.2297 H         1 UNK         0.0600 
    203 H203        1.3329  -23.5801  -48.9658 H         1 UNK         0.0600 
    204 H204        2.2860  -24.6790  -49.9551 H         1 UNK         0.0600 
    205 H205       -1.1393  -24.0507  -49.3002 H         1 UNK         0.3000 
    206 H206       -2.2097  -25.5697  -51.6115 H         1 UNK         0.0600 
    207 H207       -0.2180  -24.2950  -52.4839 H         1 UNK         0.0600 
    208 H208       -1.7205  -23.7210  -53.1734 H         1 UNK         0.0600 
    209 H209       -0.9358  -22.7943  -51.8984 H         1 UNK         0.0600 
    210 H210       -3.2109  -24.5482  -48.9428 H         1 UNK         0.3000 
    211 H211       -5.0944  -23.8141  -48.0452 H         1 UNK         0.0600 
    212 H212       -6.3113  -23.8439  -50.8449 H         1 UNK         0.0600 
    213 H213       -7.1832  -23.8460  -49.3214 H         1 UNK         0.0600 
    214 H214       -6.1953  -25.2276  -49.7606 H         1 UNK         0.0600 
    215 H215       -3.2236  -21.8001  -49.6912 H         1 UNK         0.3000 
    216 H216       -2.9369  -19.6306  -50.0485 H         1 UNK         0.0600 
    217 H217       -3.6267  -18.0746  -48.2896 H         1 UNK         0.0600 
    218 H218       -3.2345  -19.6029  -47.5197 H         1 UNK         0.0600 
    219 H219       -4.9156  -19.1464  -47.7579 H         1 UNK         0.0600 
    220 H220       -4.8384  -20.8737  -51.7147 H         1 UNK         0.3000 
    221 H221       -7.2773  -19.2848  -51.8103 H         1 UNK         0.0600 
    222 H222       -6.4654  -21.7679  -53.3943 H         1 UNK         0.0600 
    223 H223       -7.2113  -21.7975  -51.7974 H         1 UNK         0.0600 
    224 H224       -8.0972  -21.1334  -53.1482 H         1 UNK         0.0600 
    225 H225       -4.5606  -18.3110  -52.9856 H         1 UNK         0.3000 
    226 H226       -3.8300  -16.9414  -54.6061 H         1 UNK         0.0600 
    227 H227       -5.7215  -15.5448  -53.8831 H         1 UNK         0.0600 
    228 H228       -5.4724  -15.3580  -55.6082 H         1 UNK         0.0600 
    229 H229       -6.8100  -16.3390  -55.0112 H         1 UNK         0.0600 
    230 H230       -6.3893  -17.0960  -56.8769 H         1 UNK         0.3000 
    231 H231       -4.7871  -18.2309  -58.9348 H         1 UNK         0.0600 
    232 H232       -7.8216  -17.8164  -58.7677 H         1 UNK         0.0600 
    233 H233       -6.9183  -18.1444  -60.2417 H         1 UNK         0.0600 
    234 H234       -6.6466  -16.6452  -59.3686 H         1 UNK         0.0600 
    235 H235       -6.8443  -19.7449  -56.5255 H         1 UNK         0.3000 
    236 H236       -6.9681  -22.3221  -57.9662 H         1 UNK         0.0600 
    237 H237       -9.0204  -21.5670  -56.9068 H         1 UNK         0.0600 
    238 H238       -8.4301  -22.9702  -56.0343 H         1 UNK         0.0600 
    239 H239       -8.2181  -21.3599  -55.3595 H         1 UNK         0.0600 
    240 H240       -4.4988  -20.8793  -56.2863 H         1 UNK         0.3000 
    241 H241       -3.5988  -23.0835  -54.6651 H         1 UNK         0.0600 
    242 H242       -3.6417  -22.7433  -58.1966 H         1 UNK         0.3800 
    243 H243       -2.6042  -24.1142  -58.4872 H         1 UNK         0.3800 
    244 H244       -1.2945  -21.9715  -54.9405 H         1 UNK         0.0800 
    245 H245       -2.0643  -20.7689  -55.9369 H         1 UNK         0.0800 
    246 H246       -1.8742  -18.4540  -54.4876 H         1 UNK         0.0800 
    247 H247       -0.5408  -19.5341  -54.1812 H         1 UNK         0.0800 
@<TRIPOS>BOND
     1    1    2 1    
     2    1  127 1    
     3    1  128 1    
     4    1  129 1    
     5    2    3 2    
     6    2    4 am   BACKBONE|DICT|INTERRES
     7    4    5 1    
     8    4  130 1    
     9    5    6 1    
    10    5   65 1    
    11    5  131 1    
    12    6    7 1    
    13    6  132 1    
    14    6  133 1    
    15    7    8 1    
    16    8    9 1    
    17    8  134 1    
    18    8  135 1    
    19    9   10 ar   
    20    9   14 ar   
    21   10   11 ar   
    22   10  136 1    
    23   11   12 ar   
    24   11  126 1    
    25   12   13 ar   
    26   12  137 1    
    27   13   14 ar   
    28   13   15 1    
    29   14  138 1    
    30   15   16 1    
    31   15  139 1    
    32   15  140 1    
    33   16   17 1    
    34   17   18 1    
    35   17  141 1    
    36   17  142 1    
    37   18   19 1    
    38   18   67 1    
    39   18  143 1    
    40   19   20 am   BACKBONE|DICT|INTERRES
    41   19  144 1    
    42   20   21 2    
    43   20   22 1    
    44   22   23 1    
    45   22   24 1    
    46   22  145 1    
    47   23  146 1    
    48   23  147 1    
    49   23  148 1    
    50   24   25 am   BACKBONE|DICT|INTERRES
    51   24  149 1    
    52   25   26 2    
    53   25   27 1    
    54   27   28 1    
    55   27   29 1    
    56   27  150 1    
    57   28  151 1    
    58   28  152 1    
    59   28  153 1    
    60   29   30 am   BACKBONE|DICT|INTERRES
    61   29  154 1    
    62   30   31 2    
    63   30   32 1    
    64   32   33 1    
    65   32   34 1    
    66   32  155 1    
    67   33  156 1    
    68   33  157 1    
    69   33  158 1    
    70   34   35 am   BACKBONE|DICT|INTERRES
    71   34  159 1    
    72   35   36 2    
    73   35   37 1    
    74   37   38 1    
    75   37   39 1    
    76   37  160 1    
    77   38  161 1    
    78   38  162 1    
    79   38  163 1    
    80   39   40 am   BACKBONE|DICT|INTERRES
    81   39  164 1    
    82   40   41 2    
    83   40   42 1    
    84   42   43 1    
    85   42   44 1    
    86   42  165 1    
    87   43  166 1    
    88   43  167 1    
    89   43  168 1    
    90   44   45 am   BACKBONE|DICT|INTERRES
    91   44  169 1    
    92   45   46 2    
    93   45   47 1    
    94   47   48 1    
    95   47   49 1    
    96   47  170 1    
    97   48  171 1    
    98   48  172 1    
    99   48  173 1    
   100   49   50 am   BACKBONE|DICT|INTERRES
   101   49  174 1    
   102   50   51 2    
   103   50   52 1    
   104   52   53 1    
   105   52   54 1    
   106   52  175 1    
   107   53  176 1    
   108   53  177 1    
   109   53  178 1    
   110   54   55 am   BACKBONE|DICT|INTERRES
   111   54  179 1    
   112   55   56 2    
   113   55   57 1    
   114   57   58 1    
   115   57   59 1    
   116   57  180 1    
   117   58  181 1    
   118   58  182 1    
   119   58  183 1    
   120   59   60 am   BACKBONE|DICT|INTERRES
   121   59  184 1    
   122   60   61 2    
   123   60   62 1    
   124   62   63 1    
   125   62   64 1    
   126   62  185 1    
   127   63  186 1    
   128   63  187 1    
   129   63  188 1    
   130   64   65 am   BACKBONE|DICT|INTERRES
   131   64  189 1    
   132   65   66 2    
   133   67   68 2    
   134   67   69 am   BACKBONE|DICT|INTERRES
   135   69   70 1    
   136   69  190 1    
   137   70   71 1    
   138   70   72 1    
   139   70  191 1    
   140   71  192 1    
   141   71  193 1    
   142   71  194 1    
   143   72   73 2    
   144   72   74 am   BACKBONE|DICT|INTERRES
   145   74   75 1    
   146   74  195 1    
   147   75   76 1    
   148   75   77 1    
   149   75  196 1    
   150   76  197 1    
   151   76  198 1    
   152   76  199 1    
   153   77   78 2    
   154   77   79 am   BACKBONE|DICT|INTERRES
   155   79   80 1    
   156   79  200 1    
   157   80   81 1    
   158   80   82 1    
   159   80  201 1    
   160   81  202 1    
   161   81  203 1    
   162   81  204 1    
   163   82   83 2    
   164   82   84 am   BACKBONE|DICT|INTERRES
   165   84   85 1    
   166   84  205 1    
   167   85   86 1    
   168   85   87 1    
   169   85  206 1    
   170   86  207 1    
   171   86  208 1    
   172   86  209 1    
   173   87   88 2    
   174   87   89 am   BACKBONE|DICT|INTERRES
   175   89   90 1    
   176   89  210 1    
   177   90   91 1    
   178   90   92 1    
   179   90  211 1    
   180   91  212 1    
   181   91  213 1    
   182   91  214 1    
   183   92   93 2    
   184   92   94 am   BACKBONE|DICT|INTERRES
   185   94   95 1    
   186   94  215 1    
   187   95   96 1    
   188   95   97 1    
   189   95  216 1    
   190   96  217 1    
   191   96  218 1    
   192   96  219 1    
   193   97   98 2    
   194   97   99 am   BACKBONE|DICT|INTERRES
   195   99  100 1    
   196   99  220 1    
   197  100  101 1    
   198  100  102 1    
   199  100  221 1    
   200  101  222 1    
   201  101  223 1    
   202  101  224 1    
   203  102  103 2    
   204  102  104 am   BACKBONE|DICT|INTERRES
   205  104  105 1    
   206  104  225 1    
   207  105  106 1    
   208  105  107 1    
   209  105  226 1    
   210  106  227 1    
   211  106  228 1    
   212  106  229 1    
   213  107  108 2    
   214  107  109 am   BACKBONE|DICT|INTERRES
   215  109  110 1    
   216  109  230 1    
   217  110  111 1    
   218  110  112 1    
   219  110  231 1    
   220  111  232 1    
   221  111  233 1    
   222  111  234 1    
   223  112  113 2    
   224  112  114 am   BACKBONE|DICT|INTERRES
   225  114  115 1    
   226  114  235 1    
   227  115  116 1    
   228  115  117 1    
   229  115  236 1    
   230  116  237 1    
   231  116  238 1    
   232  116  239 1    
   233  117  118 2    
   234  117  119 am   BACKBONE|DICT|INTERRES
   235  119  120 1    
   236  119  240 1    
   237  120  121 1    
   238  120  124 1    
   239  120  241 1    
   240  121  122 am   BACKBONE|DICT|INTERRES
   241  121  123 2    
   242  122  242 1    
   243  122  243 1    
   244  124  125 1    
   245  124  244 1    
   246  124  245 1    
   247  125  126 1    
   248  126  246 1    
   249  126  247 1    
@<TRIPOS>SUBSTRUCTURE
     1 UNK         1 GROUP             0       ****    0 ROOT    
