@<TRIPOS>MOLECULE
3R540
247   249    1
SMALL
USER_CHARGES


@<TRIPOS>ATOM
      1 CA         -0.5213  -13.7357  -53.9568 C.3       0 UNK        -0.1800 
      2 C           0.2636  -13.0590  -52.8425 C.2       0 UNK         0.5000 
      3 O           0.4748  -11.8462  -52.8877 O.2       0 UNK        -0.5000 
      4 N           0.6984  -13.8355  -51.8429 N.am      1 UNK        -0.5000 
      5 CA          1.4581  -13.3824  -50.6704 C.3       1 UNK         0.1400 
      6 C6          2.2863  -14.5289  -50.0361 C.3       23 UNK        -0.0398 
      7 S7          3.5121  -15.1917  -51.2171 S.3       23 UNK        -0.2404 
      8 C8          4.0217  -16.7454  -50.4044 C.3       23 UNK        -0.0205 
      9 C9          3.0189  -17.9021  -50.4372 C.ar      23 UNK        -0.0193 
     10 C10         1.7840  -17.8387  -51.0999 C.ar      23 UNK        -0.1150 
     11 C11         0.8857  -18.9141  -51.0610 C.ar      23 UNK        -0.0193 
     12 C12         1.2635  -20.0818  -50.3910 C.ar      23 UNK        -0.1150 
     13 C13         2.4936  -20.1692  -49.7344 C.ar      23 UNK        -0.0193 
     14 C14         3.3618  -19.0767  -49.7614 C.ar      23 UNK        -0.1150 
     15 C15         2.8860  -21.4412  -48.9982 C.3       23 UNK        -0.0205 
     16 S16         2.6357  -21.2773  -47.2008 S.3       23 UNK        -0.2404 
     17 C17         2.7237  -23.0247  -46.6703 C.3       23 UNK        -0.0398 
     18 CA          1.3525  -23.6773  -46.3583 C.3       11 UNK         0.1400 
     19 N           0.6654  -23.0554  -45.2225 N.am      11 UNK        -0.5000 
     20 C          -0.4100  -23.5719  -44.6082 C.2       10 UNK         0.5000 
     21 O          -0.9414  -24.6279  -44.9584 O.2       10 UNK        -0.5000 
     22 CA         -1.0169  -22.7578  -43.4468 C.3       10 UNK         0.1400 
     23 CB         -1.7007  -23.6453  -42.3872 C.3       10 UNK        -0.1800 
     24 N          -0.0687  -21.8275  -42.8279 N.am      10 UNK        -0.5000 
     25 C           1.0512  -22.1114  -42.1471 C.2       9 UNK         0.5000 
     26 O           1.4436  -23.2524  -41.9028 O.2       9 UNK        -0.5000 
     27 CA          1.8927  -20.9069  -41.6826 C.3       9 UNK         0.1400 
     28 CB          3.0585  -20.6776  -42.6577 C.3       9 UNK        -0.1800 
     29 N           1.1108  -19.6721  -41.5767 N.am      9 UNK        -0.5000 
     30 C           0.2210  -19.4133  -40.6078 C.2       8 UNK         0.5000 
     31 O           0.0213  -20.1562  -39.6462 O.2       8 UNK        -0.5000 
     32 CA         -0.6116  -18.1258  -40.7600 C.3       8 UNK         0.1400 
     33 CB          0.1969  -16.8940  -40.3259 C.3       8 UNK        -0.1800 
     34 N          -1.1048  -17.9319  -42.1253 N.am      8 UNK        -0.5000 
     35 C          -1.9939  -18.7281  -42.7385 C.2       7 UNK         0.5000 
     36 O          -2.5250  -19.7021  -42.2064 O.2       7 UNK        -0.5000 
     37 CA         -2.3156  -18.4054  -44.2062 C.3       7 UNK         0.1400 
     38 CB         -3.4046  -17.3259  -44.3062 C.3       7 UNK        -0.1800 
     39 N          -1.1221  -17.9693  -44.9256 N.am      7 UNK        -0.5000 
     40 C          -0.1703  -18.7939  -45.3829 C.2       6 UNK         0.5000 
     41 O          -0.2152  -20.0210  -45.2815 O.2       6 UNK        -0.5000 
     42 CA          1.0478  -18.1287  -46.0482 C.3       6 UNK         0.1400 
     43 CB          0.7392  -17.8369  -47.5191 C.3       6 UNK        -0.1800 
     44 N           1.4508  -16.8772  -45.4132 N.am      6 UNK        -0.5000 
     45 C           1.8928  -16.7414  -44.1560 C.2       5 UNK         0.5000 
     46 O           2.0597  -17.6800  -43.3801 O.2       5 UNK        -0.5000 
     47 CA          2.1177  -15.2959  -43.6711 C.3       5 UNK         0.1400 
     48 CB          3.5563  -14.8438  -43.9608 C.3       5 UNK        -0.1800 
     49 N           1.1812  -14.3525  -44.2875 N.am      5 UNK        -0.5000 
     50 C          -0.1521  -14.4032  -44.1556 C.2       4 UNK         0.5000 
     51 O          -0.7262  -15.2198  -43.4329 O.2       4 UNK        -0.5000 
     52 CA         -0.9816  -13.4585  -45.0452 C.3       4 UNK         0.1400 
     53 CB         -2.2199  -12.8933  -44.3207 C.3       4 UNK        -0.1800 
     54 N          -0.2020  -12.4012  -45.6996 N.am      4 UNK        -0.5000 
     55 C           0.3621  -11.3205  -45.1346 C.2       3 UNK         0.5000 
     56 O           0.3657  -11.1009  -43.9234 O.2       3 UNK        -0.5000 
     57 CA          1.0464  -10.3102  -46.0832 C.3       3 UNK         0.1400 
     58 CB          2.5735  -10.4716  -46.0227 C.3       3 UNK        -0.1800 
     59 N           0.6165  -10.4367  -47.4783 N.am      3 UNK        -0.5000 
     60 C          -0.6259  -10.2145  -47.9293 C.2       2 UNK         0.5000 
     61 O          -1.5145   -9.7115  -47.2406 O.2       2 UNK        -0.5000 
     62 CA         -0.9504  -10.6505  -49.3736 C.3       2 UNK         0.1400 
     63 CB         -1.2177   -9.4223  -50.2583 C.3       2 UNK        -0.1800 
     64 N           0.0528  -11.4894  -50.0409 N.am      2 UNK        -0.5000 
     65 C           0.5238  -12.6843  -49.6566 C.2       1 UNK         0.5000 
     66 O           0.2514  -13.2216  -48.5803 O.2       1 UNK        -0.5000 
     67 C           0.4459  -23.7454  -47.6020 C.2       11 UNK         0.5000 
     68 O           0.4836  -24.7359  -48.3289 O.2       11 UNK        -0.5000 
     69 N          -0.3824  -22.7086  -47.7930 N.am      12 UNK        -0.5000 
     70 CA         -1.3523  -22.6073  -48.8785 C.3       12 UNK         0.1400 
     71 CB         -1.9534  -21.1971  -48.8767 C.3       12 UNK        -0.1800 
     72 C          -2.4643  -23.6636  -48.7765 C.2       12 UNK         0.5000 
     73 O          -2.8891  -24.1964  -49.8011 O.2       12 UNK        -0.5000 
     74 N          -2.8906  -23.9658  -47.5429 N.am      13 UNK        -0.5000 
     75 CA         -3.8660  -25.0109  -47.2432 C.3       13 UNK         0.1400 
     76 CB         -4.4129  -24.8139  -45.8210 C.3       13 UNK        -0.1800 
     77 C          -3.2617  -26.4143  -47.4169 C.2       13 UNK         0.5000 
     78 O          -3.9092  -27.2815  -48.0029 O.2       13 UNK        -0.5000 
     79 N          -2.0219  -26.5991  -46.9394 N.am      14 UNK        -0.5000 
     80 CA         -1.2622  -27.8462  -47.0489 C.3       14 UNK         0.1400 
     81 CB          0.0146  -27.7412  -46.2012 C.3       14 UNK        -0.1800 
     82 C          -0.9227  -28.2207  -48.5044 C.2       14 UNK         0.5000 
     83 O          -1.0589  -29.3855  -48.8804 O.2       14 UNK        -0.5000 
     84 N          -0.5096  -27.2253  -49.3003 N.am      15 UNK        -0.5000 
     85 CA         -0.1971  -27.3704  -50.7235 C.3       15 UNK         0.1400 
     86 CB          0.6871  -26.1906  -51.1592 C.3       15 UNK        -0.1800 
     87 C          -1.4464  -27.4470  -51.6223 C.2       15 UNK         0.5000 
     88 O          -1.3220  -27.8521  -52.7787 O.2       15 UNK        -0.5000 
     89 N          -2.6076  -27.0317  -51.0918 N.am      16 UNK        -0.5000 
     90 CA         -3.8868  -26.8440  -51.7853 C.3       16 UNK         0.1400 
     91 CB         -4.4665  -28.1919  -52.2620 C.3       16 UNK        -0.1800 
     92 C          -3.7728  -25.7894  -52.9072 C.2       16 UNK         0.5000 
     93 O          -4.2210  -26.0127  -54.0333 O.2       16 UNK        -0.5000 
     94 N          -3.1414  -24.6581  -52.5679 N.am      17 UNK        -0.5000 
     95 CA         -2.8519  -23.5428  -53.4699 C.3       17 UNK         0.1400 
     96 CB         -1.7311  -22.6899  -52.8523 C.3       17 UNK        -0.1800 
     97 C          -4.0818  -22.6658  -53.7708 C.2       17 UNK         0.5000 
     98 O          -4.0626  -21.9304  -54.7587 O.2       17 UNK        -0.5000 
     99 N          -5.1118  -22.7508  -52.9140 N.am      18 UNK        -0.5000 
    100 CA        -6.3301  -21.9368  -52.9125 C.3       18 UNK         0.1400 
    101 CB        -7.1948  -22.2259  -54.1608 C.3       18 UNK        -0.1800 
    102 C         -5.9921  -20.4475  -52.6906 C.2       18 UNK         0.5000 
    103 O         -5.2561  -20.1457  -51.7490 O.2       18 UNK        -0.5000 
    104 N         -6.5393  -19.5493  -53.5248 N.am      19 UNK        -0.5000 
    105 CA        -6.2849  -18.1006  -53.5535 C.3       19 UNK         0.1400 
    106 CB        -4.8494  -17.8275  -54.0529 C.3       19 UNK        -0.1800 
    107 C         -6.5844  -17.3929  -52.2135 C.2       19 UNK         0.5000 
    108 O         -5.8552  -16.4809  -51.8225 O.2       19 UNK        -0.5000 
    109 N         -7.6216  -17.8691  -51.5056 N.am      20 UNK        -0.5000 
    110 CA        -8.0265  -17.4644  -50.1504 C.3       20 UNK         0.1400 
    111 CB        -8.5748  -16.0219  -50.1542 C.3       20 UNK        -0.1800 
    112 C         -6.9190  -17.6824  -49.0915 C.2       20 UNK         0.5000 
    113 O         -6.8397  -16.9319  -48.1184 O.2       20 UNK        -0.5000 
    114 N         -6.0758  -18.7010  -49.3226 N.am      21 UNK        -0.5000 
    115 CA        -4.8617  -19.0558  -48.5824 C.3       21 UNK         0.1400 
    116 CB        -5.1707  -19.4208  -47.1148 C.3       21 UNK        -0.1800 
    117 C         -3.7339  -18.0101  -48.7223 C.2       21 UNK         0.5000 
    118 O         -2.8727  -17.9223  -47.8465 O.2       21 UNK        -0.5000 
    119 N         -3.7647  -17.2215  -49.8059 N.am      22 UNK        -0.5000 
    120 CA        -2.8768  -16.0927  -50.1391 C.3       22 UNK         0.1400 
    121 C         -2.9536  -14.8788  -49.1654 C.2       22 UNK         0.5000 
    122 N         -3.1392  -15.0748  -47.8678 N.am      22 UNK        -0.7600 
    123 O         -2.8752  -13.7370  -49.6072 O.2       22 UNK        -0.5000 
    124 C124       -1.4063  -16.5221  -50.3978 C.3       23 UNK        -0.0398 
    125 S125       -1.1658  -17.2048  -52.0732 S.3       23 UNK        -0.2404 
    126 C126       -0.4887  -18.8702  -51.7382 C.3       23 UNK        -0.0205 
    127 H127       -0.4842  -14.8220  -53.8765 H         1 UNK         0.0600 
    128 H128       -1.5656  -13.4256  -53.9210 H         1 UNK         0.0600 
    129 H129       -0.1135  -13.4555  -54.9280 H         1 UNK         0.0600 
    130 H130        0.4954  -14.8233  -51.8747 H         1 UNK         0.3000 
    131 H131        2.1727  -12.6257  -51.0027 H         1 UNK         0.0600 
    132 H132        1.6364  -15.3332  -49.6888 H         1 UNK         0.0800 
    133 H133        2.8269  -14.1705  -49.1583 H         1 UNK         0.0800 
    134 H134        4.2789  -16.5253  -49.3671 H         1 UNK         0.0800 
    135 H135        4.9421  -17.0827  -50.8830 H         1 UNK         0.0800 
    136 H136        1.5134  -16.9487  -51.6437 H         1 UNK         0.1150 
    137 H137        0.5937  -20.9282  -50.3756 H         1 UNK         0.1150 
    138 H138        4.3099  -19.1415  -49.2458 H         1 UNK         0.1150 
    139 H139        2.3061  -22.2828  -49.3793 H         1 UNK         0.0800 
    140 H140        3.9329  -21.6755  -49.1965 H         1 UNK         0.0800 
    141 H141        3.3521  -23.0678  -45.7797 H         1 UNK         0.0800 
    142 H142        3.2547  -23.6080  -47.4247 H         1 UNK         0.0800 
    143 H143        1.5559  -24.7100  -46.0680 H         1 UNK         0.0600 
    144 H144        0.9929  -22.1439  -44.9335 H         1 UNK         0.3000 
    145 H145       -1.7902  -22.1335  -43.8965 H         1 UNK         0.0600 
    146 H146       -2.1223  -23.0419  -41.5831 H         1 UNK         0.0600 
    147 H147       -2.5193  -24.2177  -42.8246 H         1 UNK         0.0600 
    148 H148       -1.0053  -24.3587  -41.9446 H         1 UNK         0.0600 
    149 H149       -0.2683  -20.8506  -42.9931 H         1 UNK         0.3000 
    150 H150        2.3054  -21.1448  -40.7001 H         1 UNK         0.0600 
    151 H151        3.6840  -21.5675  -42.7384 H         1 UNK         0.0600 
    152 H152        3.6975  -19.8603  -42.3228 H         1 UNK         0.0600 
    153 H153        2.7027  -20.4341  -43.6601 H         1 UNK         0.0600 
    154 H154        1.2752  -18.9712  -42.2964 H         1 UNK         0.3000 
    155 H155       -1.4795  -18.2094  -40.1026 H         1 UNK         0.0600 
    156 H156        1.0985  -16.7718  -40.9254 H         1 UNK         0.0600 
    157 H157        0.5068  -16.9804  -39.2839 H         1 UNK         0.0600 
    158 H158       -0.3926  -15.9814  -40.4169 H         1 UNK         0.0600 
    159 H159       -0.7590  -17.1200  -42.6252 H         1 UNK         0.3000 
    160 H160       -2.6961  -19.3136  -44.6788 H         1 UNK         0.0600 
    161 H161       -3.6497  -17.1068  -45.3449 H         1 UNK         0.0600 
    162 H162       -3.1001  -16.3936  -43.8305 H         1 UNK         0.0600 
    163 H163       -4.3232  -17.6564  -43.8201 H         1 UNK         0.0600 
    164 H164       -0.9885  -16.9736  -45.0160 H         1 UNK         0.3000 
    165 H165        1.8890  -18.8187  -45.9859 H         1 UNK         0.0600 
    166 H166        1.6162  -17.4502  -48.0354 H         1 UNK         0.0600 
    167 H167        0.4205  -18.7409  -48.0375 H         1 UNK         0.0600 
    168 H168       -0.0593  -17.1011  -47.6165 H         1 UNK         0.0600 
    169 H169        1.3505  -16.0417  -45.9692 H         1 UNK         0.3000 
    170 H170        1.9588  -15.2731  -42.5917 H         1 UNK         0.0600 
    171 H171        4.2771  -15.5168  -43.4946 H         1 UNK         0.0600 
    172 H172        3.7428  -13.8450  -43.5656 H         1 UNK         0.0600 
    173 H173        3.7670  -14.8268  -45.0309 H         1 UNK         0.0600 
    174 H174        1.5712  -13.6507  -44.8984 H         1 UNK         0.3000 
    175 H175       -1.3459  -14.0851  -45.8595 H         1 UNK         0.0600 
    176 H176       -2.7961  -12.2399  -44.9760 H         1 UNK         0.0600 
    177 H177       -2.8843  -13.6959  -43.9983 H         1 UNK         0.0600 
    178 H178       -1.9469  -12.3235  -43.4324 H         1 UNK         0.0600 
    179 H179       -0.1014  -12.5104  -46.7050 H         1 UNK         0.3000 
    180 H180        0.7888   -9.3072  -45.7374 H         1 UNK         0.0600 
    181 H181        2.8893  -11.4540  -46.3765 H         1 UNK         0.0600 
    182 H182        2.9392  -10.3572  -45.0013 H         1 UNK         0.0600 
    183 H183        3.0743   -9.7181  -46.6309 H         1 UNK         0.0600 
    184 H184        1.2788  -10.8472  -48.1191 H         1 UNK         0.3000 
    185 H185       -1.8700  -11.2353  -49.3202 H         1 UNK         0.0600 
    186 H186       -0.3220   -8.8110  -50.3753 H         1 UNK         0.0600 
    187 H187       -1.5549   -9.7180  -51.2521 H         1 UNK         0.0600 
    188 H188       -1.9953   -8.7884  -49.8299 H         1 UNK         0.0600 
    189 H189        0.3096  -11.1929  -50.9770 H         1 UNK         0.3000 
    190 H190       -0.3340  -21.9340  -47.1444 H         1 UNK         0.3000 
    191 H191       -0.8227  -22.7658  -49.8196 H         1 UNK         0.0600 
    192 H192       -1.1829  -20.4278  -48.8974 H         1 UNK         0.0600 
    193 H193       -2.5578  -21.0226  -47.9863 H         1 UNK         0.0600 
    194 H194       -2.5879  -21.0494  -49.7508 H         1 UNK         0.0600 
    195 H195       -2.4538  -23.5113  -46.7554 H         1 UNK         0.3000 
    196 H196       -4.7000  -24.9148  -47.9421 H         1 UNK         0.0600 
    197 H197       -5.1719  -25.5623  -45.5900 H         1 UNK         0.0600 
    198 H198       -4.8782  -23.8344  -45.7098 H         1 UNK         0.0600 
    199 H199       -3.6295  -24.9004  -45.0679 H         1 UNK         0.0600 
    200 H200       -1.5784  -25.8418  -46.4292 H         1 UNK         0.3000 
    201 H201       -1.8783  -28.6471  -46.6350 H         1 UNK         0.0600 
    202 H202       -0.2203  -27.5274  -45.1583 H         1 UNK         0.0600 
    203 H203        0.6743  -26.9527  -46.5635 H         1 UNK         0.0600 
    204 H204        0.5764  -28.6757  -46.2243 H         1 UNK         0.0600 
    205 H205       -0.3534  -26.3037  -48.8978 H         1 UNK         0.3000 
    206 H206        0.3698  -28.2929  -50.8651 H         1 UNK         0.0600 
    207 H207        1.6010  -26.1420  -50.5670 H         1 UNK         0.0600 
    208 H208        0.9823  -26.2854  -52.2049 H         1 UNK         0.0600 
    209 H209        0.1661  -25.2382  -51.0505 H         1 UNK         0.0600 
    210 H210       -2.5876  -26.7111  -50.1335 H         1 UNK         0.3000 
    211 H211       -4.5762  -26.4331  -51.0462 H         1 UNK         0.0600 
    212 H212       -3.8586  -28.6448  -53.0455 H         1 UNK         0.0600 
    213 H213       -5.4717  -28.0616  -52.6643 H         1 UNK         0.0600 
    214 H214       -4.5361  -28.9023  -51.4382 H         1 UNK         0.0600 
    215 H215       -2.8644  -24.5409  -51.5952 H         1 UNK         0.3000 
    216 H216       -2.4926  -23.9492  -54.4176 H         1 UNK         0.0600 
    217 H217       -1.4297  -21.8908  -53.5308 H         1 UNK         0.0600 
    218 H218       -0.8452  -23.2893  -52.6417 H         1 UNK         0.0600 
    219 H219       -2.0523  -22.2224  -51.9214 H         1 UNK         0.0600 
    220 H220       -4.9949  -23.3623  -52.1191 H         1 UNK         0.3000 
    221 H221       -6.9032  -22.2481  -52.0382 H         1 UNK         0.0600 
    222 H222       -6.7163  -21.8947  -55.0829 H         1 UNK         0.0600 
    223 H223       -7.3886  -23.2943  -54.2582 H         1 UNK         0.0600 
    224 H224       -8.1652  -21.7331  -54.0920 H         1 UNK         0.0600 
    225 H225       -7.1431  -19.8977  -54.2562 H         1 UNK         0.3000 
    226 H226       -6.9767  -17.6768  -54.2826 H         1 UNK         0.0600 
    227 H227       -4.6608  -18.3266  -55.0034 H         1 UNK         0.0600 
    228 H228       -4.6821  -16.7611  -54.2088 H         1 UNK         0.0600 
    229 H229       -4.1002  -18.1744  -53.3398 H         1 UNK         0.0600 
    230 H230       -8.1524  -18.6273  -51.9111 H         1 UNK         0.3000 
    231 H231       -8.8460  -18.1259  -49.8664 H         1 UNK         0.0600 
    232 H232       -9.3550  -15.8985  -50.9052 H         1 UNK         0.0600 
    233 H233       -7.7921  -15.2911  -50.3597 H         1 UNK         0.0600 
    234 H234       -9.0132  -15.7671  -49.1887 H         1 UNK         0.0600 
    235 H235       -6.1909  -19.2198  -50.1865 H         1 UNK         0.3000 
    236 H236       -4.4951  -19.9589  -49.0668 H         1 UNK         0.0600 
    237 H237       -4.2926  -19.8405  -46.6231 H         1 UNK         0.0600 
    238 H238       -5.4792  -18.5509  -46.5350 H         1 UNK         0.0600 
    239 H239       -5.9631  -20.1664  -47.0517 H         1 UNK         0.0600 
    240 H240       -4.5458  -17.3260  -50.4426 H         1 UNK         0.3000 
    241 H241       -3.2731  -15.7056  -51.0791 H         1 UNK         0.0600 
    242 H242       -3.2362  -14.2879  -47.2495 H         1 UNK         0.3800 
    243 H243       -3.1656  -16.0266  -47.5189 H         1 UNK         0.3800 
    244 H244       -0.7280  -15.6751  -50.3001 H         1 UNK         0.0800 
    245 H245       -1.0770  -17.2479  -49.6568 H         1 UNK         0.0800 
    246 H246       -0.4177  -19.4055  -52.6856 H         1 UNK         0.0800 
    247 H247       -1.2177  -19.4119  -51.1350 H         1 UNK         0.0800 
@<TRIPOS>BOND
     1    1    2 1    
     2    1  127 1    
     3    1  128 1    
     4    1  129 1    
     5    2    3 2    
     6    2    4 am   BACKBONE|DICT|INTERRES
     7    4    5 1    
     8    4  130 1    
     9    5    6 1    
    10    5   65 1    
    11    5  131 1    
    12    6    7 1    
    13    6  132 1    
    14    6  133 1    
    15    7    8 1    
    16    8    9 1    
    17    8  134 1    
    18    8  135 1    
    19    9   10 ar   
    20    9   14 ar   
    21   10   11 ar   
    22   10  136 1    
    23   11   12 ar   
    24   11  126 1    
    25   12   13 ar   
    26   12  137 1    
    27   13   14 ar   
    28   13   15 1    
    29   14  138 1    
    30   15   16 1    
    31   15  139 1    
    32   15  140 1    
    33   16   17 1    
    34   17   18 1    
    35   17  141 1    
    36   17  142 1    
    37   18   19 1    
    38   18   67 1    
    39   18  143 1    
    40   19   20 am   BACKBONE|DICT|INTERRES
    41   19  144 1    
    42   20   21 2    
    43   20   22 1    
    44   22   23 1    
    45   22   24 1    
    46   22  145 1    
    47   23  146 1    
    48   23  147 1    
    49   23  148 1    
    50   24   25 am   BACKBONE|DICT|INTERRES
    51   24  149 1    
    52   25   26 2    
    53   25   27 1    
    54   27   28 1    
    55   27   29 1    
    56   27  150 1    
    57   28  151 1    
    58   28  152 1    
    59   28  153 1    
    60   29   30 am   BACKBONE|DICT|INTERRES
    61   29  154 1    
    62   30   31 2    
    63   30   32 1    
    64   32   33 1    
    65   32   34 1    
    66   32  155 1    
    67   33  156 1    
    68   33  157 1    
    69   33  158 1    
    70   34   35 am   BACKBONE|DICT|INTERRES
    71   34  159 1    
    72   35   36 2    
    73   35   37 1    
    74   37   38 1    
    75   37   39 1    
    76   37  160 1    
    77   38  161 1    
    78   38  162 1    
    79   38  163 1    
    80   39   40 am   BACKBONE|DICT|INTERRES
    81   39  164 1    
    82   40   41 2    
    83   40   42 1    
    84   42   43 1    
    85   42   44 1    
    86   42  165 1    
    87   43  166 1    
    88   43  167 1    
    89   43  168 1    
    90   44   45 am   BACKBONE|DICT|INTERRES
    91   44  169 1    
    92   45   46 2    
    93   45   47 1    
    94   47   48 1    
    95   47   49 1    
    96   47  170 1    
    97   48  171 1    
    98   48  172 1    
    99   48  173 1    
   100   49   50 am   BACKBONE|DICT|INTERRES
   101   49  174 1    
   102   50   51 2    
   103   50   52 1    
   104   52   53 1    
   105   52   54 1    
   106   52  175 1    
   107   53  176 1    
   108   53  177 1    
   109   53  178 1    
   110   54   55 am   BACKBONE|DICT|INTERRES
   111   54  179 1    
   112   55   56 2    
   113   55   57 1    
   114   57   58 1    
   115   57   59 1    
   116   57  180 1    
   117   58  181 1    
   118   58  182 1    
   119   58  183 1    
   120   59   60 am   BACKBONE|DICT|INTERRES
   121   59  184 1    
   122   60   61 2    
   123   60   62 1    
   124   62   63 1    
   125   62   64 1    
   126   62  185 1    
   127   63  186 1    
   128   63  187 1    
   129   63  188 1    
   130   64   65 am   BACKBONE|DICT|INTERRES
   131   64  189 1    
   132   65   66 2    
   133   67   68 2    
   134   67   69 am   BACKBONE|DICT|INTERRES
   135   69   70 1    
   136   69  190 1    
   137   70   71 1    
   138   70   72 1    
   139   70  191 1    
   140   71  192 1    
   141   71  193 1    
   142   71  194 1    
   143   72   73 2    
   144   72   74 am   BACKBONE|DICT|INTERRES
   145   74   75 1    
   146   74  195 1    
   147   75   76 1    
   148   75   77 1    
   149   75  196 1    
   150   76  197 1    
   151   76  198 1    
   152   76  199 1    
   153   77   78 2    
   154   77   79 am   BACKBONE|DICT|INTERRES
   155   79   80 1    
   156   79  200 1    
   157   80   81 1    
   158   80   82 1    
   159   80  201 1    
   160   81  202 1    
   161   81  203 1    
   162   81  204 1    
   163   82   83 2    
   164   82   84 am   BACKBONE|DICT|INTERRES
   165   84   85 1    
   166   84  205 1    
   167   85   86 1    
   168   85   87 1    
   169   85  206 1    
   170   86  207 1    
   171   86  208 1    
   172   86  209 1    
   173   87   88 2    
   174   87   89 am   BACKBONE|DICT|INTERRES
   175   89   90 1    
   176   89  210 1    
   177   90   91 1    
   178   90   92 1    
   179   90  211 1    
   180   91  212 1    
   181   91  213 1    
   182   91  214 1    
   183   92   93 2    
   184   92   94 am   BACKBONE|DICT|INTERRES
   185   94   95 1    
   186   94  215 1    
   187   95   96 1    
   188   95   97 1    
   189   95  216 1    
   190   96  217 1    
   191   96  218 1    
   192   96  219 1    
   193   97   98 2    
   194   97   99 am   BACKBONE|DICT|INTERRES
   195   99  100 1    
   196   99  220 1    
   197  100  101 1    
   198  100  102 1    
   199  100  221 1    
   200  101  222 1    
   201  101  223 1    
   202  101  224 1    
   203  102  103 2    
   204  102  104 am   BACKBONE|DICT|INTERRES
   205  104  105 1    
   206  104  225 1    
   207  105  106 1    
   208  105  107 1    
   209  105  226 1    
   210  106  227 1    
   211  106  228 1    
   212  106  229 1    
   213  107  108 2    
   214  107  109 am   BACKBONE|DICT|INTERRES
   215  109  110 1    
   216  109  230 1    
   217  110  111 1    
   218  110  112 1    
   219  110  231 1    
   220  111  232 1    
   221  111  233 1    
   222  111  234 1    
   223  112  113 2    
   224  112  114 am   BACKBONE|DICT|INTERRES
   225  114  115 1    
   226  114  235 1    
   227  115  116 1    
   228  115  117 1    
   229  115  236 1    
   230  116  237 1    
   231  116  238 1    
   232  116  239 1    
   233  117  118 2    
   234  117  119 am   BACKBONE|DICT|INTERRES
   235  119  120 1    
   236  119  240 1    
   237  120  121 1    
   238  120  124 1    
   239  120  241 1    
   240  121  122 am   BACKBONE|DICT|INTERRES
   241  121  123 2    
   242  122  242 1    
   243  122  243 1    
   244  124  125 1    
   245  124  244 1    
   246  124  245 1    
   247  125  126 1    
   248  126  246 1    
   249  126  247 1    
@<TRIPOS>SUBSTRUCTURE
     1 UNK         1 GROUP             0       ****    0 ROOT    
