@<TRIPOS>MOLECULE
3R540
247   249    1
SMALL
USER_CHARGES


@<TRIPOS>ATOM
      1 CA         -2.2979  -11.0544  -45.9037 C.3       0 UNK        -0.1800 
      2 C          -1.5364  -10.7353  -47.1826 C.2       0 UNK         0.5000 
      3 O          -1.0504   -9.6168  -47.3487 O.2       0 UNK        -0.5000 
      4 N          -1.4286  -11.7199  -48.0829 N.am      1 UNK        -0.5000 
      5 CA         -0.7137  -11.6309  -49.3648 C.3       1 UNK         0.1400 
      6 C6         -1.0562  -12.8351  -50.2758 C.3       23 UNK        -0.0398 
      7 S7         -2.8047  -12.8880  -50.8146 S.3       23 UNK        -0.2404 
      8 C8         -3.5668  -14.1867  -49.7666 C.3       23 UNK        -0.0205 
      9 C9         -2.9167  -15.5737  -49.7948 C.ar      23 UNK        -0.0193 
     10 C10        -2.0101  -15.9654  -50.7875 C.ar      23 UNK        -0.1150 
     11 C11        -1.3622  -17.2036  -50.7259 C.ar      23 UNK        -0.0193 
     12 C12        -1.6436  -18.0640  -49.6602 C.ar      23 UNK        -0.1150 
     13 C13        -2.5729  -17.7087  -48.6790 C.ar      23 UNK        -0.0193 
     14 C14        -3.2163  -16.4709  -48.7633 C.ar      23 UNK        -0.1150 
     15 C15        -2.8316  -18.6365  -47.4998 C.3       23 UNK        -0.0205 
     16 S16        -3.8347  -20.0753  -47.9804 S.3       23 UNK        -0.2404 
     17 C17        -3.7471  -21.1125  -46.4818 C.3       23 UNK        -0.0398 
     18 CA         -2.6244  -22.1683  -46.6090 C.3       11 UNK         0.1400 
     19 N          -1.2981  -21.5916  -46.3947 N.am      11 UNK        -0.5000 
     20 C          -0.1543  -22.1483  -46.8091 C.2       10 UNK         0.5000 
     21 O          -0.0895  -23.2253  -47.4014 O.2       10 UNK        -0.5000 
     22 CA          1.1312  -21.3803  -46.4579 C.3       10 UNK         0.1400 
     23 CB          1.3117  -20.1712  -47.3907 C.3       10 UNK        -0.1800 
     24 N           1.1454  -20.9320  -45.0637 N.am      10 UNK        -0.5000 
     25 C           1.1459  -21.7586  -44.0073 C.2       9 UNK         0.5000 
     26 O           1.1528  -22.9866  -44.0951 O.2       9 UNK        -0.5000 
     27 CA          1.0831  -21.1039  -42.6173 C.3       9 UNK         0.1400 
     28 CB          2.4846  -20.6700  -42.1620 C.3       9 UNK        -0.1800 
     29 N           0.1878  -19.9504  -42.5569 N.am      9 UNK        -0.5000 
     30 C          -1.1244  -19.9450  -42.8245 C.2       8 UNK         0.5000 
     31 O          -1.7384  -20.9356  -43.2174 O.2       8 UNK        -0.5000 
     32 CA         -1.8759  -18.6071  -42.6785 C.3       8 UNK         0.1400 
     33 CB         -3.2244  -18.7746  -41.9509 C.3       8 UNK        -0.1800 
     34 N          -1.0810  -17.5253  -42.0845 N.am      8 UNK        -0.5000 
     35 C          -0.6012  -17.4168  -40.8359 C.2       7 UNK         0.5000 
     36 O          -0.7899  -18.2512  -39.9510 O.2       7 UNK        -0.5000 
     37 CA          0.2786  -16.1849  -40.5348 C.3       7 UNK         0.1400 
     38 CB          1.7490  -16.6108  -40.3950 C.3       7 UNK        -0.1800 
     39 N           0.1881  -15.1476  -41.5658 N.am      7 UNK        -0.5000 
     40 C          -0.8534  -14.3191  -41.7274 C.2       6 UNK         0.5000 
     41 O          -1.8144  -14.2679  -40.9595 O.2       6 UNK        -0.5000 
     42 CA         -0.8391  -13.4416  -42.9922 C.3       6 UNK         0.1400 
     43 CB          0.0362  -12.1968  -42.7803 C.3       6 UNK        -0.1800 
     44 N          -0.3664  -14.1699  -44.1714 N.am      6 UNK        -0.5000 
     45 C          -0.9852  -15.2138  -44.7411 C.2       5 UNK         0.5000 
     46 O          -2.0607  -15.6652  -44.3534 O.2       5 UNK        -0.5000 
     47 CA         -0.2615  -15.8979  -45.9117 C.3       5 UNK         0.1400 
     48 CB         -0.4953  -15.1324  -47.2181 C.3       5 UNK        -0.1800 
     49 N           1.1732  -16.0027  -45.6591 N.am      5 UNK        -0.5000 
     50 C           1.7530  -16.9969  -44.9754 C.2       4 UNK         0.5000 
     51 O           1.1486  -17.9921  -44.5758 O.2       4 UNK        -0.5000 
     52 CA          3.2602  -16.8644  -44.6822 C.3       4 UNK         0.1400 
     53 CB          4.0703  -17.7506  -45.6388 C.3       4 UNK        -0.1800 
     54 N           3.7547  -15.4862  -44.7650 N.am      4 UNK        -0.5000 
     55 C           3.4895  -14.5324  -43.8610 C.2       3 UNK         0.5000 
     56 O           2.7855  -14.7127  -42.8675 O.2       3 UNK        -0.5000 
     57 CA          4.0498  -13.1258  -44.1558 C.3       3 UNK         0.1400 
     58 CB          5.5301  -13.0368  -43.7564 C.3       3 UNK        -0.1800 
     59 N           3.8928  -12.7096  -45.5560 N.am      3 UNK        -0.5000 
     60 C           2.7148  -12.6212  -46.1863 C.2       2 UNK         0.5000 
     61 O           1.6430  -12.9162  -45.6501 O.2       2 UNK        -0.5000 
     62 CA          2.7215  -12.1784  -47.6589 C.3       2 UNK         0.1400 
     63 CB          3.4233  -13.2307  -48.5407 C.3       2 UNK        -0.1800 
     64 N           1.3264  -12.0342  -48.0588 N.am      2 UNK        -0.5000 
     65 C           0.8227  -11.5356  -49.1913 C.2       1 UNK         0.5000 
     66 O           1.5088  -11.0373  -50.0845 O.2       1 UNK        -0.5000 
     67 C          -2.8662  -23.3877  -45.7018 C.2       11 UNK         0.5000 
     68 O          -3.4896  -24.3440  -46.1575 O.2       11 UNK        -0.5000 
     69 N          -2.3438  -23.3727  -44.4687 N.am      12 UNK        -0.5000 
     70 CA         -2.3886  -24.5057  -43.5433 C.3       12 UNK         0.1400 
     71 CB         -1.8661  -24.0720  -42.1656 C.3       12 UNK        -0.1800 
     72 C          -1.6072  -25.7248  -44.0668 C.2       12 UNK         0.5000 
     73 O          -2.1050  -26.8472  -43.9744 O.2       12 UNK        -0.5000 
     74 N          -0.4184  -25.4797  -44.6362 N.am      13 UNK        -0.5000 
     75 CA          0.4291  -26.5017  -45.2499 C.3       13 UNK         0.1400 
     76 CB          1.8247  -25.9161  -45.5140 C.3       13 UNK        -0.1800 
     77 C          -0.1714  -27.0762  -46.5462 C.2       13 UNK         0.5000 
     78 O          -0.1362  -28.2909  -46.7461 O.2       13 UNK        -0.5000 
     79 N          -0.7098  -26.1964  -47.4009 N.am      14 UNK        -0.5000 
     80 CA         -1.2608  -26.5504  -48.7109 C.3       14 UNK         0.1400 
     81 CB         -1.1791  -25.3161  -49.6181 C.3       14 UNK        -0.1800 
     82 C          -2.7079  -27.0782  -48.6701 C.2       14 UNK         0.5000 
     83 O          -3.1961  -27.5385  -49.7015 O.2       14 UNK        -0.5000 
     84 N          -3.3820  -26.9662  -47.5164 N.am      15 UNK        -0.5000 
     85 CA         -4.8082  -27.2411  -47.2973 C.3       15 UNK         0.1400 
     86 CB         -5.1287  -28.7385  -47.4877 C.3       15 UNK        -0.1800 
     87 C          -5.6987  -26.3060  -48.1445 C.2       15 UNK         0.5000 
     88 O          -6.5650  -26.7623  -48.8916 O.2       15 UNK        -0.5000 
     89 N          -5.4145  -25.0015  -48.0266 N.am      16 UNK        -0.5000 
     90 CA         -6.0320  -23.8431  -48.6859 C.3       16 UNK         0.1400 
     91 CB         -7.5473  -23.7809  -48.4117 C.3       16 UNK        -0.1800 
     92 C          -5.7161  -23.6950  -50.1884 C.2       16 UNK         0.5000 
     93 O          -6.0793  -22.6745  -50.7747 O.2       16 UNK        -0.5000 
     94 N          -5.0172  -24.6688  -50.7891 N.am      17 UNK        -0.5000 
     95 CA         -4.6693  -24.6846  -52.2129 C.3       17 UNK         0.1400 
     96 CB         -4.1842  -26.0885  -52.6018 C.3       17 UNK        -0.1800 
     97 C          -3.6298  -23.6214  -52.6180 C.2       17 UNK         0.5000 
     98 O          -3.5303  -23.3067  -53.8033 O.2       17 UNK        -0.5000 
     99 N          -2.8872  -23.0737  -51.6437 N.am      18 UNK        -0.5000 
    100 CA        -1.8966  -22.0164  -51.8534 C.3       18 UNK         0.1400 
    101 CB        -1.1172  -21.7533  -50.5556 C.3       18 UNK        -0.1800 
    102 C         -2.5254  -20.7184  -52.3864 C.2       18 UNK         0.5000 
    103 O         -2.0011  -20.1484  -53.3395 O.2       18 UNK        -0.5000 
    104 N         -3.6658  -20.3135  -51.8083 N.am      19 UNK        -0.5000 
    105 CA        -4.4128  -19.1119  -52.1950 C.3       19 UNK         0.1400 
    106 CB        -5.4837  -18.8178  -51.1337 C.3       19 UNK        -0.1800 
    107 C         -5.0539  -19.1978  -53.5945 C.2       19 UNK         0.5000 
    108 O         -5.3590  -18.1604  -54.1833 O.2       19 UNK        -0.5000 
    109 N         -5.2420  -20.4219  -54.1073 N.am      20 UNK        -0.5000 
    110 CA        -5.6949  -20.6875  -55.4738 C.3       20 UNK         0.1400 
    111 CB        -6.3468  -22.0788  -55.5241 C.3       20 UNK        -0.1800 
    112 C         -4.5558  -20.5728  -56.5096 C.2       20 UNK         0.5000 
    113 O         -4.8383  -20.5343  -57.7083 O.2       20 UNK        -0.5000 
    114 N         -3.3032  -20.5214  -56.0401 N.am      21 UNK        -0.5000 
    115 CA        -2.0946  -20.3178  -56.8289 C.3       21 UNK         0.1400 
    116 CB        -1.1477  -21.5114  -56.5863 C.3       21 UNK        -0.1800 
    117 C         -1.4913  -18.9482  -56.4538 C.2       21 UNK         0.5000 
    118 O         -2.2403  -17.9760  -56.3414 O.2       21 UNK        -0.5000 
    119 N         -0.1604  -18.8951  -56.3054 N.am      22 UNK        -0.5000 
    120 CA         0.7144  -17.7875  -55.8614 C.3       22 UNK         0.1400 
    121 C          0.6047  -16.3968  -56.5629 C.2       22 UNK         0.5000 
    122 N         -0.4195  -16.1162  -57.3534 N.am      22 UNK        -0.7600 
    123 O          1.5006  -15.5687  -56.4198 O.2       22 UNK        -0.5000 
    124 C124        0.8183  -17.6762  -54.3141 C.3       23 UNK        -0.0398 
    125 S125       -0.6707  -17.0570  -53.4577 S.3       23 UNK        -0.2404 
    126 C126       -0.3018  -17.5953  -51.7526 C.3       23 UNK        -0.0205 
    127 H127       -2.4233  -12.1288  -45.7654 H         1 UNK         0.0600 
    128 H128       -1.7625  -10.6639  -45.0387 H         1 UNK         0.0600 
    129 H129       -3.2849  -10.5930  -45.9300 H         1 UNK         0.0600 
    130 H130       -1.8817  -12.6018  -47.9001 H         1 UNK         0.3000 
    131 H131       -1.0356  -10.7163  -49.8674 H         1 UNK         0.0600 
    132 H132       -0.7841  -13.7674  -49.7816 H         1 UNK         0.0800 
    133 H133       -0.4575  -12.8005  -51.1882 H         1 UNK         0.0800 
    134 H134       -4.6084  -14.2964  -50.0710 H         1 UNK         0.0800 
    135 H135       -3.5887  -13.8206  -48.7395 H         1 UNK         0.0800 
    136 H136       -1.7746  -15.2926  -51.5978 H         1 UNK         0.1150 
    137 H137       -1.1292  -19.0098  -49.5810 H         1 UNK         0.1150 
    138 H138       -3.9195  -16.1839  -47.9940 H         1 UNK         0.1150 
    139 H139       -1.8750  -18.9713  -47.1007 H         1 UNK         0.0800 
    140 H140       -3.3332  -18.1023  -46.6912 H         1 UNK         0.0800 
    141 H141       -4.7228  -21.5892  -46.3723 H         1 UNK         0.0800 
    142 H142       -3.6142  -20.4938  -45.5924 H         1 UNK         0.0800 
    143 H143       -2.6514  -22.5587  -47.6291 H         1 UNK         0.0600 
    144 H144       -1.2507  -20.7477  -45.8453 H         1 UNK         0.3000 
    145 H145        1.9737  -22.0588  -46.6069 H         1 UNK         0.0600 
    146 H146        2.2859  -19.7058  -47.2459 H         1 UNK         0.0600 
    147 H147        1.2499  -20.4707  -48.4378 H         1 UNK         0.0600 
    148 H148        0.5511  -19.4083  -47.2214 H         1 UNK         0.0600 
    149 H149        1.1247  -19.9301  -44.8943 H         1 UNK         0.3000 
    150 H150        0.7081  -21.8494  -41.9139 H         1 UNK         0.0600 
    151 H151        2.8959  -19.8943  -42.8096 H         1 UNK         0.0600 
    152 H152        3.1780  -21.5120  -42.1752 H         1 UNK         0.0600 
    153 H153        2.4657  -20.2811  -41.1436 H         1 UNK         0.0600 
    154 H154        0.6109  -19.0664  -42.3191 H         1 UNK         0.3000 
    155 H155       -2.0950  -18.2877  -43.6978 H         1 UNK         0.0600 
    156 H156       -3.0966  -19.1677  -40.9422 H         1 UNK         0.0600 
    157 H157       -3.8755  -19.4653  -42.4880 H         1 UNK         0.0600 
    158 H158       -3.7523  -17.8237  -41.8782 H         1 UNK         0.0600 
    159 H159       -0.8802  -16.7627  -42.7165 H         1 UNK         0.3000 
    160 H160       -0.0519  -15.7648  -39.5826 H         1 UNK         0.0600 
    161 H161        2.1312  -17.0460  -41.3193 H         1 UNK         0.0600 
    162 H162        1.8703  -17.3545  -39.6063 H         1 UNK         0.0600 
    163 H163        2.3826  -15.7611  -40.1395 H         1 UNK         0.0600 
    164 H164        0.9795  -15.0683  -42.1989 H         1 UNK         0.3000 
    165 H165       -1.8622  -13.1138  -43.1877 H         1 UNK         0.0600 
    166 H166        0.0309  -11.5539  -43.6602 H         1 UNK         0.0600 
    167 H167       -0.3253  -11.6037  -41.9396 H         1 UNK         0.0600 
    168 H168        1.0727  -12.4645  -42.5732 H         1 UNK         0.0600 
    169 H169        0.4901  -13.8207  -44.5951 H         1 UNK         0.3000 
    170 H170       -0.6879  -16.8965  -46.0280 H         1 UNK         0.0600 
    171 H171        0.0490  -14.1942  -47.2385 H         1 UNK         0.0600 
    172 H172       -1.5495  -14.8921  -47.3446 H         1 UNK         0.0600 
    173 H173       -0.1802  -15.7204  -48.0803 H         1 UNK         0.0600 
    174 H174        1.7377  -15.2068  -45.9180 H         1 UNK         0.3000 
    175 H175        3.4250  -17.2258  -43.6648 H         1 UNK         0.0600 
    176 H176        3.9243  -17.4599  -46.6799 H         1 UNK         0.0600 
    177 H177        5.1368  -17.6959  -45.4199 H         1 UNK         0.0600 
    178 H178        3.7762  -18.7965  -45.5426 H         1 UNK         0.0600 
    179 H179        4.3310  -15.2534  -45.5606 H         1 UNK         0.3000 
    180 H180        3.4910  -12.4185  -43.5393 H         1 UNK         0.0600 
    181 H181        5.9061  -12.0189  -43.8610 H         1 UNK         0.0600 
    182 H182        6.1540  -13.6900  -44.3677 H         1 UNK         0.0600 
    183 H183        5.6716  -13.3280  -42.7146 H         1 UNK         0.0600 
    184 H184        4.7371  -12.4611  -46.0513 H         1 UNK         0.3000 
    185 H185        3.2243  -11.2130  -47.7391 H         1 UNK         0.0600 
    186 H186        3.4312  -12.9328  -49.5890 H         1 UNK         0.0600 
    187 H187        4.4635  -13.3683  -48.2439 H         1 UNK         0.0600 
    188 H188        2.9303  -14.2016  -48.4751 H         1 UNK         0.0600 
    189 H189        0.6865  -12.3524  -47.3412 H         1 UNK         0.3000 
    190 H190       -1.9091  -22.5201  -44.1228 H         1 UNK         0.3000 
    191 H191       -3.4333  -24.8032  -43.4307 H         1 UNK         0.0600 
    192 H192       -1.9183  -24.8946  -41.4514 H         1 UNK         0.0600 
    193 H193       -2.4575  -23.2508  -41.7602 H         1 UNK         0.0600 
    194 H194       -0.8278  -23.7445  -42.2143 H         1 UNK         0.0600 
    195 H195       -0.0557  -24.5314  -44.6314 H         1 UNK         0.3000 
    196 H196        0.5368  -27.3242  -44.5397 H         1 UNK         0.0600 
    197 H197        1.7810  -25.0573  -46.1852 H         1 UNK         0.0600 
    198 H198        2.2957  -25.5897  -44.5866 H         1 UNK         0.0600 
    199 H199        2.4818  -26.6580  -45.9694 H         1 UNK         0.0600 
    200 H200       -0.6519  -25.2059  -47.1871 H         1 UNK         0.3000 
    201 H201       -0.6427  -27.3340  -49.1541 H         1 UNK         0.0600 
    202 H202       -1.7969  -24.5035  -49.2351 H         1 UNK         0.0600 
    203 H203       -1.5147  -25.5435  -50.6300 H         1 UNK         0.0600 
    204 H204       -0.1536  -24.9544  -49.6939 H         1 UNK         0.0600 
    205 H205       -2.9051  -26.5195  -46.7440 H         1 UNK         0.3000 
    206 H206       -5.0092  -26.9944  -46.2536 H         1 UNK         0.0600 
    207 H207       -4.4854  -29.3602  -46.8651 H         1 UNK         0.0600 
    208 H208       -6.1600  -28.9524  -47.2048 H         1 UNK         0.0600 
    209 H209       -5.0038  -29.0576  -48.5226 H         1 UNK         0.0600 
    210 H210       -4.6690  -24.7668  -47.3707 H         1 UNK         0.3000 
    211 H211       -5.5844  -22.9702  -48.2102 H         1 UNK         0.0600 
    212 H212       -7.9697  -22.8412  -48.7698 H         1 UNK         0.0600 
    213 H213       -7.7583  -23.8439  -47.3442 H         1 UNK         0.0600 
    214 H214       -8.0854  -24.5873  -48.9102 H         1 UNK         0.0600 
    215 H215       -4.7734  -25.4899  -50.2523 H         1 UNK         0.3000 
    216 H216       -5.5793  -24.4757  -52.7794 H         1 UNK         0.0600 
    217 H217       -3.2461  -26.3425  -52.1090 H         1 UNK         0.0600 
    218 H218       -4.0160  -26.1582  -53.6772 H         1 UNK         0.0600 
    219 H219       -4.9189  -26.8495  -52.3378 H         1 UNK         0.0600 
    220 H220       -3.0379  -23.3847  -50.6974 H         1 UNK         0.3000 
    221 H221       -1.1876  -22.3705  -52.6050 H         1 UNK         0.0600 
    222 H222       -0.5603  -22.6337  -50.2405 H         1 UNK         0.0600 
    223 H223       -1.7741  -21.4588  -49.7376 H         1 UNK         0.0600 
    224 H224       -0.3864  -20.9569  -50.6968 H         1 UNK         0.0600 
    225 H225       -4.0548  -20.8610  -51.0539 H         1 UNK         0.3000 
    226 H226       -3.7139  -18.2730  -52.2144 H         1 UNK         0.0600 
    227 H227       -6.1508  -19.6682  -50.9872 H         1 UNK         0.0600 
    228 H228       -5.0284  -18.5743  -50.1753 H         1 UNK         0.0600 
    229 H229       -6.0963  -17.9617  -51.4189 H         1 UNK         0.0600 
    230 H230       -4.9508  -21.2221  -53.5636 H         1 UNK         0.3000 
    231 H231       -6.4559  -19.9519  -55.7423 H         1 UNK         0.0600 
    232 H232       -5.6273  -22.8717  -55.3217 H         1 UNK         0.0600 
    233 H233       -6.7740  -22.2719  -56.5088 H         1 UNK         0.0600 
    234 H234       -7.1551  -22.1640  -54.7976 H         1 UNK         0.0600 
    235 H235       -3.1613  -20.4905  -55.0365 H         1 UNK         0.3000 
    236 H236       -2.3311  -20.2799  -57.8938 H         1 UNK         0.0600 
    237 H237       -1.6475  -22.4541  -56.8109 H         1 UNK         0.0600 
    238 H238       -0.2662  -21.4609  -57.2262 H         1 UNK         0.0600 
    239 H239       -0.8135  -21.5586  -55.5486 H         1 UNK         0.0600 
    240 H240        0.3341  -19.7599  -56.4688 H         1 UNK         0.3000 
    241 H241        1.6973  -18.1329  -56.1845 H         1 UNK         0.0600 
    242 H242       -0.4771  -15.2218  -57.8136 H         1 UNK         0.3800 
    243 H243       -1.2182  -16.7429  -57.3398 H         1 UNK         0.3800 
    244 H244        1.6554  -17.0316  -54.0405 H         1 UNK         0.0800 
    245 H245        1.0618  -18.6583  -53.9067 H         1 UNK         0.0800 
    246 H246       -0.1702  -18.6778  -51.7566 H         1 UNK         0.0800 
    247 H247        0.6510  -17.1647  -51.4426 H         1 UNK         0.0800 
@<TRIPOS>BOND
     1    1    2 1    
     2    1  127 1    
     3    1  128 1    
     4    1  129 1    
     5    2    3 2    
     6    2    4 am   BACKBONE|DICT|INTERRES
     7    4    5 1    
     8    4  130 1    
     9    5    6 1    
    10    5   65 1    
    11    5  131 1    
    12    6    7 1    
    13    6  132 1    
    14    6  133 1    
    15    7    8 1    
    16    8    9 1    
    17    8  134 1    
    18    8  135 1    
    19    9   10 ar   
    20    9   14 ar   
    21   10   11 ar   
    22   10  136 1    
    23   11   12 ar   
    24   11  126 1    
    25   12   13 ar   
    26   12  137 1    
    27   13   14 ar   
    28   13   15 1    
    29   14  138 1    
    30   15   16 1    
    31   15  139 1    
    32   15  140 1    
    33   16   17 1    
    34   17   18 1    
    35   17  141 1    
    36   17  142 1    
    37   18   19 1    
    38   18   67 1    
    39   18  143 1    
    40   19   20 am   BACKBONE|DICT|INTERRES
    41   19  144 1    
    42   20   21 2    
    43   20   22 1    
    44   22   23 1    
    45   22   24 1    
    46   22  145 1    
    47   23  146 1    
    48   23  147 1    
    49   23  148 1    
    50   24   25 am   BACKBONE|DICT|INTERRES
    51   24  149 1    
    52   25   26 2    
    53   25   27 1    
    54   27   28 1    
    55   27   29 1    
    56   27  150 1    
    57   28  151 1    
    58   28  152 1    
    59   28  153 1    
    60   29   30 am   BACKBONE|DICT|INTERRES
    61   29  154 1    
    62   30   31 2    
    63   30   32 1    
    64   32   33 1    
    65   32   34 1    
    66   32  155 1    
    67   33  156 1    
    68   33  157 1    
    69   33  158 1    
    70   34   35 am   BACKBONE|DICT|INTERRES
    71   34  159 1    
    72   35   36 2    
    73   35   37 1    
    74   37   38 1    
    75   37   39 1    
    76   37  160 1    
    77   38  161 1    
    78   38  162 1    
    79   38  163 1    
    80   39   40 am   BACKBONE|DICT|INTERRES
    81   39  164 1    
    82   40   41 2    
    83   40   42 1    
    84   42   43 1    
    85   42   44 1    
    86   42  165 1    
    87   43  166 1    
    88   43  167 1    
    89   43  168 1    
    90   44   45 am   BACKBONE|DICT|INTERRES
    91   44  169 1    
    92   45   46 2    
    93   45   47 1    
    94   47   48 1    
    95   47   49 1    
    96   47  170 1    
    97   48  171 1    
    98   48  172 1    
    99   48  173 1    
   100   49   50 am   BACKBONE|DICT|INTERRES
   101   49  174 1    
   102   50   51 2    
   103   50   52 1    
   104   52   53 1    
   105   52   54 1    
   106   52  175 1    
   107   53  176 1    
   108   53  177 1    
   109   53  178 1    
   110   54   55 am   BACKBONE|DICT|INTERRES
   111   54  179 1    
   112   55   56 2    
   113   55   57 1    
   114   57   58 1    
   115   57   59 1    
   116   57  180 1    
   117   58  181 1    
   118   58  182 1    
   119   58  183 1    
   120   59   60 am   BACKBONE|DICT|INTERRES
   121   59  184 1    
   122   60   61 2    
   123   60   62 1    
   124   62   63 1    
   125   62   64 1    
   126   62  185 1    
   127   63  186 1    
   128   63  187 1    
   129   63  188 1    
   130   64   65 am   BACKBONE|DICT|INTERRES
   131   64  189 1    
   132   65   66 2    
   133   67   68 2    
   134   67   69 am   BACKBONE|DICT|INTERRES
   135   69   70 1    
   136   69  190 1    
   137   70   71 1    
   138   70   72 1    
   139   70  191 1    
   140   71  192 1    
   141   71  193 1    
   142   71  194 1    
   143   72   73 2    
   144   72   74 am   BACKBONE|DICT|INTERRES
   145   74   75 1    
   146   74  195 1    
   147   75   76 1    
   148   75   77 1    
   149   75  196 1    
   150   76  197 1    
   151   76  198 1    
   152   76  199 1    
   153   77   78 2    
   154   77   79 am   BACKBONE|DICT|INTERRES
   155   79   80 1    
   156   79  200 1    
   157   80   81 1    
   158   80   82 1    
   159   80  201 1    
   160   81  202 1    
   161   81  203 1    
   162   81  204 1    
   163   82   83 2    
   164   82   84 am   BACKBONE|DICT|INTERRES
   165   84   85 1    
   166   84  205 1    
   167   85   86 1    
   168   85   87 1    
   169   85  206 1    
   170   86  207 1    
   171   86  208 1    
   172   86  209 1    
   173   87   88 2    
   174   87   89 am   BACKBONE|DICT|INTERRES
   175   89   90 1    
   176   89  210 1    
   177   90   91 1    
   178   90   92 1    
   179   90  211 1    
   180   91  212 1    
   181   91  213 1    
   182   91  214 1    
   183   92   93 2    
   184   92   94 am   BACKBONE|DICT|INTERRES
   185   94   95 1    
   186   94  215 1    
   187   95   96 1    
   188   95   97 1    
   189   95  216 1    
   190   96  217 1    
   191   96  218 1    
   192   96  219 1    
   193   97   98 2    
   194   97   99 am   BACKBONE|DICT|INTERRES
   195   99  100 1    
   196   99  220 1    
   197  100  101 1    
   198  100  102 1    
   199  100  221 1    
   200  101  222 1    
   201  101  223 1    
   202  101  224 1    
   203  102  103 2    
   204  102  104 am   BACKBONE|DICT|INTERRES
   205  104  105 1    
   206  104  225 1    
   207  105  106 1    
   208  105  107 1    
   209  105  226 1    
   210  106  227 1    
   211  106  228 1    
   212  106  229 1    
   213  107  108 2    
   214  107  109 am   BACKBONE|DICT|INTERRES
   215  109  110 1    
   216  109  230 1    
   217  110  111 1    
   218  110  112 1    
   219  110  231 1    
   220  111  232 1    
   221  111  233 1    
   222  111  234 1    
   223  112  113 2    
   224  112  114 am   BACKBONE|DICT|INTERRES
   225  114  115 1    
   226  114  235 1    
   227  115  116 1    
   228  115  117 1    
   229  115  236 1    
   230  116  237 1    
   231  116  238 1    
   232  116  239 1    
   233  117  118 2    
   234  117  119 am   BACKBONE|DICT|INTERRES
   235  119  120 1    
   236  119  240 1    
   237  120  121 1    
   238  120  124 1    
   239  120  241 1    
   240  121  122 am   BACKBONE|DICT|INTERRES
   241  121  123 2    
   242  122  242 1    
   243  122  243 1    
   244  124  125 1    
   245  124  244 1    
   246  124  245 1    
   247  125  126 1    
   248  126  246 1    
   249  126  247 1    
@<TRIPOS>SUBSTRUCTURE
     1 UNK         1 GROUP             0       ****    0 ROOT    
