@<TRIPOS>MOLECULE
3R540
247   249    1
SMALL
USER_CHARGES


@<TRIPOS>ATOM
      1 CA         -3.3572   -7.9666  -50.6278 C.3       0 UNK        -0.1800 
      2 C          -4.3827   -8.2720  -49.5368 C.2       0 UNK         0.5000 
      3 O          -5.1003   -7.3670  -49.1147 O.2       0 UNK        -0.5000 
      4 N          -4.5062   -9.5181  -49.0606 N.am      1 UNK        -0.5000 
      5 CA         -3.6689  -10.6791  -49.3804 C.3       1 UNK         0.1400 
      6 C6         -4.3381  -12.0101  -48.9514 C.3       23 UNK        -0.0398 
      7 S7         -4.8812  -12.0713  -47.2047 S.3       23 UNK        -0.2404 
      8 C8         -6.2610  -13.2554  -47.2935 C.3       23 UNK        -0.0205 
      9 C9         -5.7702  -14.6903  -47.4209 C.ar      23 UNK        -0.0193 
     10 C10        -5.5071  -15.2375  -48.6807 C.ar      23 UNK        -0.1150 
     11 C11        -5.0610  -16.5562  -48.8008 C.ar      23 UNK        -0.0193 
     12 C12        -4.9006  -17.3359  -47.6536 C.ar      23 UNK        -0.1150 
     13 C13        -5.1688  -16.8052  -46.3901 C.ar      23 UNK        -0.0193 
     14 C14        -5.5961  -15.4786  -46.2779 C.ar      23 UNK        -0.1150 
     15 C15        -5.0296  -17.6869  -45.1604 C.3       23 UNK        -0.0205 
     16 S16        -3.2868  -18.0140  -44.7476 S.3       23 UNK        -0.2404 
     17 C17        -3.4980  -19.4638  -43.6641 C.3       23 UNK        -0.0398 
     18 CA         -3.2879  -20.7865  -44.4383 C.3       11 UNK         0.1400 
     19 N          -1.8811  -21.0196  -44.7927 N.am      11 UNK        -0.5000 
     20 C          -1.4314  -22.0478  -45.5266 C.2       10 UNK         0.5000 
     21 O          -2.1651  -22.8908  -46.0380 O.2       10 UNK        -0.5000 
     22 CA          0.0879  -22.2104  -45.6617 C.3       10 UNK         0.1400 
     23 CB          0.6552  -21.2850  -46.7483 C.3       10 UNK        -0.1800 
     24 N           0.7471  -21.9894  -44.3748 N.am      10 UNK        -0.5000 
     25 C           0.7454  -22.8915  -43.3801 C.2       9 UNK         0.5000 
     26 O           0.3009  -24.0324  -43.5012 O.2       9 UNK        -0.5000 
     27 CA          1.2865  -22.4456  -42.0081 C.3       9 UNK         0.1400 
     28 CB          2.7365  -22.9034  -41.8022 C.3       9 UNK        -0.1800 
     29 N           1.1950  -21.0003  -41.8047 N.am      9 UNK        -0.5000 
     30 C           0.0484  -20.3565  -41.5444 C.2       8 UNK         0.5000 
     31 O          -1.0391  -20.9224  -41.4295 O.2       8 UNK        -0.5000 
     32 CA          0.1169  -18.8193  -41.4579 C.3       8 UNK         0.1400 
     33 CB          0.4701  -18.3746  -40.0313 C.3       8 UNK        -0.1800 
     34 N           1.0675  -18.2241  -42.4008 N.am      8 UNK        -0.5000 
     35 C           1.0128  -18.3635  -43.7324 C.2       7 UNK         0.5000 
     36 O           0.1387  -19.0146  -44.3037 O.2       7 UNK        -0.5000 
     37 CA          2.1282  -17.7106  -44.5720 C.3       7 UNK         0.1400 
     38 CB          3.0206  -16.7285  -43.7809 C.3       7 UNK        -0.1800 
     39 N           2.9535  -18.7117  -45.2555 N.am      7 UNK        -0.5000 
     40 C           3.6744  -19.6949  -44.6906 C.2       6 UNK         0.5000 
     41 O           3.6731  -19.9208  -43.4794 O.2       6 UNK        -0.5000 
     42 CA          4.5396  -20.5814  -45.6156 C.3       6 UNK         0.1400 
     43 CB          4.3731  -22.0781  -45.3039 C.3       6 UNK        -0.1800 
     44 N           4.2622  -20.3694  -47.0365 N.am      6 UNK        -0.5000 
     45 C           4.8960  -19.4933  -47.8235 C.2       5 UNK         0.5000 
     46 O           5.8219  -18.7758  -47.4411 O.2       5 UNK        -0.5000 
     47 CA          4.4061  -19.3731  -49.2824 C.3       5 UNK         0.1400 
     48 CB          3.3188  -20.3977  -49.6838 C.3       5 UNK        -0.1800 
     49 N           3.9569  -18.0103  -49.5773 N.am      5 UNK        -0.5000 
     50 C           2.9963  -17.3266  -48.9396 C.2       4 UNK         0.5000 
     51 O           2.3136  -17.7871  -48.0197 O.2       4 UNK        -0.5000 
     52 CA          2.7563  -15.8933  -49.4460 C.3       4 UNK         0.1400 
     53 CB          1.9162  -15.9049  -50.7299 C.3       4 UNK        -0.1800 
     54 N           2.0765  -15.0566  -48.4624 N.am      4 UNK        -0.5000 
     55 C           2.6217  -14.5618  -47.3466 C.2       3 UNK         0.5000 
     56 O           3.7874  -14.7697  -47.0058 O.2       3 UNK        -0.5000 
     57 CA          1.7155  -13.6254  -46.5168 C.3       3 UNK         0.1400 
     58 CB          2.4042  -13.1003  -45.2441 C.3       3 UNK        -0.1800 
     59 N           1.2775  -12.4765  -47.3143 N.am      3 UNK        -0.5000 
     60 C           0.2970  -12.4912  -48.2247 C.2       2 UNK         0.5000 
     61 O          -0.3959  -13.4838  -48.4664 O.2       2 UNK        -0.5000 
     62 CA          0.1179  -11.2069  -49.0495 C.3       2 UNK         0.1400 
     63 CB          1.0362  -11.2382  -50.2816 C.3       2 UNK        -0.1800 
     64 N          -1.2638  -11.0883  -49.5001 N.am      2 UNK        -0.5000 
     65 C          -2.2514  -10.5437  -48.7847 C.2       1 UNK         0.5000 
     66 O          -2.0800   -9.9635  -47.7092 O.2       1 UNK        -0.5000 
     67 C          -3.8989  -21.9776  -43.6712 C.2       11 UNK         0.5000 
     68 O          -5.0027  -22.4084  -44.0079 O.2       11 UNK        -0.5000 
     69 N          -3.1429  -22.5392  -42.7164 N.am      12 UNK        -0.5000 
     70 CA         -3.4919  -23.7574  -41.9771 C.3       12 UNK         0.1400 
     71 CB         -2.4633  -23.9739  -40.8573 C.3       12 UNK        -0.1800 
     72 C          -3.5974  -25.0207  -42.8600 C.2       12 UNK         0.5000 
     73 O          -4.2903  -25.9653  -42.4817 O.2       12 UNK        -0.5000 
     74 N          -2.9359  -25.0052  -44.0239 N.am      13 UNK        -0.5000 
     75 CA         -2.9602  -26.0502  -45.0461 C.3       13 UNK         0.1400 
     76 CB         -1.5211  -26.2825  -45.5410 C.3       13 UNK        -0.1800 
     77 C          -3.9162  -25.6968  -46.2062 C.2       13 UNK         0.5000 
     78 O          -3.7332  -26.2047  -47.3130 O.2       13 UNK        -0.5000 
     79 N          -4.9064  -24.8264  -45.9503 N.am      14 UNK        -0.5000 
     80 CA         -5.9336  -24.3530  -46.8862 C.3       14 UNK         0.1400 
     81 CB         -6.8729  -25.5057  -47.2998 C.3       14 UNK        -0.1800 
     82 C          -5.3268  -23.6070  -48.0911 C.2       14 UNK         0.5000 
     83 O          -5.6014  -23.9479  -49.2429 O.2       14 UNK        -0.5000 
     84 N          -4.4699  -22.6231  -47.7853 N.am      15 UNK        -0.5000 
     85 CA         -3.6703  -21.8221  -48.7188 C.3       15 UNK         0.1400 
     86 CB         -4.5711  -20.9374  -49.6017 C.3       15 UNK        -0.1800 
     87 C          -2.6968  -22.6974  -49.5311 C.2       15 UNK         0.5000 
     88 O          -2.5999  -22.5504  -50.7510 O.2       15 UNK        -0.5000 
     89 N          -2.0209  -23.6165  -48.8256 N.am      16 UNK        -0.5000 
     90 CA         -1.1138  -24.6467  -49.3431 C.3       16 UNK         0.1400 
     91 CB          0.1953  -24.0047  -49.8486 C.3       16 UNK        -0.1800 
     92 C          -1.7963  -25.5428  -50.3990 C.2       16 UNK         0.5000 
     93 O          -1.2466  -25.7526  -51.4801 O.2       16 UNK        -0.5000 
     94 N          -3.0075  -26.0146  -50.0681 N.am      17 UNK        -0.5000 
     95 CA         -3.9496  -26.7308  -50.9340 C.3       17 UNK         0.1400 
     96 CB         -3.4113  -28.1317  -51.2923 C.3       17 UNK        -0.1800 
     97 C          -4.3595  -25.8961  -52.1679 C.2       17 UNK         0.5000 
     98 O          -4.3514  -26.4018  -53.2920 O.2       17 UNK        -0.5000 
     99 N          -4.7038  -24.6241  -51.9163 N.am      18 UNK        -0.5000 
    100 CA        -5.0912  -23.5881  -52.8784 C.3       18 UNK         0.1400 
    101 CB        -6.4851  -23.8964  -53.4628 C.3       18 UNK        -0.1800 
    102 C         -4.0207  -23.3277  -53.9611 C.2       18 UNK         0.5000 
    103 O         -4.3465  -23.2656  -55.1489 O.2       18 UNK        -0.5000 
    104 N         -2.7596  -23.1894  -53.5326 N.am      19 UNK        -0.5000 
    105 CA        -1.5998  -23.0202  -54.4116 C.3       19 UNK         0.1400 
    106 CB        -0.9957  -24.3989  -54.7345 C.3       19 UNK        -0.1800 
    107 C         -0.5404  -22.0480  -53.8574 C.2       19 UNK         0.5000 
    108 O          0.5117  -21.9046  -54.4822 O.2       19 UNK        -0.5000 
    109 N         -0.8093  -21.3851  -52.7209 N.am      20 UNK        -0.5000 
    110 CA         0.1113  -20.4373  -52.0795 C.3       20 UNK         0.1400 
    111 CB        -0.4072  -20.0762  -50.6785 C.3       20 UNK        -0.1800 
    112 C          0.3898  -19.1569  -52.8937 C.2       20 UNK         0.5000 
    113 O          1.4538  -18.5665  -52.7139 O.2       20 UNK        -0.5000 
    114 N         -0.5520  -18.7674  -53.7696 N.am      21 UNK        -0.5000 
    115 CA        -0.5176  -17.5859  -54.6433 C.3       21 UNK         0.1400 
    116 CB         0.6162  -17.6993  -55.6844 C.3       21 UNK        -0.1800 
    117 C         -0.4716  -16.2745  -53.8313 C.2       21 UNK         0.5000 
    118 O          0.4905  -15.5101  -53.9164 O.2       21 UNK        -0.5000 
    119 N         -1.5240  -16.0685  -53.0319 N.am      22 UNK        -0.5000 
    120 CA        -1.6694  -15.0016  -52.0245 C.3       22 UNK         0.1400 
    121 C         -1.7910  -13.5442  -52.5668 C.2       22 UNK         0.5000 
    122 N         -1.8033  -13.3081  -53.8715 N.am      22 UNK        -0.7600 
    123 O         -1.8936  -12.6050  -51.7826 O.2       22 UNK        -0.5000 
    124 C124       -2.8277  -15.2986  -51.0335 C.3       23 UNK        -0.0398 
    125 S125       -2.9652  -17.0476  -50.5211 S.3       23 UNK        -0.2404 
    126 C126       -4.7466  -17.1473  -50.1639 C.3       23 UNK        -0.0205 
    127 H127       -2.3434   -8.0120  -50.2308 H         1 UNK         0.0600 
    128 H128       -3.5125   -6.9631  -51.0244 H         1 UNK         0.0600 
    129 H129       -3.4427   -8.6632  -51.4614 H         1 UNK         0.0600 
    130 H130       -5.1718   -9.6832  -48.3191 H         1 UNK         0.3000 
    131 H131       -3.5642  -10.7209  -50.4661 H         1 UNK         0.0600 
    132 H132       -5.2055  -12.1803  -49.5900 H         1 UNK         0.0800 
    133 H133       -3.6695  -12.8520  -49.1332 H         1 UNK         0.0800 
    134 H134       -6.8654  -13.1523  -46.3910 H         1 UNK         0.0800 
    135 H135       -6.9205  -13.0025  -48.1250 H         1 UNK         0.0800 
    136 H136       -5.6424  -14.6354  -49.5676 H         1 UNK         0.1150 
    137 H137       -4.5578  -18.3571  -47.7417 H         1 UNK         0.1150 
    138 H138       -5.8045  -15.0618  -45.3025 H         1 UNK         0.1150 
    139 H139       -5.5229  -17.2326  -44.2997 H         1 UNK         0.0800 
    140 H140       -5.5454  -18.6297  -45.3495 H         1 UNK         0.0800 
    141 H141       -4.4923  -19.4195  -43.2150 H         1 UNK         0.0800 
    142 H142       -2.7949  -19.3872  -42.8350 H         1 UNK         0.0800 
    143 H143       -3.8409  -20.7158  -45.3774 H         1 UNK         0.0600 
    144 H144       -1.2106  -20.3276  -44.4668 H         1 UNK         0.3000 
    145 H145        0.2801  -23.2371  -45.9812 H         1 UNK         0.0600 
    146 H146        1.7027  -21.5068  -46.9383 H         1 UNK         0.0600 
    147 H147        0.1230  -21.4239  -47.6895 H         1 UNK         0.0600 
    148 H148        0.5741  -20.2308  -46.4880 H         1 UNK         0.0600 
    149 H149        1.0568  -21.0474  -44.1775 H         1 UNK         0.3000 
    150 H150        0.6775  -22.9380  -41.2472 H         1 UNK         0.0600 
    151 H151        2.8406  -23.9744  -41.9810 H         1 UNK         0.0600 
    152 H152        3.0664  -22.7108  -40.7813 H         1 UNK         0.0600 
    153 H153        3.4199  -22.3885  -42.4736 H         1 UNK         0.0600 
    154 H154        2.0422  -20.4637  -41.9479 H         1 UNK         0.3000 
    155 H155       -0.8737  -18.4302  -41.7001 H         1 UNK         0.0600 
    156 H156       -0.2348  -18.7871  -39.3082 H         1 UNK         0.0600 
    157 H157        0.4336  -17.2892  -39.9357 H         1 UNK         0.0600 
    158 H158        1.4686  -18.7046  -39.7419 H         1 UNK         0.0600 
    159 H159        1.8334  -17.7001  -42.0032 H         1 UNK         0.3000 
    160 H160        1.6235  -17.1410  -45.3537 H         1 UNK         0.0600 
    161 H161        3.5993  -17.2264  -43.0023 H         1 UNK         0.0600 
    162 H162        2.4242  -15.9488  -43.3059 H         1 UNK         0.0600 
    163 H163        3.7283  -16.2321  -44.4452 H         1 UNK         0.0600 
    164 H164        2.9639  -18.6227  -46.2665 H         1 UNK         0.3000 
    165 H165        5.5802  -20.3218  -45.4109 H         1 UNK         0.0600 
    166 H166        4.9405  -22.6920  -46.0036 H         1 UNK         0.0600 
    167 H167        4.7485  -22.3101  -44.3079 H         1 UNK         0.0600 
    168 H168        3.3319  -22.3945  -45.3512 H         1 UNK         0.0600 
    169 H169        3.5017  -20.9017  -47.4313 H         1 UNK         0.3000 
    170 H170        5.2786  -19.5569  -49.9109 H         1 UNK         0.0600 
    171 H171        2.3950  -20.2684  -49.1193 H         1 UNK         0.0600 
    172 H172        3.0712  -20.2949  -50.7400 H         1 UNK         0.0600 
    173 H173        3.6633  -21.4221  -49.5374 H         1 UNK         0.0600 
    174 H174        4.4693  -17.5404  -50.3101 H         1 UNK         0.3000 
    175 H175        3.7234  -15.4364  -49.6662 H         1 UNK         0.0600 
    176 H176        0.9721  -16.4327  -50.5876 H         1 UNK         0.0600 
    177 H177        1.6929  -14.8935  -51.0704 H         1 UNK         0.0600 
    178 H178        2.4498  -16.4023  -51.5400 H         1 UNK         0.0600 
    179 H179        1.1069  -14.8263  -48.6508 H         1 UNK         0.3000 
    180 H180        0.8416  -14.2042  -46.2098 H         1 UNK         0.0600 
    181 H181        3.2809  -12.4957  -45.4797 H         1 UNK         0.0600 
    182 H182        2.7345  -13.9204  -44.6077 H         1 UNK         0.0600 
    183 H183        1.7236  -12.4875  -44.6527 H         1 UNK         0.0600 
    184 H184        1.8267  -11.6355  -47.2089 H         1 UNK         0.3000 
    185 H185        0.3827  -10.3433  -48.4356 H         1 UNK         0.0600 
    186 H186        0.8250  -12.0975  -50.9200 H         1 UNK         0.0600 
    187 H187        0.9175  -10.3375  -50.8842 H         1 UNK         0.0600 
    188 H188        2.0850  -11.2977  -49.9884 H         1 UNK         0.0600 
    189 H189       -1.4927  -11.6011  -50.3513 H         1 UNK         0.3000 
    190 H190       -2.2711  -22.0878  -42.4557 H         1 UNK         0.3000 
    191 H191       -4.4693  -23.5978  -41.5174 H         1 UNK         0.0600 
    192 H192       -1.4648  -24.1448  -41.2599 H         1 UNK         0.0600 
    193 H193       -2.4148  -23.1121  -40.1914 H         1 UNK         0.0600 
    194 H194       -2.7241  -24.8406  -40.2486 H         1 UNK         0.0600 
    195 H195       -2.4163  -24.1731  -44.2712 H         1 UNK         0.3000 
    196 H196       -3.3200  -26.9860  -44.6147 H         1 UNK         0.0600 
    197 H197       -0.8599  -26.5427  -44.7142 H         1 UNK         0.0600 
    198 H198       -1.1127  -25.3949  -46.0234 H         1 UNK         0.0600 
    199 H199       -1.4754  -27.1010  -46.2603 H         1 UNK         0.0600 
    200 H200       -4.9386  -24.4086  -45.0288 H         1 UNK         0.3000 
    201 H201       -6.5322  -23.6210  -46.3420 H         1 UNK         0.0600 
    202 H202       -7.6993  -25.1345  -47.9070 H         1 UNK         0.0600 
    203 H203       -7.3056  -25.9936  -46.4266 H         1 UNK         0.0600 
    204 H204       -6.3549  -26.2652  -47.8861 H         1 UNK         0.0600 
    205 H205       -4.2283  -22.5115  -46.8097 H         1 UNK         0.3000 
    206 H206       -3.0521  -21.1575  -48.1138 H         1 UNK         0.0600 
    207 H207       -5.2209  -20.3105  -48.9922 H         1 UNK         0.0600 
    208 H208       -5.2063  -21.5272  -50.2609 H         1 UNK         0.0600 
    209 H209       -3.9696  -20.2801  -50.2301 H         1 UNK         0.0600 
    210 H210       -2.1816  -23.6318  -47.8227 H         1 UNK         0.3000 
    211 H211       -0.8641  -25.2955  -48.5029 H         1 UNK         0.0600 
    212 H212        0.6638  -23.3984  -49.0742 H         1 UNK         0.0600 
    213 H213        0.9164  -24.7689  -50.1405 H         1 UNK         0.0600 
    214 H214        0.0262  -23.3688  -50.7176 H         1 UNK         0.0600 
    215 H215       -3.3450  -25.8361  -49.1248 H         1 UNK         0.3000 
    216 H216       -4.8569  -26.8682  -50.3438 H         1 UNK         0.0600 
    217 H217       -4.1617  -28.7107  -51.8316 H         1 UNK         0.0600 
    218 H218       -2.5245  -28.0780  -51.9243 H         1 UNK         0.0600 
    219 H219       -3.1509  -28.6939  -50.3955 H         1 UNK         0.0600 
    220 H220       -4.7233  -24.3300  -50.9435 H         1 UNK         0.3000 
    221 H221       -5.1734  -22.6613  -52.3111 H         1 UNK         0.0600 
    222 H222       -6.4779  -24.8007  -54.0721 H         1 UNK         0.0600 
    223 H223       -7.2216  -24.0316  -52.6706 H         1 UNK         0.0600 
    224 H224       -6.8351  -23.0784  -54.0935 H         1 UNK         0.0600 
    225 H225       -2.5800  -23.2365  -52.5325 H         1 UNK         0.3000 
    226 H226       -1.9276  -22.5720  -55.3516 H         1 UNK         0.0600 
    227 H227       -1.7470  -25.0769  -55.1398 H         1 UNK         0.0600 
    228 H228       -0.2003  -24.3169  -55.4761 H         1 UNK         0.0600 
    229 H229       -0.5682  -24.8647  -53.8472 H         1 UNK         0.0600 
    230 H230       -1.6633  -21.5937  -52.2152 H         1 UNK         0.3000 
    231 H231        1.0690  -20.9467  -51.9572 H         1 UNK         0.0600 
    232 H232        0.2098  -19.3060  -50.2124 H         1 UNK         0.0600 
    233 H233       -0.3844  -20.9425  -50.0200 H         1 UNK         0.0600 
    234 H234       -1.4304  -19.7021  -50.7119 H         1 UNK         0.0600 
    235 H235       -1.3878  -19.3312  -53.8254 H         1 UNK         0.3000 
    236 H236       -1.4600  -17.5791  -55.1930 H         1 UNK         0.0600 
    237 H237        0.5342  -18.6241  -56.2555 H         1 UNK         0.0600 
    238 H238        0.5743  -16.8729  -56.3947 H         1 UNK         0.0600 
    239 H239        1.6030  -17.6792  -55.2212 H         1 UNK         0.0600 
    240 H240       -2.2560  -16.7635  -53.0179 H         1 UNK         0.3000 
    241 H241       -0.7482  -15.0081  -51.4422 H         1 UNK         0.0600 
    242 H242       -1.8861  -12.3601  -54.2024 H         1 UNK         0.3800 
    243 H243       -1.6927  -14.0628  -54.5288 H         1 UNK         0.3800 
    244 H244       -2.7024  -14.7013  -50.1296 H         1 UNK         0.0800 
    245 H245       -3.7779  -14.9925  -51.4743 H         1 UNK         0.0800 
    246 H246       -5.0603  -18.1895  -50.1898 H         1 UNK         0.0800 
    247 H247       -5.3210  -16.6488  -50.9460 H         1 UNK         0.0800 
@<TRIPOS>BOND
     1    1    2 1    
     2    1  127 1    
     3    1  128 1    
     4    1  129 1    
     5    2    3 2    
     6    2    4 am   BACKBONE|DICT|INTERRES
     7    4    5 1    
     8    4  130 1    
     9    5    6 1    
    10    5   65 1    
    11    5  131 1    
    12    6    7 1    
    13    6  132 1    
    14    6  133 1    
    15    7    8 1    
    16    8    9 1    
    17    8  134 1    
    18    8  135 1    
    19    9   10 ar   
    20    9   14 ar   
    21   10   11 ar   
    22   10  136 1    
    23   11   12 ar   
    24   11  126 1    
    25   12   13 ar   
    26   12  137 1    
    27   13   14 ar   
    28   13   15 1    
    29   14  138 1    
    30   15   16 1    
    31   15  139 1    
    32   15  140 1    
    33   16   17 1    
    34   17   18 1    
    35   17  141 1    
    36   17  142 1    
    37   18   19 1    
    38   18   67 1    
    39   18  143 1    
    40   19   20 am   BACKBONE|DICT|INTERRES
    41   19  144 1    
    42   20   21 2    
    43   20   22 1    
    44   22   23 1    
    45   22   24 1    
    46   22  145 1    
    47   23  146 1    
    48   23  147 1    
    49   23  148 1    
    50   24   25 am   BACKBONE|DICT|INTERRES
    51   24  149 1    
    52   25   26 2    
    53   25   27 1    
    54   27   28 1    
    55   27   29 1    
    56   27  150 1    
    57   28  151 1    
    58   28  152 1    
    59   28  153 1    
    60   29   30 am   BACKBONE|DICT|INTERRES
    61   29  154 1    
    62   30   31 2    
    63   30   32 1    
    64   32   33 1    
    65   32   34 1    
    66   32  155 1    
    67   33  156 1    
    68   33  157 1    
    69   33  158 1    
    70   34   35 am   BACKBONE|DICT|INTERRES
    71   34  159 1    
    72   35   36 2    
    73   35   37 1    
    74   37   38 1    
    75   37   39 1    
    76   37  160 1    
    77   38  161 1    
    78   38  162 1    
    79   38  163 1    
    80   39   40 am   BACKBONE|DICT|INTERRES
    81   39  164 1    
    82   40   41 2    
    83   40   42 1    
    84   42   43 1    
    85   42   44 1    
    86   42  165 1    
    87   43  166 1    
    88   43  167 1    
    89   43  168 1    
    90   44   45 am   BACKBONE|DICT|INTERRES
    91   44  169 1    
    92   45   46 2    
    93   45   47 1    
    94   47   48 1    
    95   47   49 1    
    96   47  170 1    
    97   48  171 1    
    98   48  172 1    
    99   48  173 1    
   100   49   50 am   BACKBONE|DICT|INTERRES
   101   49  174 1    
   102   50   51 2    
   103   50   52 1    
   104   52   53 1    
   105   52   54 1    
   106   52  175 1    
   107   53  176 1    
   108   53  177 1    
   109   53  178 1    
   110   54   55 am   BACKBONE|DICT|INTERRES
   111   54  179 1    
   112   55   56 2    
   113   55   57 1    
   114   57   58 1    
   115   57   59 1    
   116   57  180 1    
   117   58  181 1    
   118   58  182 1    
   119   58  183 1    
   120   59   60 am   BACKBONE|DICT|INTERRES
   121   59  184 1    
   122   60   61 2    
   123   60   62 1    
   124   62   63 1    
   125   62   64 1    
   126   62  185 1    
   127   63  186 1    
   128   63  187 1    
   129   63  188 1    
   130   64   65 am   BACKBONE|DICT|INTERRES
   131   64  189 1    
   132   65   66 2    
   133   67   68 2    
   134   67   69 am   BACKBONE|DICT|INTERRES
   135   69   70 1    
   136   69  190 1    
   137   70   71 1    
   138   70   72 1    
   139   70  191 1    
   140   71  192 1    
   141   71  193 1    
   142   71  194 1    
   143   72   73 2    
   144   72   74 am   BACKBONE|DICT|INTERRES
   145   74   75 1    
   146   74  195 1    
   147   75   76 1    
   148   75   77 1    
   149   75  196 1    
   150   76  197 1    
   151   76  198 1    
   152   76  199 1    
   153   77   78 2    
   154   77   79 am   BACKBONE|DICT|INTERRES
   155   79   80 1    
   156   79  200 1    
   157   80   81 1    
   158   80   82 1    
   159   80  201 1    
   160   81  202 1    
   161   81  203 1    
   162   81  204 1    
   163   82   83 2    
   164   82   84 am   BACKBONE|DICT|INTERRES
   165   84   85 1    
   166   84  205 1    
   167   85   86 1    
   168   85   87 1    
   169   85  206 1    
   170   86  207 1    
   171   86  208 1    
   172   86  209 1    
   173   87   88 2    
   174   87   89 am   BACKBONE|DICT|INTERRES
   175   89   90 1    
   176   89  210 1    
   177   90   91 1    
   178   90   92 1    
   179   90  211 1    
   180   91  212 1    
   181   91  213 1    
   182   91  214 1    
   183   92   93 2    
   184   92   94 am   BACKBONE|DICT|INTERRES
   185   94   95 1    
   186   94  215 1    
   187   95   96 1    
   188   95   97 1    
   189   95  216 1    
   190   96  217 1    
   191   96  218 1    
   192   96  219 1    
   193   97   98 2    
   194   97   99 am   BACKBONE|DICT|INTERRES
   195   99  100 1    
   196   99  220 1    
   197  100  101 1    
   198  100  102 1    
   199  100  221 1    
   200  101  222 1    
   201  101  223 1    
   202  101  224 1    
   203  102  103 2    
   204  102  104 am   BACKBONE|DICT|INTERRES
   205  104  105 1    
   206  104  225 1    
   207  105  106 1    
   208  105  107 1    
   209  105  226 1    
   210  106  227 1    
   211  106  228 1    
   212  106  229 1    
   213  107  108 2    
   214  107  109 am   BACKBONE|DICT|INTERRES
   215  109  110 1    
   216  109  230 1    
   217  110  111 1    
   218  110  112 1    
   219  110  231 1    
   220  111  232 1    
   221  111  233 1    
   222  111  234 1    
   223  112  113 2    
   224  112  114 am   BACKBONE|DICT|INTERRES
   225  114  115 1    
   226  114  235 1    
   227  115  116 1    
   228  115  117 1    
   229  115  236 1    
   230  116  237 1    
   231  116  238 1    
   232  116  239 1    
   233  117  118 2    
   234  117  119 am   BACKBONE|DICT|INTERRES
   235  119  120 1    
   236  119  240 1    
   237  120  121 1    
   238  120  124 1    
   239  120  241 1    
   240  121  122 am   BACKBONE|DICT|INTERRES
   241  121  123 2    
   242  122  242 1    
   243  122  243 1    
   244  124  125 1    
   245  124  244 1    
   246  124  245 1    
   247  125  126 1    
   248  126  246 1    
   249  126  247 1    
@<TRIPOS>SUBSTRUCTURE
     1 UNK         1 GROUP             0       ****    0 ROOT    
