@<TRIPOS>MOLECULE
3R540
247   249    1
SMALL
USER_CHARGES


@<TRIPOS>ATOM
      1 CA         -0.8792  -14.2944  -52.9688 C.3       0 UNK        -0.1800 
      2 C          -0.3711  -13.5555  -51.7405 C.2       0 UNK         0.5000 
      3 O          -0.5154  -12.3358  -51.6574 O.2       0 UNK        -0.5000 
      4 N           0.2138  -14.2820  -50.7794 N.am      1 UNK        -0.5000 
      5 CA          0.8748  -13.7512  -49.5752 C.3       1 UNK         0.1400 
      6 C6          1.9540  -14.7184  -49.0152 C.3       23 UNK        -0.0398 
      7 S7          3.1271  -15.3020  -50.2907 S.3       23 UNK        -0.2404 
      8 C8          3.9286  -16.7122  -49.4480 C.3       23 UNK        -0.0205 
      9 C9          3.1584  -18.0368  -49.4437 C.ar      23 UNK        -0.0193 
     10 C10         1.7840  -18.1264  -49.7059 C.ar      23 UNK        -0.1150 
     11 C11         1.1164  -19.3507  -49.6265 C.ar      23 UNK        -0.0193 
     12 C12         1.8344  -20.5031  -49.3019 C.ar      23 UNK        -0.1150 
     13 C13         3.2093  -20.4416  -49.0696 C.ar      23 UNK        -0.0193 
     14 C14         3.8614  -19.2072  -49.1354 C.ar      23 UNK        -0.1150 
     15 C15         3.9805  -21.7131  -48.7444 C.3       23 UNK        -0.0205 
     16 S16         4.5368  -21.7908  -47.0099 S.3       23 UNK        -0.2404 
     17 C17         2.9994  -21.4977  -46.0715 C.3       23 UNK        -0.0398 
     18 CA          2.3064  -22.7794  -45.5524 C.3       11 UNK         0.1400 
     19 N           1.4509  -22.4546  -44.4101 N.am      11 UNK        -0.5000 
     20 C           0.9062  -23.3311  -43.5581 C.2       10 UNK         0.5000 
     21 O           1.0769  -24.5488  -43.6206 O.2       10 UNK        -0.5000 
     22 CA          0.0118  -22.7366  -42.4540 C.3       10 UNK         0.1400 
     23 CB          0.8536  -22.2751  -41.2543 C.3       10 UNK        -0.1800 
     24 N          -0.7871  -21.6133  -42.9469 N.am      10 UNK        -0.5000 
     25 C          -1.8698  -21.7523  -43.7238 C.2       9 UNK         0.5000 
     26 O          -2.3472  -22.8421  -44.0398 O.2       9 UNK        -0.5000 
     27 CA         -2.5224  -20.4625  -44.2544 C.3       9 UNK         0.1400 
     28 CB         -3.5517  -19.9256  -43.2491 C.3       9 UNK        -0.1800 
     29 N          -1.5661  -19.4038  -44.5856 N.am      9 UNK        -0.5000 
     30 C          -0.6113  -19.4951  -45.5222 C.2       8 UNK         0.5000 
     31 O          -0.4419  -20.4852  -46.2266 O.2       8 UNK        -0.5000 
     32 CA          0.3595  -18.3095  -45.6575 C.3       8 UNK         0.1400 
     33 CB         -0.2601  -17.1910  -46.5078 C.3       8 UNK        -0.1800 
     34 N           0.7760  -17.7749  -44.3611 N.am      8 UNK        -0.5000 
     35 C           1.4030  -18.4758  -43.4046 C.2       7 UNK         0.5000 
     36 O           1.7125  -19.6621  -43.5143 O.2       7 UNK        -0.5000 
     37 CA          1.6816  -17.7403  -42.0855 C.3       7 UNK         0.1400 
     38 CB          2.9334  -16.8574  -42.2010 C.3       7 UNK        -0.1800 
     39 N           0.5338  -16.9256  -41.6910 N.am      7 UNK        -0.5000 
     40 C          -0.5767  -17.4176  -41.1246 C.2       6 UNK         0.5000 
     41 O          -0.7173  -18.5999  -40.8098 O.2       6 UNK        -0.5000 
     42 CA         -1.7351  -16.4274  -40.8950 C.3       6 UNK         0.1400 
     43 CB         -1.5710  -15.7065  -39.5487 C.3       6 UNK        -0.1800 
     44 N          -1.8640  -15.4330  -41.9631 N.am      6 UNK        -0.5000 
     45 C          -2.2142  -15.7218  -43.2239 C.2       5 UNK         0.5000 
     46 O          -2.4776  -16.8578  -43.6143 O.2       5 UNK        -0.5000 
     47 CA         -2.2405  -14.5562  -44.2305 C.3       5 UNK         0.1400 
     48 CB         -3.6124  -13.8664  -44.2031 C.3       5 UNK        -0.1800 
     49 N          -1.1829  -13.5547  -44.0536 N.am      5 UNK        -0.5000 
     50 C           0.1345  -13.8041  -43.9832 C.2       4 UNK         0.5000 
     51 O           0.6130  -14.9384  -43.9425 O.2       4 UNK        -0.5000 
     52 CA          1.0600  -12.5762  -43.9831 C.3       4 UNK         0.1400 
     53 CB          2.5435  -12.9416  -44.1741 C.3       4 UNK        -0.1800 
     54 N           0.6452  -11.6753  -45.0533 N.am      4 UNK        -0.5000 
     55 C           0.4781  -10.3510  -44.9445 C.2       3 UNK         0.5000 
     56 O           0.7094   -9.7170  -43.9144 O.2       3 UNK        -0.5000 
     57 CA         -0.0446   -9.6002  -46.1893 C.3       3 UNK         0.1400 
     58 CB          1.1052   -8.8620  -46.8920 C.3       3 UNK        -0.1800 
     59 N          -0.7083  -10.4710  -47.1627 N.am      3 UNK        -0.5000 
     60 C          -1.8645  -11.1174  -46.9577 C.2       2 UNK         0.5000 
     61 O          -2.5577  -10.9626  -45.9526 O.2       2 UNK        -0.5000 
     62 CA         -2.2970  -12.1406  -48.0283 C.3       2 UNK         0.1400 
     63 CB         -3.4064  -11.5604  -48.9175 C.3       2 UNK        -0.1800 
     64 N          -1.2043  -12.6164  -48.8838 N.am      2 UNK        -0.5000 
     65 C          -0.1346  -13.3165  -48.4830 C.2       1 UNK         0.5000 
     66 O           0.0677  -13.6034  -47.3028 O.2       1 UNK        -0.5000 
     67 C           1.5376  -23.5181  -46.6739 C.2       11 UNK         0.5000 
     68 O           2.0973  -24.4136  -47.3083 O.2       11 UNK        -0.5000 
     69 N           0.2670  -23.1476  -46.8865 N.am      12 UNK        -0.5000 
     70 CA         -0.6645  -23.6470  -47.9038 C.3       12 UNK         0.1400 
     71 CB         -1.8653  -22.6869  -47.9639 C.3       12 UNK        -0.1800 
     72 C          -1.1286  -25.1092  -47.7167 C.2       12 UNK         0.5000 
     73 O          -2.3164  -25.3969  -47.8710 O.2       12 UNK        -0.5000 
     74 N          -0.1989  -26.0248  -47.4252 N.am      13 UNK        -0.5000 
     75 CA         -0.4600  -27.4528  -47.2293 C.3       13 UNK         0.1400 
     76 CB          0.8292  -28.1405  -46.7560 C.3       13 UNK        -0.1800 
     77 C          -1.0230  -28.1490  -48.4848 C.2       13 UNK         0.5000 
     78 O          -1.8843  -29.0205  -48.3607 O.2       13 UNK        -0.5000 
     79 N          -0.5390  -27.7387  -49.6652 N.am      14 UNK        -0.5000 
     80 CA         -0.9991  -28.2372  -50.9613 C.3       14 UNK         0.1400 
     81 CB          0.1664  -28.1856  -51.9618 C.3       14 UNK        -0.1800 
     82 C          -2.2032  -27.4437  -51.5011 C.2       14 UNK         0.5000 
     83 O          -3.0943  -28.0385  -52.1084 O.2       14 UNK        -0.5000 
     84 N          -2.1986  -26.1179  -51.2973 N.am      15 UNK        -0.5000 
     85 CA         -3.2028  -25.1993  -51.8417 C.3       15 UNK         0.1400 
     86 CB         -2.6235  -23.7772  -51.8858 C.3       15 UNK        -0.1800 
     87 C          -4.5386  -25.2217  -51.0770 C.2       15 UNK         0.5000 
     88 O          -5.5816  -24.9962  -51.6918 O.2       15 UNK        -0.5000 
     89 N          -4.4847  -25.4793  -49.7616 N.am      16 UNK        -0.5000 
     90 CA         -5.5805  -25.6012  -48.7902 C.3       16 UNK         0.1400 
     91 CB         -6.5272  -26.7600  -49.1559 C.3       16 UNK        -0.1800 
     92 C          -6.3647  -24.3003  -48.5229 C.2       16 UNK         0.5000 
     93 O          -6.5515  -23.9363  -47.3616 O.2       16 UNK        -0.5000 
     94 N          -6.8110  -23.6238  -49.5877 N.am      17 UNK        -0.5000 
     95 CA         -7.5635  -22.3675  -49.5379 C.3       17 UNK         0.1400 
     96 CB         -8.2690  -22.1573  -50.8857 C.3       17 UNK        -0.1800 
     97 C          -6.6901  -21.1492  -49.1773 C.2       17 UNK         0.5000 
     98 O          -7.2131  -20.1751  -48.6341 O.2       17 UNK        -0.5000 
     99 N          -5.3832  -21.2486  -49.4635 N.am      18 UNK        -0.5000 
    100 CA        -4.3258  -20.2705  -49.1908 C.3       18 UNK         0.1400 
    101 CB        -4.1794  -20.0481  -47.6707 C.3       18 UNK        -0.1800 
    102 C         -4.4728  -18.9454  -49.9689 C.2       18 UNK         0.5000 
    103 O         -5.3086  -18.8333  -50.8697 O.2       18 UNK        -0.5000 
    104 N         -3.6079  -17.9768  -49.6288 N.am      19 UNK        -0.5000 
    105 CA        -3.4644  -16.6570  -50.2499 C.3       19 UNK         0.1400 
    106 CB        -4.6252  -15.7337  -49.8197 C.3       19 UNK        -0.1800 
    107 C         -3.2707  -16.7693  -51.7766 C.2       19 UNK         0.5000 
    108 O         -2.2700  -17.3409  -52.2103 O.2       19 UNK        -0.5000 
    109 N         -4.2313  -16.2604  -52.5593 N.am      20 UNK        -0.5000 
    110 CA        -4.2394  -16.2851  -54.0235 C.3       20 UNK         0.1400 
    111 CB        -5.4465  -15.4807  -54.5281 C.3       20 UNK        -0.1800 
    112 C         -4.2361  -17.6979  -54.6411 C.2       20 UNK         0.5000 
    113 O         -3.7546  -17.8554  -55.7643 O.2       20 UNK        -0.5000 
    114 N         -4.7247  -18.7072  -53.9018 N.am      21 UNK        -0.5000 
    115 CA        -4.7160  -20.1138  -54.3203 C.3       21 UNK         0.1400 
    116 CB        -5.5622  -20.9467  -53.3471 C.3       21 UNK        -0.1800 
    117 C         -3.2989  -20.7089  -54.4408 C.2       21 UNK         0.5000 
    118 O         -3.1219  -21.7041  -55.1440 O.2       21 UNK        -0.5000 
    119 N         -2.3199  -20.0846  -53.7742 N.am      22 UNK        -0.5000 
    120 CA        -0.8931  -20.4213  -53.8698 C.3       22 UNK         0.1400 
    121 C         -0.1988  -19.8668  -55.1500 C.2       22 UNK         0.5000 
    122 N         -0.8517  -19.0545  -55.9752 N.am      22 UNK        -0.7600 
    123 O          0.9574  -20.1900  -55.4080 O.2       22 UNK        -0.5000 
    124 C124       -0.1197  -20.0015  -52.5955 C.3       23 UNK        -0.0398 
    125 S125       -0.8505  -20.6936  -51.0733 S.3       23 UNK        -0.2404 
    126 C126       -0.3854  -19.4175  -49.8626 C.3       23 UNK        -0.0205 
    127 H127       -0.6057  -15.3494  -52.9497 H         1 UNK         0.0600 
    128 H128       -1.9644  -14.2176  -53.0272 H         1 UNK         0.0600 
    129 H129       -0.4572  -13.8539  -53.8720 H         1 UNK         0.0600 
    130 H130        0.2987  -15.2788  -50.9109 H         1 UNK         0.3000 
    131 H131        1.3997  -12.8399  -49.8697 H         1 UNK         0.0600 
    132 H132        1.4864  -15.5761  -48.5331 H         1 UNK         0.0800 
    133 H133        2.5336  -14.2211  -48.2353 H         1 UNK         0.0800 
    134 H134        4.1523  -16.4315  -48.4179 H         1 UNK         0.0800 
    135 H135        4.8915  -16.8729  -49.9353 H         1 UNK         0.0800 
    136 H136        1.2146  -17.2486  -49.9633 H         1 UNK         0.1150 
    137 H137        1.3184  -21.4503  -49.2329 H         1 UNK         0.1150 
    138 H138        4.9227  -19.1592  -48.9343 H         1 UNK         0.1150 
    139 H139        3.3786  -22.5954  -48.9660 H         1 UNK         0.0800 
    140 H140        4.8538  -21.7756  -49.3950 H         1 UNK         0.0800 
    141 H141        2.3016  -20.8710  -46.6247 H         1 UNK         0.0800 
    142 H142        3.3072  -20.8877  -45.2217 H         1 UNK         0.0800 
    143 H143        3.0776  -23.4597  -45.1849 H         1 UNK         0.0600 
    144 H144        1.2951  -21.4664  -44.2375 H         1 UNK         0.3000 
    145 H145       -0.6635  -23.5227  -42.1092 H         1 UNK         0.0600 
    146 H146        0.2210  -21.8895  -40.4545 H         1 UNK         0.0600 
    147 H147        1.4310  -23.1037  -40.8424 H         1 UNK         0.0600 
    148 H148        1.5581  -21.4900  -41.5299 H         1 UNK         0.0600 
    149 H149       -0.4490  -20.6832  -42.7410 H         1 UNK         0.3000 
    150 H150       -3.0509  -20.7278  -45.1690 H         1 UNK         0.0600 
    151 H151       -4.2713  -20.6973  -42.9727 H         1 UNK         0.0600 
    152 H152       -4.1157  -19.0938  -43.6713 H         1 UNK         0.0600 
    153 H153       -3.0733  -19.5758  -42.3334 H         1 UNK         0.0600 
    154 H154       -1.6806  -18.5234  -44.0901 H         1 UNK         0.3000 
    155 H155        1.2579  -18.6637  -46.1669 H         1 UNK         0.0600 
    156 H156       -1.2357  -16.8915  -46.1281 H         1 UNK         0.0600 
    157 H157       -0.3987  -17.5163  -47.5384 H         1 UNK         0.0600 
    158 H158        0.3775  -16.3073  -46.5262 H         1 UNK         0.0600 
    159 H159        0.5927  -16.7884  -44.1936 H         1 UNK         0.3000 
    160 H160        1.8675  -18.4896  -41.3128 H         1 UNK         0.0600 
    161 H161        3.1442  -16.3474  -41.2610 H         1 UNK         0.0600 
    162 H162        2.8277  -16.0996  -42.9774 H         1 UNK         0.0600 
    163 H163        3.8093  -17.4581  -42.4490 H         1 UNK         0.0600 
    164 H164        0.5373  -15.9629  -42.0015 H         1 UNK         0.3000 
    165 H165       -2.6607  -17.0063  -40.8608 H         1 UNK         0.0600 
    166 H166       -2.4271  -15.0654  -39.3376 H         1 UNK         0.0600 
    167 H167       -1.4931  -16.4227  -38.7296 H         1 UNK         0.0600 
    168 H168       -0.6736  -15.0869  -39.5297 H         1 UNK         0.0600 
    169 H169       -1.6565  -14.4738  -41.7272 H         1 UNK         0.3000 
    170 H170       -2.1047  -14.9820  -45.2252 H         1 UNK         0.0600 
    171 H171       -4.4193  -14.5933  -44.3070 H         1 UNK         0.0600 
    172 H172       -3.7736  -13.3275  -43.2688 H         1 UNK         0.0600 
    173 H173       -3.7163  -13.1571  -45.0230 H         1 UNK         0.0600 
    174 H174       -1.4777  -12.5892  -44.0989 H         1 UNK         0.3000 
    175 H175        0.9428  -12.0958  -43.0099 H         1 UNK         0.0600 
    176 H176        2.7073  -13.4690  -45.1149 H         1 UNK         0.0600 
    177 H177        3.1713  -12.0506  -44.1754 H         1 UNK         0.0600 
    178 H178        2.8959  -13.5853  -43.3675 H         1 UNK         0.0600 
    179 H179        0.4032  -12.1355  -45.9257 H         1 UNK         0.3000 
    180 H180       -0.7700   -8.8601  -45.8453 H         1 UNK         0.0600 
    181 H181        1.8571   -9.5560  -47.2699 H         1 UNK         0.0600 
    182 H182        1.6062   -8.1764  -46.2073 H         1 UNK         0.0600 
    183 H183        0.7402   -8.2704  -47.7318 H         1 UNK         0.0600 
    184 H184       -0.2121  -10.6488  -48.0232 H         1 UNK         0.3000 
    185 H185       -2.7007  -13.0064  -47.4992 H         1 UNK         0.0600 
    186 H186       -4.2541  -11.2253  -48.3182 H         1 UNK         0.0600 
    187 H187       -3.0518  -10.7051  -49.4941 H         1 UNK         0.0600 
    188 H188       -3.7806  -12.3061  -49.6190 H         1 UNK         0.0600 
    189 H189       -1.2608  -12.3883  -49.8722 H         1 UNK         0.3000 
    190 H190       -0.0760  -22.3534  -46.3530 H         1 UNK         0.3000 
    191 H191       -0.1561  -23.6045  -48.8688 H         1 UNK         0.0600 
    192 H192       -2.3661  -22.6204  -46.9975 H         1 UNK         0.0600 
    193 H193       -2.6104  -22.9999  -48.6942 H         1 UNK         0.0600 
    194 H194       -1.5482  -21.6867  -48.2454 H         1 UNK         0.0600 
    195 H195        0.7615  -25.7044  -47.3289 H         1 UNK         0.3000 
    196 H196       -1.2069  -27.5471  -46.4383 H         1 UNK         0.0600 
    197 H197        0.6633  -29.2041  -46.5795 H         1 UNK         0.0600 
    198 H198        1.1851  -27.7076  -45.8207 H         1 UNK         0.0600 
    199 H199        1.6282  -28.0493  -47.4928 H         1 UNK         0.0600 
    200 H200        0.1832  -27.0338  -49.6699 H         1 UNK         0.3000 
    201 H201       -1.3051  -29.2811  -50.8619 H         1 UNK         0.0600 
    202 H202        1.0026  -28.7977  -51.6231 H         1 UNK         0.0600 
    203 H203        0.5324  -27.1684  -52.1068 H         1 UNK         0.0600 
    204 H204       -0.1395  -28.5665  -52.9371 H         1 UNK         0.0600 
    205 H205       -1.4338  -25.7085  -50.7851 H         1 UNK         0.3000 
    206 H206       -3.4184  -25.4971  -52.8703 H         1 UNK         0.0600 
    207 H207       -1.7604  -23.7238  -52.5496 H         1 UNK         0.0600 
    208 H208       -3.3583  -23.0626  -52.2588 H         1 UNK         0.0600 
    209 H209       -2.3056  -23.4383  -50.9017 H         1 UNK         0.0600 
    210 H210       -3.5664  -25.5897  -49.3403 H         1 UNK         0.3000 
    211 H211       -5.0979  -25.8674  -47.8483 H         1 UNK         0.0600 
    212 H212       -7.0603  -26.5756  -50.0889 H         1 UNK         0.0600 
    213 H213       -7.2766  -26.9094  -48.3777 H         1 UNK         0.0600 
    214 H214       -5.9786  -27.6959  -49.2630 H         1 UNK         0.0600 
    215 H215       -6.5967  -24.0071  -50.5056 H         1 UNK         0.3000 
    216 H216       -8.3306  -22.4564  -48.7657 H         1 UNK         0.0600 
    217 H217       -8.8048  -21.2074  -50.9069 H         1 UNK         0.0600 
    218 H218       -8.9976  -22.9460  -51.0738 H         1 UNK         0.0600 
    219 H219       -7.5599  -22.1560  -51.7126 H         1 UNK         0.0600 
    220 H220       -5.0857  -22.0934  -49.9267 H         1 UNK         0.3000 
    221 H221       -3.4084  -20.7323  -49.5533 H         1 UNK         0.0600 
    222 H222       -4.9648  -19.4017  -47.2771 H         1 UNK         0.0600 
    223 H223       -4.2344  -20.9950  -47.1345 H         1 UNK         0.0600 
    224 H224       -3.2204  -19.5924  -47.4233 H         1 UNK         0.0600 
    225 H225       -2.9572  -18.1717  -48.8838 H         1 UNK         0.3000 
    226 H226       -2.5406  -16.2258  -49.8608 H         1 UNK         0.0600 
    227 H227       -4.6488  -15.6234  -48.7354 H         1 UNK         0.0600 
    228 H228       -4.5112  -14.7328  -50.2380 H         1 UNK         0.0600 
    229 H229       -5.5968  -16.1206  -50.1295 H         1 UNK         0.0600 
    230 H230       -5.0379  -15.8468  -52.1149 H         1 UNK         0.3000 
    231 H231       -3.3308  -15.7863  -54.3662 H         1 UNK         0.0600 
    232 H232       -5.4074  -14.4486  -54.1791 H         1 UNK         0.0600 
    233 H233       -6.3881  -15.9155  -54.1905 H         1 UNK         0.0600 
    234 H234       -5.4700  -15.4523  -55.6184 H         1 UNK         0.0600 
    235 H235       -5.0639  -18.5159  -52.9648 H         1 UNK         0.3000 
    236 H236       -5.1807  -20.1694  -55.3068 H         1 UNK         0.0600 
    237 H237       -5.6828  -21.9679  -53.7109 H         1 UNK         0.0600 
    238 H238       -5.0989  -21.0074  -52.3629 H         1 UNK         0.0600 
    239 H239       -6.5588  -20.5219  -53.2269 H         1 UNK         0.0600 
    240 H240       -2.5396  -19.2626  -53.2248 H         1 UNK         0.3000 
    241 H241       -0.8162  -21.5079  -53.9425 H         1 UNK         0.0600 
    242 H242       -0.3854  -18.7130  -56.8006 H         1 UNK         0.3800 
    243 H243       -1.8086  -18.7793  -55.7934 H         1 UNK         0.3800 
    244 H244        0.9183  -20.3349  -52.6464 H         1 UNK         0.0800 
    245 H245       -0.0879  -18.9136  -52.5181 H         1 UNK         0.0800 
    246 H246       -0.7691  -18.4549  -50.2015 H         1 UNK         0.0800 
    247 H247       -0.8748  -19.6267  -48.9124 H         1 UNK         0.0800 
@<TRIPOS>BOND
     1    1    2 1    
     2    1  127 1    
     3    1  128 1    
     4    1  129 1    
     5    2    3 2    
     6    2    4 am   BACKBONE|DICT|INTERRES
     7    4    5 1    
     8    4  130 1    
     9    5    6 1    
    10    5   65 1    
    11    5  131 1    
    12    6    7 1    
    13    6  132 1    
    14    6  133 1    
    15    7    8 1    
    16    8    9 1    
    17    8  134 1    
    18    8  135 1    
    19    9   10 ar   
    20    9   14 ar   
    21   10   11 ar   
    22   10  136 1    
    23   11   12 ar   
    24   11  126 1    
    25   12   13 ar   
    26   12  137 1    
    27   13   14 ar   
    28   13   15 1    
    29   14  138 1    
    30   15   16 1    
    31   15  139 1    
    32   15  140 1    
    33   16   17 1    
    34   17   18 1    
    35   17  141 1    
    36   17  142 1    
    37   18   19 1    
    38   18   67 1    
    39   18  143 1    
    40   19   20 am   BACKBONE|DICT|INTERRES
    41   19  144 1    
    42   20   21 2    
    43   20   22 1    
    44   22   23 1    
    45   22   24 1    
    46   22  145 1    
    47   23  146 1    
    48   23  147 1    
    49   23  148 1    
    50   24   25 am   BACKBONE|DICT|INTERRES
    51   24  149 1    
    52   25   26 2    
    53   25   27 1    
    54   27   28 1    
    55   27   29 1    
    56   27  150 1    
    57   28  151 1    
    58   28  152 1    
    59   28  153 1    
    60   29   30 am   BACKBONE|DICT|INTERRES
    61   29  154 1    
    62   30   31 2    
    63   30   32 1    
    64   32   33 1    
    65   32   34 1    
    66   32  155 1    
    67   33  156 1    
    68   33  157 1    
    69   33  158 1    
    70   34   35 am   BACKBONE|DICT|INTERRES
    71   34  159 1    
    72   35   36 2    
    73   35   37 1    
    74   37   38 1    
    75   37   39 1    
    76   37  160 1    
    77   38  161 1    
    78   38  162 1    
    79   38  163 1    
    80   39   40 am   BACKBONE|DICT|INTERRES
    81   39  164 1    
    82   40   41 2    
    83   40   42 1    
    84   42   43 1    
    85   42   44 1    
    86   42  165 1    
    87   43  166 1    
    88   43  167 1    
    89   43  168 1    
    90   44   45 am   BACKBONE|DICT|INTERRES
    91   44  169 1    
    92   45   46 2    
    93   45   47 1    
    94   47   48 1    
    95   47   49 1    
    96   47  170 1    
    97   48  171 1    
    98   48  172 1    
    99   48  173 1    
   100   49   50 am   BACKBONE|DICT|INTERRES
   101   49  174 1    
   102   50   51 2    
   103   50   52 1    
   104   52   53 1    
   105   52   54 1    
   106   52  175 1    
   107   53  176 1    
   108   53  177 1    
   109   53  178 1    
   110   54   55 am   BACKBONE|DICT|INTERRES
   111   54  179 1    
   112   55   56 2    
   113   55   57 1    
   114   57   58 1    
   115   57   59 1    
   116   57  180 1    
   117   58  181 1    
   118   58  182 1    
   119   58  183 1    
   120   59   60 am   BACKBONE|DICT|INTERRES
   121   59  184 1    
   122   60   61 2    
   123   60   62 1    
   124   62   63 1    
   125   62   64 1    
   126   62  185 1    
   127   63  186 1    
   128   63  187 1    
   129   63  188 1    
   130   64   65 am   BACKBONE|DICT|INTERRES
   131   64  189 1    
   132   65   66 2    
   133   67   68 2    
   134   67   69 am   BACKBONE|DICT|INTERRES
   135   69   70 1    
   136   69  190 1    
   137   70   71 1    
   138   70   72 1    
   139   70  191 1    
   140   71  192 1    
   141   71  193 1    
   142   71  194 1    
   143   72   73 2    
   144   72   74 am   BACKBONE|DICT|INTERRES
   145   74   75 1    
   146   74  195 1    
   147   75   76 1    
   148   75   77 1    
   149   75  196 1    
   150   76  197 1    
   151   76  198 1    
   152   76  199 1    
   153   77   78 2    
   154   77   79 am   BACKBONE|DICT|INTERRES
   155   79   80 1    
   156   79  200 1    
   157   80   81 1    
   158   80   82 1    
   159   80  201 1    
   160   81  202 1    
   161   81  203 1    
   162   81  204 1    
   163   82   83 2    
   164   82   84 am   BACKBONE|DICT|INTERRES
   165   84   85 1    
   166   84  205 1    
   167   85   86 1    
   168   85   87 1    
   169   85  206 1    
   170   86  207 1    
   171   86  208 1    
   172   86  209 1    
   173   87   88 2    
   174   87   89 am   BACKBONE|DICT|INTERRES
   175   89   90 1    
   176   89  210 1    
   177   90   91 1    
   178   90   92 1    
   179   90  211 1    
   180   91  212 1    
   181   91  213 1    
   182   91  214 1    
   183   92   93 2    
   184   92   94 am   BACKBONE|DICT|INTERRES
   185   94   95 1    
   186   94  215 1    
   187   95   96 1    
   188   95   97 1    
   189   95  216 1    
   190   96  217 1    
   191   96  218 1    
   192   96  219 1    
   193   97   98 2    
   194   97   99 am   BACKBONE|DICT|INTERRES
   195   99  100 1    
   196   99  220 1    
   197  100  101 1    
   198  100  102 1    
   199  100  221 1    
   200  101  222 1    
   201  101  223 1    
   202  101  224 1    
   203  102  103 2    
   204  102  104 am   BACKBONE|DICT|INTERRES
   205  104  105 1    
   206  104  225 1    
   207  105  106 1    
   208  105  107 1    
   209  105  226 1    
   210  106  227 1    
   211  106  228 1    
   212  106  229 1    
   213  107  108 2    
   214  107  109 am   BACKBONE|DICT|INTERRES
   215  109  110 1    
   216  109  230 1    
   217  110  111 1    
   218  110  112 1    
   219  110  231 1    
   220  111  232 1    
   221  111  233 1    
   222  111  234 1    
   223  112  113 2    
   224  112  114 am   BACKBONE|DICT|INTERRES
   225  114  115 1    
   226  114  235 1    
   227  115  116 1    
   228  115  117 1    
   229  115  236 1    
   230  116  237 1    
   231  116  238 1    
   232  116  239 1    
   233  117  118 2    
   234  117  119 am   BACKBONE|DICT|INTERRES
   235  119  120 1    
   236  119  240 1    
   237  120  121 1    
   238  120  124 1    
   239  120  241 1    
   240  121  122 am   BACKBONE|DICT|INTERRES
   241  121  123 2    
   242  122  242 1    
   243  122  243 1    
   244  124  125 1    
   245  124  244 1    
   246  124  245 1    
   247  125  126 1    
   248  126  246 1    
   249  126  247 1    
@<TRIPOS>SUBSTRUCTURE
     1 UNK         1 GROUP             0       ****    0 ROOT    
