@<TRIPOS>MOLECULE
3R540
247   249    1
SMALL
USER_CHARGES


@<TRIPOS>ATOM
      1 CA          4.1534  -11.6594  -48.6662 C.3       0 UNK        -0.1800 
      2 C           2.9767  -12.0543  -47.7852 C.2       0 UNK         0.5000 
      3 O           3.1557  -12.2732  -46.5878 O.2       0 UNK        -0.5000 
      4 N           1.7799  -12.1542  -48.3754 N.am      1 UNK        -0.5000 
      5 CA          0.5270  -12.4878  -47.6922 C.3       1 UNK         0.1400 
      6 C6         -0.6072  -12.8376  -48.6883 C.3       23 UNK        -0.0398 
      7 S7         -0.1641  -14.1806  -49.8447 S.3       23 UNK        -0.2404 
      8 C8         -1.1285  -15.5689  -49.1778 C.3       23 UNK        -0.0205 
      9 C9         -1.0341  -16.7883  -50.0825 C.ar      23 UNK        -0.0193 
     10 C10        -2.0540  -17.0659  -50.9964 C.ar      23 UNK        -0.1150 
     11 C11        -1.9726  -18.1778  -51.8400 C.ar      23 UNK        -0.0193 
     12 C12        -0.8568  -19.0175  -51.7639 C.ar      23 UNK        -0.1150 
     13 C13         0.1786  -18.7425  -50.8635 C.ar      23 UNK        -0.0193 
     14 C14         0.0779  -17.6320  -50.0187 C.ar      23 UNK        -0.1150 
     15 C15         1.4364  -19.6019  -50.8498 C.3       23 UNK        -0.0205 
     16 S16         1.1910  -21.2234  -50.0607 S.3       23 UNK        -0.2404 
     17 C17         0.9500  -20.7580  -48.3132 C.3       23 UNK        -0.0398 
     18 CA         -0.2497  -21.4729  -47.6503 C.3       11 UNK         0.1400 
     19 N          -0.2480  -21.2942  -46.1965 N.am      11 UNK        -0.5000 
     20 C          -1.0616  -21.9344  -45.3450 C.2       10 UNK         0.5000 
     21 O          -1.8667  -22.7993  -45.6878 O.2       10 UNK        -0.5000 
     22 CA         -1.0045  -21.4987  -43.8701 C.3       10 UNK         0.1400 
     23 CB          0.1750  -22.1666  -43.1483 C.3       10 UNK        -0.1800 
     24 N          -0.9198  -20.0450  -43.7220 N.am      10 UNK        -0.5000 
     25 C          -1.8781  -19.1877  -44.1036 C.2       9 UNK         0.5000 
     26 O          -2.9681  -19.5420  -44.5524 O.2       9 UNK        -0.5000 
     27 CA         -1.5425  -17.6857  -44.0259 C.3       9 UNK         0.1400 
     28 CB         -1.7169  -17.1512  -42.5970 C.3       9 UNK        -0.1800 
     29 N          -0.1901  -17.3890  -44.4996 N.am      9 UNK        -0.5000 
     30 C           0.2385  -17.5966  -45.7520 C.2       8 UNK         0.5000 
     31 O          -0.4813  -18.0106  -46.6572 O.2       8 UNK        -0.5000 
     32 CA          1.7312  -17.3583  -46.0300 C.3       8 UNK         0.1400 
     33 CB          2.0138  -15.8782  -46.3212 C.3       8 UNK        -0.1800 
     34 N           2.5641  -17.8200  -44.9210 N.am      8 UNK        -0.5000 
     35 C           2.7791  -19.1118  -44.6358 C.2       7 UNK         0.5000 
     36 O           2.3206  -20.0415  -45.3001 O.2       7 UNK        -0.5000 
     37 CA          3.6129  -19.4135  -43.3771 C.3       7 UNK         0.1400 
     38 CB          5.1144  -19.3156  -43.6849 C.3       7 UNK        -0.1800 
     39 N           3.2867  -18.5265  -42.2591 N.am      7 UNK        -0.5000 
     40 C           2.1103  -18.5267  -41.6171 C.2       6 UNK         0.5000 
     41 O           1.1889  -19.2974  -41.8821 O.2       6 UNK        -0.5000 
     42 CA          1.9098  -17.4576  -40.5269 C.3       6 UNK         0.1400 
     43 CB          2.4514  -17.9549  -39.1787 C.3       6 UNK        -0.1800 
     44 N           2.5071  -16.1551  -40.8373 N.am      6 UNK        -0.5000 
     45 C           2.2515  -15.4215  -41.9283 C.2       5 UNK         0.5000 
     46 O           1.5235  -15.7958  -42.8484 O.2       5 UNK        -0.5000 
     47 CA          2.8843  -14.0206  -41.9699 C.3       5 UNK         0.1400 
     48 CB          3.0811  -13.5146  -43.4093 C.3       5 UNK        -0.1800 
     49 N           2.0280  -13.0782  -41.2579 N.am      5 UNK        -0.5000 
     50 C           1.9661  -12.9418  -39.9243 C.2       4 UNK         0.5000 
     51 O           2.6918  -13.5588  -39.1435 O.2       4 UNK        -0.5000 
     52 CA          0.9101  -11.9721  -39.3689 C.3       4 UNK         0.1400 
     53 CB          1.5193  -10.5670  -39.1960 C.3       4 UNK        -0.1800 
     54 N          -0.2533  -11.9333  -40.2526 N.am      4 UNK        -0.5000 
     55 C          -1.4309  -11.3466  -40.0296 C.2       3 UNK         0.5000 
     56 O          -1.7177  -10.7567  -38.9863 O.2       3 UNK        -0.5000 
     57 CA         -2.4399  -11.4223  -41.1989 C.3       3 UNK         0.1400 
     58 CB         -3.7659  -10.7049  -40.8873 C.3       3 UNK        -0.1800 
     59 N          -1.8882  -10.8722  -42.4434 N.am      3 UNK        -0.5000 
     60 C          -0.9894  -11.4705  -43.2351 C.2       2 UNK         0.5000 
     61 O          -0.5048  -12.5827  -43.0044 O.2       2 UNK        -0.5000 
     62 CA         -0.4987  -10.6732  -44.4477 C.3       2 UNK         0.1400 
     63 CB          0.6811   -9.7667  -44.0480 C.3       2 UNK        -0.1800 
     64 N          -0.0826  -11.6177  -45.4785 N.am      2 UNK        -0.5000 
     65 C           0.0988  -11.3279  -46.7702 C.2       1 UNK         0.5000 
     66 O          -0.0664  -10.2035  -47.2499 O.2       1 UNK        -0.5000 
     67 C          -1.6041  -21.0737  -48.2762 C.2       11 UNK         0.5000 
     68 O          -2.1373  -21.8360  -49.0789 O.2       11 UNK        -0.5000 
     69 N          -2.1692  -19.9341  -47.8542 N.am      12 UNK        -0.5000 
     70 CA         -3.4870  -19.4572  -48.2772 C.3       12 UNK         0.1400 
     71 CB         -3.7285  -18.0467  -47.7198 C.3       12 UNK        -0.1800 
     72 C          -4.6324  -20.3986  -47.8596 C.2       12 UNK         0.5000 
     73 O          -5.5611  -20.6064  -48.6397 O.2       12 UNK        -0.5000 
     74 N          -4.5425  -20.9566  -46.6436 N.am      13 UNK        -0.5000 
     75 CA         -5.4922  -21.9317  -46.1077 C.3       13 UNK         0.1400 
     76 CB         -5.2532  -22.1071  -44.6002 C.3       13 UNK        -0.1800 
     77 C          -5.4262  -23.2864  -46.8378 C.2       13 UNK         0.5000 
     78 O          -6.4713  -23.8672  -47.1337 O.2       13 UNK        -0.5000 
     79 N          -4.2049  -23.7592  -47.1213 N.am      14 UNK        -0.5000 
     80 CA         -3.9388  -24.9806  -47.8827 C.3       14 UNK         0.1400 
     81 CB         -2.4649  -25.3664  -47.7034 C.3       14 UNK        -0.1800 
     82 C          -4.2884  -24.8429  -49.3765 C.2       14 UNK         0.5000 
     83 O          -4.7650  -25.8061  -49.9795 O.2       14 UNK        -0.5000 
     84 N          -4.0535  -23.6484  -49.9371 N.am      15 UNK        -0.5000 
     85 CA         -4.3255  -23.2321  -51.3108 C.3       15 UNK         0.1400 
     86 CB         -5.8489  -23.0821  -51.5216 C.3       15 UNK        -0.1800 
     87 C          -3.6273  -24.1611  -52.3223 C.2       15 UNK         0.5000 
     88 O          -2.3969  -24.2409  -52.3193 O.2       15 UNK        -0.5000 
     89 N          -4.4177  -24.8844  -53.1277 N.am      16 UNK        -0.5000 
     90 CA         -3.9720  -25.8207  -54.1616 C.3       16 UNK         0.1400 
     91 CB         -5.2079  -26.3676  -54.8918 C.3       16 UNK        -0.1800 
     92 C          -3.0959  -26.9817  -53.6458 C.2       16 UNK         0.5000 
     93 O          -2.3539  -27.5710  -54.4322 O.2       16 UNK        -0.5000 
     94 N          -3.1880  -27.2932  -52.3448 N.am      17 UNK        -0.5000 
     95 CA         -2.3555  -28.2959  -51.6818 C.3       17 UNK         0.1400 
     96 CB         -3.0568  -28.7613  -50.3964 C.3       17 UNK        -0.1800 
     97 C          -0.9286  -27.7973  -51.3727 C.2       17 UNK         0.5000 
     98 O          -0.0521  -28.6320  -51.1433 O.2       17 UNK        -0.5000 
     99 N          -0.7139  -26.4732  -51.3563 N.am      18 UNK        -0.5000 
    100 CA         0.5731  -25.8474  -51.0472 C.3       18 UNK         0.1400 
    101 CB         0.3975  -24.8678  -49.8774 C.3       18 UNK        -0.1800 
    102 C          1.1787  -25.1289  -52.2622 C.2       18 UNK         0.5000 
    103 O          2.3850  -25.2452  -52.4845 O.2       18 UNK        -0.5000 
    104 N          0.3537  -24.4012  -53.0230 N.am      19 UNK        -0.5000 
    105 CA         0.7732  -23.5934  -54.1644 C.3       19 UNK         0.1400 
    106 CB         1.3701  -22.2560  -53.6722 C.3       19 UNK        -0.1800 
    107 C         -0.4074  -23.4414  -55.1382 C.2       19 UNK         0.5000 
    108 O         -1.0160  -24.4462  -55.5083 O.2       19 UNK        -0.5000 
    109 N         -0.7003  -22.2049  -55.5593 N.am      20 UNK        -0.5000 
    110 CA        -1.8387  -21.8565  -56.4066 C.3       20 UNK         0.1400 
    111 CB        -1.6262  -20.4376  -56.9571 C.3       20 UNK        -0.1800 
    112 C         -3.1649  -21.9326  -55.6300 C.2       20 UNK         0.5000 
    113 O         -3.1849  -21.6962  -54.4207 O.2       20 UNK        -0.5000 
    114 N         -4.2552  -22.2260  -56.3476 N.am      21 UNK        -0.5000 
    115 CA        -5.6129  -22.2325  -55.8087 C.3       21 UNK         0.1400 
    116 CB        -6.5584  -22.8897  -56.8262 C.3       21 UNK        -0.1800 
    117 C         -6.0791  -20.8046  -55.4668 C.2       21 UNK         0.5000 
    118 O         -6.0367  -19.9277  -56.3329 O.2       21 UNK        -0.5000 
    119 N         -6.5184  -20.6041  -54.2220 N.am      22 UNK        -0.5000 
    120 CA        -6.9898  -19.3184  -53.6870 C.3       22 UNK         0.1400 
    121 C         -8.0383  -19.4649  -52.5450 C.2       22 UNK         0.5000 
    122 N         -8.6561  -20.6262  -52.3566 N.am      22 UNK        -0.7600 
    123 O         -8.3263  -18.5062  -51.8339 O.2       22 UNK        -0.5000 
    124 C124       -5.8267  -18.3421  -53.3567 C.3       23 UNK        -0.0398 
    125 S125       -4.6282  -18.9609  -52.1196 S.3       23 UNK        -0.2404 
    126 C126       -3.0611  -18.4209  -52.8750 C.3       23 UNK        -0.0205 
    127 H127        3.8515  -11.5087  -49.7030 H         1 UNK         0.0600 
    128 H128        4.9160  -12.4378  -48.6438 H         1 UNK         0.0600 
    129 H129        4.5990  -10.7332  -48.3033 H         1 UNK         0.0600 
    130 H130        1.6947  -11.9561  -49.3617 H         1 UNK         0.3000 
    131 H131        0.7095  -13.3671  -47.0732 H         1 UNK         0.0600 
    132 H132       -1.5153  -13.1106  -48.1480 H         1 UNK         0.0800 
    133 H133       -0.8686  -11.9642  -49.2888 H         1 UNK         0.0800 
    134 H134       -0.7704  -15.8163  -48.1785 H         1 UNK         0.0800 
    135 H135       -2.1708  -15.2660  -49.0676 H         1 UNK         0.0800 
    136 H136       -2.9106  -16.4098  -51.0614 H         1 UNK         0.1150 
    137 H137       -0.7816  -19.8704  -52.4231 H         1 UNK         0.1150 
    138 H138        0.8742  -17.4068  -49.3238 H         1 UNK         0.1150 
    139 H139        1.7680  -19.7603  -51.8767 H         1 UNK         0.0800 
    140 H140        2.2544  -19.0815  -50.3491 H         1 UNK         0.0800 
    141 H141        1.8691  -21.0181  -47.7868 H         1 UNK         0.0800 
    142 H142        0.8494  -19.6780  -48.2202 H         1 UNK         0.0800 
    143 H143       -0.1247  -22.5439  -47.8244 H         1 UNK         0.0600 
    144 H144        0.4202  -20.6289  -45.8236 H         1 UNK         0.3000 
    145 H145       -1.9273  -21.8306  -43.3899 H         1 UNK         0.0600 
    146 H146        0.1682  -21.9317  -42.0838 H         1 UNK         0.0600 
    147 H147        0.1265  -23.2522  -43.2421 H         1 UNK         0.0600 
    148 H148        1.1333  -21.8433  -43.5553 H         1 UNK         0.0600 
    149 H149       -0.0729  -19.6798  -43.2958 H         1 UNK         0.3000 
    150 H150       -2.2430  -17.1551  -44.6740 H         1 UNK         0.0600 
    151 H151       -2.7393  -17.3002  -42.2480 H         1 UNK         0.0600 
    152 H152       -1.5061  -16.0825  -42.5468 H         1 UNK         0.0600 
    153 H153       -1.0541  -17.6562  -41.8950 H         1 UNK         0.0600 
    154 H154        0.4570  -16.9861  -43.8261 H         1 UNK         0.3000 
    155 H155        2.0043  -17.9293  -46.9197 H         1 UNK         0.0600 
    156 H156        3.0791  -15.6953  -46.4619 H         1 UNK         0.0600 
    157 H157        1.6657  -15.2311  -45.5161 H         1 UNK         0.0600 
    158 H158        1.5114  -15.5676  -47.2371 H         1 UNK         0.0600 
    159 H159        2.9034  -17.1147  -44.2832 H         1 UNK         0.3000 
    160 H160        3.3939  -20.4391  -43.0721 H         1 UNK         0.0600 
    161 H161        5.4036  -18.3036  -43.9713 H         1 UNK         0.0600 
    162 H162        5.3880  -19.9801  -44.5056 H         1 UNK         0.0600 
    163 H163        5.7134  -19.6045  -42.8211 H         1 UNK         0.0600 
    164 H164        3.9890  -17.8574  -41.9803 H         1 UNK         0.3000 
    165 H165        0.8351  -17.3002  -40.4203 H         1 UNK         0.0600 
    166 H166        3.5334  -18.0901  -39.2045 H         1 UNK         0.0600 
    167 H167        2.2195  -17.2531  -38.3773 H         1 UNK         0.0600 
    168 H168        2.0066  -18.9136  -38.9081 H         1 UNK         0.0600 
    169 H169        3.0708  -15.7368  -40.1091 H         1 UNK         0.3000 
    170 H170        3.8642  -14.0646  -41.4898 H         1 UNK         0.0600 
    171 H171        3.6857  -14.2105  -43.9921 H         1 UNK         0.0600 
    172 H172        2.1312  -13.3893  -43.9305 H         1 UNK         0.0600 
    173 H173        3.5925  -12.5521  -43.4224 H         1 UNK         0.0600 
    174 H174        1.3876  -12.5597  -41.8418 H         1 UNK         0.3000 
    175 H175        0.5915  -12.3477  -38.3945 H         1 UNK         0.0600 
    176 H176        0.8291   -9.8878  -38.6962 H         1 UNK         0.0600 
    177 H177        2.4245  -10.6057  -38.5885 H         1 UNK         0.0600 
    178 H178        1.7864  -10.1257  -40.1570 H         1 UNK         0.0600 
    179 H179       -0.1619  -12.4258  -41.1359 H         1 UNK         0.3000 
    180 H180       -2.6663  -12.4790  -41.3573 H         1 UNK         0.0600 
    181 H181       -4.4783  -10.8212  -41.7043 H         1 UNK         0.0600 
    182 H182       -4.2332  -11.1163  -39.9917 H         1 UNK         0.0600 
    183 H183       -3.6172   -9.6373  -40.7209 H         1 UNK         0.0600 
    184 H184       -2.1953   -9.9401  -42.6818 H         1 UNK         0.3000 
    185 H185       -1.3233  -10.0658  -44.8266 H         1 UNK         0.0600 
    186 H186        1.0171   -9.1563  -44.8862 H         1 UNK         0.0600 
    187 H187        0.3990   -9.0839  -43.2456 H         1 UNK         0.0600 
    188 H188        1.5339  -10.3507  -43.6990 H         1 UNK         0.0600 
    189 H189        0.0537  -12.5608  -45.1357 H         1 UNK         0.3000 
    190 H190       -1.6399  -19.3226  -47.2368 H         1 UNK         0.3000 
    191 H191       -3.4774  -19.3989  -49.3670 H         1 UNK         0.0600 
    192 H192       -4.6563  -17.6283  -48.1114 H         1 UNK         0.0600 
    193 H193       -2.9232  -17.3700  -47.9958 H         1 UNK         0.0600 
    194 H194       -3.8000  -18.0474  -46.6323 H         1 UNK         0.0600 
    195 H195       -3.7781  -20.6788  -46.0366 H         1 UNK         0.3000 
    196 H196       -6.4984  -21.5298  -46.2439 H         1 UNK         0.0600 
    197 H197       -5.9698  -22.8081  -44.1705 H         1 UNK         0.0600 
    198 H198       -5.3656  -21.1606  -44.0710 H         1 UNK         0.0600 
    199 H199       -4.2540  -22.4893  -44.3908 H         1 UNK         0.0600 
    200 H200       -3.3931  -23.2471  -46.7866 H         1 UNK         0.3000 
    201 H201       -4.5540  -25.7840  -47.4723 H         1 UNK         0.0600 
    202 H202       -2.2460  -25.6094  -46.6636 H         1 UNK         0.0600 
    203 H203       -1.8088  -24.5472  -47.9966 H         1 UNK         0.0600 
    204 H204       -2.2023  -26.2364  -48.3057 H         1 UNK         0.0600 
    205 H205       -3.5384  -22.9607  -49.3911 H         1 UNK         0.3000 
    206 H206       -3.8715  -22.2475  -51.4367 H         1 UNK         0.0600 
    207 H207       -6.2563  -22.3270  -50.8485 H         1 UNK         0.0600 
    208 H208       -6.0783  -22.7614  -52.5353 H         1 UNK         0.0600 
    209 H209       -6.3878  -24.0115  -51.3345 H         1 UNK         0.0600 
    210 H210       -5.4156  -24.8044  -53.0029 H         1 UNK         0.3000 
    211 H211       -3.3791  -25.2535  -54.8793 H         1 UNK         0.0600 
    212 H212       -5.8511  -26.9376  -54.2201 H         1 UNK         0.0600 
    213 H213       -4.9179  -27.0293  -55.7091 H         1 UNK         0.0600 
    214 H214       -5.8022  -25.5630  -55.3233 H         1 UNK         0.0600 
    215 H215       -3.8211  -26.7644  -51.7556 H         1 UNK         0.3000 
    216 H216       -2.2623  -29.1616  -52.3411 H         1 UNK         0.0600 
    217 H217       -2.4922  -29.5578  -49.9100 H         1 UNK         0.0600 
    218 H218       -4.0521  -29.1522  -50.6086 H         1 UNK         0.0600 
    219 H219       -3.1622  -27.9503  -49.6769 H         1 UNK         0.0600 
    220 H220       -1.4703  -25.8459  -51.6097 H         1 UNK         0.3000 
    221 H221        1.3001  -26.5987  -50.7320 H         1 UNK         0.0600 
    222 H222       -0.3889  -24.1371  -50.0736 H         1 UNK         0.0600 
    223 H223        0.1495  -25.4020  -48.9616 H         1 UNK         0.0600 
    224 H224        1.3188  -24.3167  -49.6847 H         1 UNK         0.0600 
    225 H225       -0.6405  -24.3626  -52.8025 H         1 UNK         0.3000 
    226 H226        1.5473  -24.1328  -54.7139 H         1 UNK         0.0600 
    227 H227        2.2137  -22.4223  -53.0022 H         1 UNK         0.0600 
    228 H228        1.7423  -21.6528  -54.5009 H         1 UNK         0.0600 
    229 H229        0.6313  -21.6685  -53.1271 H         1 UNK         0.0600 
    230 H230       -0.1721  -21.4328  -55.1821 H         1 UNK         0.3000 
    231 H231       -1.8774  -22.5570  -57.2436 H         1 UNK         0.0600 
    232 H232       -2.4445  -20.1470  -57.6173 H         1 UNK         0.0600 
    233 H233       -0.7044  -20.3718  -57.5353 H         1 UNK         0.0600 
    234 H234       -1.5746  -19.6989  -56.1559 H         1 UNK         0.0600 
    235 H235       -4.1682  -22.3629  -57.3440 H         1 UNK         0.3000 
    236 H236       -5.6146  -22.8419  -54.9036 H         1 UNK         0.0600 
    237 H237       -6.6039  -22.3247  -57.7582 H         1 UNK         0.0600 
    238 H238       -6.2401  -23.9039  -57.0671 H         1 UNK         0.0600 
    239 H239       -7.5729  -22.9522  -56.4307 H         1 UNK         0.0600 
    240 H240       -6.4744  -21.3535  -53.5496 H         1 UNK         0.3000 
    241 H241       -7.5681  -18.8446  -54.4824 H         1 UNK         0.0600 
    242 H242       -9.3365  -20.6972  -51.6162 H         1 UNK         0.3800 
    243 H243       -8.5241  -21.4046  -52.9803 H         1 UNK         0.3800 
    244 H244       -5.2965  -18.1133  -54.2817 H         1 UNK         0.0800 
    245 H245       -6.2160  -17.3847  -53.0071 H         1 UNK         0.0800 
    246 H246       -2.7447  -19.1638  -53.6082 H         1 UNK         0.0800 
    247 H247       -3.2156  -17.4922  -53.4260 H         1 UNK         0.0800 
@<TRIPOS>BOND
     1    1    2 1    
     2    1  127 1    
     3    1  128 1    
     4    1  129 1    
     5    2    3 2    
     6    2    4 am   BACKBONE|DICT|INTERRES
     7    4    5 1    
     8    4  130 1    
     9    5    6 1    
    10    5   65 1    
    11    5  131 1    
    12    6    7 1    
    13    6  132 1    
    14    6  133 1    
    15    7    8 1    
    16    8    9 1    
    17    8  134 1    
    18    8  135 1    
    19    9   10 ar   
    20    9   14 ar   
    21   10   11 ar   
    22   10  136 1    
    23   11   12 ar   
    24   11  126 1    
    25   12   13 ar   
    26   12  137 1    
    27   13   14 ar   
    28   13   15 1    
    29   14  138 1    
    30   15   16 1    
    31   15  139 1    
    32   15  140 1    
    33   16   17 1    
    34   17   18 1    
    35   17  141 1    
    36   17  142 1    
    37   18   19 1    
    38   18   67 1    
    39   18  143 1    
    40   19   20 am   BACKBONE|DICT|INTERRES
    41   19  144 1    
    42   20   21 2    
    43   20   22 1    
    44   22   23 1    
    45   22   24 1    
    46   22  145 1    
    47   23  146 1    
    48   23  147 1    
    49   23  148 1    
    50   24   25 am   BACKBONE|DICT|INTERRES
    51   24  149 1    
    52   25   26 2    
    53   25   27 1    
    54   27   28 1    
    55   27   29 1    
    56   27  150 1    
    57   28  151 1    
    58   28  152 1    
    59   28  153 1    
    60   29   30 am   BACKBONE|DICT|INTERRES
    61   29  154 1    
    62   30   31 2    
    63   30   32 1    
    64   32   33 1    
    65   32   34 1    
    66   32  155 1    
    67   33  156 1    
    68   33  157 1    
    69   33  158 1    
    70   34   35 am   BACKBONE|DICT|INTERRES
    71   34  159 1    
    72   35   36 2    
    73   35   37 1    
    74   37   38 1    
    75   37   39 1    
    76   37  160 1    
    77   38  161 1    
    78   38  162 1    
    79   38  163 1    
    80   39   40 am   BACKBONE|DICT|INTERRES
    81   39  164 1    
    82   40   41 2    
    83   40   42 1    
    84   42   43 1    
    85   42   44 1    
    86   42  165 1    
    87   43  166 1    
    88   43  167 1    
    89   43  168 1    
    90   44   45 am   BACKBONE|DICT|INTERRES
    91   44  169 1    
    92   45   46 2    
    93   45   47 1    
    94   47   48 1    
    95   47   49 1    
    96   47  170 1    
    97   48  171 1    
    98   48  172 1    
    99   48  173 1    
   100   49   50 am   BACKBONE|DICT|INTERRES
   101   49  174 1    
   102   50   51 2    
   103   50   52 1    
   104   52   53 1    
   105   52   54 1    
   106   52  175 1    
   107   53  176 1    
   108   53  177 1    
   109   53  178 1    
   110   54   55 am   BACKBONE|DICT|INTERRES
   111   54  179 1    
   112   55   56 2    
   113   55   57 1    
   114   57   58 1    
   115   57   59 1    
   116   57  180 1    
   117   58  181 1    
   118   58  182 1    
   119   58  183 1    
   120   59   60 am   BACKBONE|DICT|INTERRES
   121   59  184 1    
   122   60   61 2    
   123   60   62 1    
   124   62   63 1    
   125   62   64 1    
   126   62  185 1    
   127   63  186 1    
   128   63  187 1    
   129   63  188 1    
   130   64   65 am   BACKBONE|DICT|INTERRES
   131   64  189 1    
   132   65   66 2    
   133   67   68 2    
   134   67   69 am   BACKBONE|DICT|INTERRES
   135   69   70 1    
   136   69  190 1    
   137   70   71 1    
   138   70   72 1    
   139   70  191 1    
   140   71  192 1    
   141   71  193 1    
   142   71  194 1    
   143   72   73 2    
   144   72   74 am   BACKBONE|DICT|INTERRES
   145   74   75 1    
   146   74  195 1    
   147   75   76 1    
   148   75   77 1    
   149   75  196 1    
   150   76  197 1    
   151   76  198 1    
   152   76  199 1    
   153   77   78 2    
   154   77   79 am   BACKBONE|DICT|INTERRES
   155   79   80 1    
   156   79  200 1    
   157   80   81 1    
   158   80   82 1    
   159   80  201 1    
   160   81  202 1    
   161   81  203 1    
   162   81  204 1    
   163   82   83 2    
   164   82   84 am   BACKBONE|DICT|INTERRES
   165   84   85 1    
   166   84  205 1    
   167   85   86 1    
   168   85   87 1    
   169   85  206 1    
   170   86  207 1    
   171   86  208 1    
   172   86  209 1    
   173   87   88 2    
   174   87   89 am   BACKBONE|DICT|INTERRES
   175   89   90 1    
   176   89  210 1    
   177   90   91 1    
   178   90   92 1    
   179   90  211 1    
   180   91  212 1    
   181   91  213 1    
   182   91  214 1    
   183   92   93 2    
   184   92   94 am   BACKBONE|DICT|INTERRES
   185   94   95 1    
   186   94  215 1    
   187   95   96 1    
   188   95   97 1    
   189   95  216 1    
   190   96  217 1    
   191   96  218 1    
   192   96  219 1    
   193   97   98 2    
   194   97   99 am   BACKBONE|DICT|INTERRES
   195   99  100 1    
   196   99  220 1    
   197  100  101 1    
   198  100  102 1    
   199  100  221 1    
   200  101  222 1    
   201  101  223 1    
   202  101  224 1    
   203  102  103 2    
   204  102  104 am   BACKBONE|DICT|INTERRES
   205  104  105 1    
   206  104  225 1    
   207  105  106 1    
   208  105  107 1    
   209  105  226 1    
   210  106  227 1    
   211  106  228 1    
   212  106  229 1    
   213  107  108 2    
   214  107  109 am   BACKBONE|DICT|INTERRES
   215  109  110 1    
   216  109  230 1    
   217  110  111 1    
   218  110  112 1    
   219  110  231 1    
   220  111  232 1    
   221  111  233 1    
   222  111  234 1    
   223  112  113 2    
   224  112  114 am   BACKBONE|DICT|INTERRES
   225  114  115 1    
   226  114  235 1    
   227  115  116 1    
   228  115  117 1    
   229  115  236 1    
   230  116  237 1    
   231  116  238 1    
   232  116  239 1    
   233  117  118 2    
   234  117  119 am   BACKBONE|DICT|INTERRES
   235  119  120 1    
   236  119  240 1    
   237  120  121 1    
   238  120  124 1    
   239  120  241 1    
   240  121  122 am   BACKBONE|DICT|INTERRES
   241  121  123 2    
   242  122  242 1    
   243  122  243 1    
   244  124  125 1    
   245  124  244 1    
   246  124  245 1    
   247  125  126 1    
   248  126  246 1    
   249  126  247 1    
@<TRIPOS>SUBSTRUCTURE
     1 UNK         1 GROUP             0       ****    0 ROOT    
