@<TRIPOS>MOLECULE
3R540
247   249    1
SMALL
USER_CHARGES


@<TRIPOS>ATOM
      1 CA         -2.6466  -18.0244  -48.1642 C.3       0 UNK        -0.1800 
      2 C          -2.2698  -16.6037  -48.5522 C.2       0 UNK         0.5000 
      3 O          -2.9960  -15.9662  -49.3152 O.2       0 UNK        -0.5000 
      4 N          -1.1330  -16.1157  -48.0390 N.am      1 UNK        -0.5000 
      5 CA         -0.5958  -14.7705  -48.2741 C.3       1 UNK         0.1400 
      6 C6          0.7845  -14.5809  -47.5852 C.3       23 UNK        -0.0398 
      7 S7          1.8887  -13.5024  -48.5612 S.3       23 UNK        -0.2404 
      8 C8          3.3661  -14.5428  -48.7996 C.3       23 UNK        -0.0205 
      9 C9          3.0721  -15.8109  -49.5867 C.ar      23 UNK        -0.0193 
     10 C10         2.9664  -15.7745  -50.9789 C.ar      23 UNK        -0.1150 
     11 C11         2.7111  -16.9431  -51.7041 C.ar      23 UNK        -0.0193 
     12 C12         2.5457  -18.1554  -51.0235 C.ar      23 UNK        -0.1150 
     13 C13         2.6605  -18.2022  -49.6299 C.ar      23 UNK        -0.0193 
     14 C14         2.9324  -17.0304  -48.9214 C.ar      23 UNK        -0.1150 
     15 C15         2.5148  -19.5088  -48.8685 C.3       23 UNK        -0.0205 
     16 S16         0.8458  -19.6698  -48.1612 S.3       23 UNK        -0.2404 
     17 C17        -0.0092  -20.6788  -49.4235 C.3       23 UNK        -0.0398 
     18 CA         -0.6943  -21.9428  -48.8424 C.3       11 UNK         0.1400 
     19 N           0.1904  -22.7439  -47.9921 N.am      11 UNK        -0.5000 
     20 C          -0.1220  -23.9306  -47.4524 C.2       10 UNK         0.5000 
     21 O          -1.1780  -24.5288  -47.6703 O.2       10 UNK        -0.5000 
     22 CA          0.8882  -24.5190  -46.4497 C.3       10 UNK         0.1400 
     23 CB          1.8658  -25.4598  -47.1677 C.3       10 UNK        -0.1800 
     24 N           1.6468  -23.5133  -45.6929 N.am      10 UNK        -0.5000 
     25 C           1.1073  -22.5795  -44.8970 C.2       9 UNK         0.5000 
     26 O          -0.1071  -22.4011  -44.7798 O.2       9 UNK        -0.5000 
     27 CA          2.0800  -21.6662  -44.1364 C.3       9 UNK         0.1400 
     28 CB          2.3147  -20.3641  -44.9126 C.3       9 UNK        -0.1800 
     29 N           1.5336  -21.3435  -42.8212 N.am      9 UNK        -0.5000 
     30 C           1.6313  -22.1411  -41.7492 C.2       8 UNK         0.5000 
     31 O           2.2574  -23.2029  -41.7573 O.2       8 UNK        -0.5000 
     32 CA          0.8976  -21.7035  -40.4608 C.3       8 UNK         0.1400 
     33 CB          1.6606  -22.1039  -39.1803 C.3       8 UNK        -0.1800 
     34 N           0.5266  -20.2837  -40.4249 N.am      8 UNK        -0.5000 
     35 C           1.3438  -19.2204  -40.4223 C.2       7 UNK         0.5000 
     36 O           2.5747  -19.2834  -40.4284 O.2       7 UNK        -0.5000 
     37 CA          0.6456  -17.8468  -40.4467 C.3       7 UNK         0.1400 
     38 CB          1.2014  -16.9210  -39.3530 C.3       7 UNK        -0.1800 
     39 N           0.7454  -17.1796  -41.7473 N.am      7 UNK        -0.5000 
     40 C           0.3287  -17.6849  -42.9202 C.2       6 UNK         0.5000 
     41 O          -0.1533  -18.8112  -43.0434 O.2       6 UNK        -0.5000 
     42 CA          0.4210  -16.7813  -44.1673 C.3       6 UNK         0.1400 
     43 CB         -0.9606  -16.1792  -44.4589 C.3       6 UNK        -0.1800 
     44 N           1.3846  -15.6878  -44.0435 N.am      6 UNK        -0.5000 
     45 C           2.7161  -15.8365  -43.9783 C.2       5 UNK         0.5000 
     46 O           3.2847  -16.9174  -44.1271 O.2       5 UNK        -0.5000 
     47 CA          3.5616  -14.5773  -43.6817 C.3       5 UNK         0.1400 
     48 CB          4.2685  -14.0958  -44.9577 C.3       5 UNK        -0.1800 
     49 N           2.8072  -13.4519  -43.1234 N.am      5 UNK        -0.5000 
     50 C           2.0946  -13.4535  -41.9878 C.2       4 UNK         0.5000 
     51 O           2.0503  -14.4106  -41.2160 O.2       4 UNK        -0.5000 
     52 CA          1.2408  -12.2015  -41.6941 C.3       4 UNK         0.1400 
     53 CB          1.9035  -11.3461  -40.6038 C.3       4 UNK        -0.1800 
     54 N           0.9707  -11.3557  -42.8653 N.am      4 UNK        -0.5000 
     55 C           0.3265  -11.7390  -43.9764 C.2       3 UNK         0.5000 
     56 O          -0.1045  -12.8816  -44.1602 O.2       3 UNK        -0.5000 
     57 CA          0.2057  -10.6844  -45.0860 C.3       3 UNK         0.1400 
     58 CB          1.5809  -10.4271  -45.7353 C.3       3 UNK        -0.1800 
     59 N          -0.7335  -11.1703  -46.0889 N.am      3 UNK        -0.5000 
     60 C          -1.2977  -10.4609  -47.0721 C.2       2 UNK         0.5000 
     61 O          -1.1365   -9.2466  -47.2074 O.2       2 UNK        -0.5000 
     62 CA         -2.1530  -11.2518  -48.0889 C.3       2 UNK         0.1400 
     63 CB         -2.4719  -10.4387  -49.3566 C.3       2 UNK        -0.1800 
     64 N          -1.4823  -12.4932  -48.4847 N.am      2 UNK        -0.5000 
     65 C          -1.5640  -13.6530  -47.8232 C.2       1 UNK         0.5000 
     66 O          -2.2931  -13.8204  -46.8432 O.2       1 UNK        -0.5000 
     67 C          -2.0273  -21.5935  -48.1481 C.2       11 UNK         0.5000 
     68 O          -3.0620  -21.6078  -48.8089 O.2       11 UNK        -0.5000 
     69 N          -1.9916  -21.3249  -46.8371 N.am      12 UNK        -0.5000 
     70 CA         -3.1744  -21.0532  -46.0263 C.3       12 UNK         0.1400 
     71 CB         -2.8180  -20.0318  -44.9341 C.3       12 UNK        -0.1800 
     72 C          -3.7139  -22.3426  -45.3914 C.2       12 UNK         0.5000 
     73 O          -4.9153  -22.6004  -45.4615 O.2       12 UNK        -0.5000 
     74 N          -2.8149  -23.1126  -44.7650 N.am      13 UNK        -0.5000 
     75 CA         -3.1409  -24.2461  -43.9025 C.3       13 UNK         0.1400 
     76 CB         -1.8937  -24.6310  -43.0909 C.3       13 UNK        -0.1800 
     77 C          -3.7010  -25.4714  -44.6434 C.2       13 UNK         0.5000 
     78 O          -4.5298  -26.1805  -44.0705 O.2       13 UNK        -0.5000 
     79 N          -3.2391  -25.7102  -45.8774 N.am      14 UNK        -0.5000 
     80 CA         -3.6283  -26.8661  -46.6844 C.3       14 UNK         0.1400 
     81 CB         -2.3845  -27.7157  -46.9964 C.3       14 UNK        -0.1800 
     82 C          -4.3357  -26.4351  -47.9754 C.2       14 UNK         0.5000 
     83 O          -5.3973  -26.9741  -48.2904 O.2       14 UNK        -0.5000 
     84 N          -3.7370  -25.4881  -48.7097 N.am      15 UNK        -0.5000 
     85 CA         -4.1910  -25.0998  -50.0478 C.3       15 UNK         0.1400 
     86 CB         -2.9907  -24.5562  -50.8311 C.3       15 UNK        -0.1800 
     87 C          -5.3485  -24.0810  -50.0515 C.2       15 UNK         0.5000 
     88 O          -5.9759  -23.8975  -51.0972 O.2       15 UNK        -0.5000 
     89 N          -5.5930  -23.4267  -48.9044 N.am      16 UNK        -0.5000 
     90 CA         -6.6341  -22.4192  -48.6556 C.3       16 UNK         0.1400 
     91 CB         -8.0164  -23.0995  -48.5881 C.3       16 UNK        -0.1800 
     92 C          -6.6003  -21.2363  -49.6504 C.2       16 UNK         0.5000 
     93 O          -7.6506  -20.7630  -50.0890 O.2       16 UNK        -0.5000 
     94 N          -5.3835  -20.8192  -50.0260 N.am      17 UNK        -0.5000 
     95 CA         -4.9860  -19.8342  -51.0382 C.3       17 UNK         0.1400 
     96 CB         -5.5166  -18.4295  -50.6996 C.3       17 UNK        -0.1800 
     97 C          -5.3383  -20.2256  -52.4867 C.2       17 UNK         0.5000 
     98 O          -4.5098  -20.0468  -53.3805 O.2       17 UNK        -0.5000 
     99 N          -6.5501  -20.7525  -52.6940 N.am      18 UNK        -0.5000 
    100 CA        -7.1436  -21.0978  -53.9821 C.3       18 UNK         0.1400 
    101 CB        -8.5960  -21.5469  -53.7614 C.3       18 UNK        -0.1800 
    102 C         -6.3599  -22.1607  -54.7681 C.2       18 UNK         0.5000 
    103 O         -6.1159  -21.9633  -55.9588 O.2       18 UNK        -0.5000 
    104 N         -5.9615  -23.2543  -54.1007 N.am      19 UNK        -0.5000 
    105 CA        -5.2248  -24.3514  -54.7384 C.3       19 UNK         0.1400 
    106 CB        -5.4079  -25.6446  -53.9305 C.3       19 UNK        -0.1800 
    107 C         -3.7334  -24.0273  -54.9492 C.2       19 UNK         0.5000 
    108 O         -3.1063  -24.6167  -55.8300 O.2       19 UNK        -0.5000 
    109 N         -3.1977  -23.0860  -54.1593 N.am      20 UNK        -0.5000 
    110 CA        -1.8438  -22.5499  -54.3140 C.3       20 UNK         0.1400 
    111 CB        -1.3747  -21.9596  -52.9725 C.3       20 UNK        -0.1800 
    112 C         -1.7631  -21.4812  -55.4193 C.2       20 UNK         0.5000 
    113 O         -0.6744  -21.2351  -55.9393 O.2       20 UNK        -0.5000 
    114 N         -2.9076  -20.8485  -55.7235 N.am      21 UNK        -0.5000 
    115 CA        -3.0797  -19.6652  -56.5710 C.3       21 UNK         0.1400 
    116 CB        -2.7582  -19.9871  -58.0450 C.3       21 UNK        -0.1800 
    117 C         -2.3002  -18.4496  -56.0240 C.2       21 UNK         0.5000 
    118 O         -1.7652  -17.6532  -56.7976 O.2       21 UNK        -0.5000 
    119 N         -2.2293  -18.3480  -54.6916 N.am      22 UNK        -0.5000 
    120 CA        -1.4376  -17.3626  -53.9555 C.3       22 UNK         0.1400 
    121 C         -1.9566  -17.2759  -52.5020 C.2       22 UNK         0.5000 
    122 N         -2.3995  -16.1084  -52.0594 N.am      22 UNK        -0.7600 
    123 O         -1.9393  -18.2615  -51.7700 O.2       22 UNK        -0.5000 
    124 C124        0.0817  -17.6849  -54.0050 C.3       23 UNK        -0.0398 
    125 S125        1.1043  -16.1862  -53.8410 S.3       23 UNK        -0.2404 
    126 C126        2.6652  -16.8876  -53.2240 C.3       23 UNK        -0.0205 
    127 H127       -3.5841  -18.0310  -47.6087 H         1 UNK         0.0600 
    128 H128       -2.7723  -18.6350  -49.0578 H         1 UNK         0.0600 
    129 H129       -1.8775  -18.4862  -47.5471 H         1 UNK         0.0600 
    130 H130       -0.5884  -16.7041  -47.4278 H         1 UNK         0.3000 
    131 H131       -0.4706  -14.6938  -49.3567 H         1 UNK         0.0600 
    132 H132        1.2707  -15.5424  -47.4344 H         1 UNK         0.0800 
    133 H133        0.6905  -14.1630  -46.5808 H         1 UNK         0.0800 
    134 H134        3.7965  -14.7901  -47.8291 H         1 UNK         0.0800 
    135 H135        4.1239  -13.9596  -49.3248 H         1 UNK         0.0800 
    136 H136        3.0902  -14.8356  -51.5004 H         1 UNK         0.1150 
    137 H137        2.3467  -19.0623  -51.5767 H         1 UNK         0.1150 
    138 H138        3.0294  -17.0714  -47.8453 H         1 UNK         0.1150 
    139 H139        2.7610  -20.3612  -49.5025 H         1 UNK         0.0800 
    140 H140        3.2398  -19.5284  -48.0538 H         1 UNK         0.0800 
    141 H141       -0.7291  -20.0464  -49.9473 H         1 UNK         0.0800 
    142 H142        0.7032  -20.9865  -50.1889 H         1 UNK         0.0800 
    143 H143       -0.9443  -22.5768  -49.6923 H         1 UNK         0.0600 
    144 H144        1.0662  -22.3139  -47.7340 H         1 UNK         0.3000 
    145 H145        0.3180  -25.1095  -45.7303 H         1 UNK         0.0600 
    146 H146        2.5202  -25.9660  -46.4579 H         1 UNK         0.0600 
    147 H147        1.3296  -26.2328  -47.7202 H         1 UNK         0.0600 
    148 H148        2.4929  -24.9219  -47.8798 H         1 UNK         0.0600 
    149 H149        2.6528  -23.5842  -45.7458 H         1 UNK         0.3000 
    150 H150        3.0384  -22.1756  -44.0163 H         1 UNK         0.0600 
    151 H151        2.8010  -20.5640  -45.8671 H         1 UNK         0.0600 
    152 H152        2.9585  -19.6828  -44.3563 H         1 UNK         0.0600 
    153 H153        1.3787  -19.8448  -45.1206 H         1 UNK         0.0600 
    154 H154        0.9482  -20.5161  -42.7678 H         1 UNK         0.3000 
    155 H155       -0.0440  -22.2543  -40.4620 H         1 UNK         0.0600 
    156 H156        1.1183  -21.7982  -38.2856 H         1 UNK         0.0600 
    157 H157        2.6530  -21.6539  -39.1421 H         1 UNK         0.0600 
    158 H158        1.7915  -23.1851  -39.1232 H         1 UNK         0.0600 
    159 H159       -0.4672  -20.1058  -40.4743 H         1 UNK         0.3000 
    160 H160       -0.4165  -17.9942  -40.2410 H         1 UNK         0.0600 
    161 H161        2.2488  -16.6730  -39.5299 H         1 UNK         0.0600 
    162 H162        1.1361  -17.3916  -38.3712 H         1 UNK         0.0600 
    163 H163        0.6408  -15.9873  -39.3037 H         1 UNK         0.0600 
    164 H164        1.1578  -16.2537  -41.7374 H         1 UNK         0.3000 
    165 H165        0.7169  -17.4046  -45.0136 H         1 UNK         0.0600 
    166 H166       -1.3219  -15.5809  -43.6214 H         1 UNK         0.0600 
    167 H167       -0.9353  -15.5323  -45.3318 H         1 UNK         0.0600 
    168 H168       -1.6998  -16.9570  -44.6500 H         1 UNK         0.0600 
    169 H169        0.9952  -14.7591  -43.9286 H         1 UNK         0.3000 
    170 H170        4.3203  -14.8642  -42.9510 H         1 UNK         0.0600 
    171 H171        4.8374  -14.9021  -45.4226 H         1 UNK         0.0600 
    172 H172        3.5530  -13.7271  -45.6935 H         1 UNK         0.0600 
    173 H173        4.9697  -13.2900  -44.7400 H         1 UNK         0.0600 
    174 H174        2.7774  -12.6156  -43.6864 H         1 UNK         0.3000 
    175 H175        0.2792  -12.5538  -41.3153 H         1 UNK         0.0600 
    176 H176        2.8597  -10.9408  -40.9369 H         1 UNK         0.0600 
    177 H177        1.2656  -10.5107  -40.3144 H         1 UNK         0.0600 
    178 H178        2.0917  -11.9346  -39.7047 H         1 UNK         0.0600 
    179 H179        1.3040  -10.4040  -42.8056 H         1 UNK         0.3000 
    180 H180       -0.1819   -9.7621  -44.6491 H         1 UNK         0.0600 
    181 H181        1.9874  -11.3346  -46.1840 H         1 UNK         0.0600 
    182 H182        2.3059  -10.0682  -45.0042 H         1 UNK         0.0600 
    183 H183        1.5191   -9.6703  -46.5171 H         1 UNK         0.0600 
    184 H184       -0.9688  -12.1522  -45.9890 H         1 UNK         0.3000 
    185 H185       -3.1005  -11.4863  -47.5994 H         1 UNK         0.0600 
    186 H186       -1.5641  -10.1395  -49.8822 H         1 UNK         0.0600 
    187 H187       -3.0861  -11.0144  -50.0492 H         1 UNK         0.0600 
    188 H188       -3.0262   -9.5316  -49.1124 H         1 UNK         0.0600 
    189 H189       -0.8156  -12.4120  -49.2397 H         1 UNK         0.3000 
    190 H190       -1.1119  -21.4036  -46.3412 H         1 UNK         0.3000 
    191 H191       -3.9631  -20.6206  -46.6460 H         1 UNK         0.0600 
    192 H192       -3.6849  -19.8045  -44.3127 H         1 UNK         0.0600 
    193 H193       -2.4743  -19.0936  -45.3648 H         1 UNK         0.0600 
    194 H194       -2.0300  -20.3992  -44.2756 H         1 UNK         0.0600 
    195 H195       -1.8385  -22.8217  -44.7697 H         1 UNK         0.3000 
    196 H196       -3.9076  -23.9141  -43.1993 H         1 UNK         0.0600 
    197 H197       -2.1127  -25.4438  -42.3974 H         1 UNK         0.0600 
    198 H198       -1.5309  -23.7889  -42.5011 H         1 UNK         0.0600 
    199 H199       -1.0796  -24.9604  -43.7366 H         1 UNK         0.0600 
    200 H200       -2.5669  -25.0732  -46.2898 H         1 UNK         0.3000 
    201 H201       -4.3272  -27.5034  -46.1387 H         1 UNK         0.0600 
    202 H202       -1.9164  -28.0752  -46.0800 H         1 UNK         0.0600 
    203 H203       -1.6344  -27.1563  -47.5556 H         1 UNK         0.0600 
    204 H204       -2.6499  -28.5910  -47.5906 H         1 UNK         0.0600 
    205 H205       -2.8501  -25.1032  -48.3957 H         1 UNK         0.3000 
    206 H206       -4.5428  -25.9960  -50.5633 H         1 UNK         0.0600 
    207 H207       -2.1026  -25.1741  -50.6964 H         1 UNK         0.0600 
    208 H208       -3.2043  -24.5299  -51.8966 H         1 UNK         0.0600 
    209 H209       -2.7503  -23.5412  -50.5271 H         1 UNK         0.0600 
    210 H210       -4.9892  -23.6304  -48.1210 H         1 UNK         0.3000 
    211 H211       -6.4248  -21.9934  -47.6738 H         1 UNK         0.0600 
    212 H212       -8.3085  -23.5142  -49.5535 H         1 UNK         0.0600 
    213 H213       -8.7891  -22.3914  -48.2868 H         1 UNK         0.0600 
    214 H214       -8.0200  -23.9108  -47.8600 H         1 UNK         0.0600 
    215 H215       -4.5881  -21.2788  -49.5811 H         1 UNK         0.3000 
    216 H216       -3.8980  -19.7985  -50.9837 H         1 UNK         0.0600 
    217 H217       -6.6027  -18.3729  -50.7753 H         1 UNK         0.0600 
    218 H218       -5.1015  -17.6863  -51.3815 H         1 UNK         0.0600 
    219 H219       -5.2348  -18.1333  -49.6896 H         1 UNK         0.0600 
    220 H220       -7.1448  -20.8565  -51.8758 H         1 UNK         0.3000 
    221 H221       -7.1582  -20.1882  -54.5860 H         1 UNK         0.0600 
    222 H222       -8.6519  -22.4231  -53.1140 H         1 UNK         0.0600 
    223 H223       -9.1874  -20.7545  -53.3020 H         1 UNK         0.0600 
    224 H224       -9.0755  -21.8037  -54.7070 H         1 UNK         0.0600 
    225 H225       -6.1700  -23.3492  -53.1111 H         1 UNK         0.3000 
    226 H226       -5.6559  -24.5264  -55.7267 H         1 UNK         0.0600 
    227 H227       -6.4632  -25.8965  -53.8246 H         1 UNK         0.0600 
    228 H228       -4.9213  -26.4853  -54.4264 H         1 UNK         0.0600 
    229 H229       -4.9828  -25.5661  -52.9329 H         1 UNK         0.0600 
    230 H230       -3.7914  -22.6410  -53.4750 H         1 UNK         0.3000 
    231 H231       -1.1632  -23.3594  -54.5862 H         1 UNK         0.0600 
    232 H232       -2.0695  -21.2108  -52.5900 H         1 UNK         0.0600 
    233 H233       -1.2653  -22.7379  -52.2195 H         1 UNK         0.0600 
    234 H234       -0.4014  -21.4774  -53.0738 H         1 UNK         0.0600 
    235 H235       -3.7298  -21.1061  -55.1934 H         1 UNK         0.3000 
    236 H236       -4.1367  -19.4015  -56.5123 H         1 UNK         0.0600 
    237 H237       -3.3227  -20.8536  -58.3898 H         1 UNK         0.0600 
    238 H238       -3.0211  -19.1504  -58.6929 H         1 UNK         0.0600 
    239 H239       -1.6985  -20.1950  -58.1946 H         1 UNK         0.0600 
    240 H240       -2.7464  -19.0061  -54.1172 H         1 UNK         0.3000 
    241 H241       -1.6104  -16.3988  -54.4393 H         1 UNK         0.0600 
    242 H242       -2.4140  -15.2876  -52.6428 H         1 UNK         0.3800 
    243 H243       -2.7118  -16.0449  -51.0922 H         1 UNK         0.3800 
    244 H244        0.3489  -18.1378  -54.9605 H         1 UNK         0.0800 
    245 H245        0.3582  -18.4190  -53.2457 H         1 UNK         0.0800 
    246 H246        2.8286  -17.8761  -53.6563 H         1 UNK         0.0800 
    247 H247        3.4882  -16.2662  -53.5801 H         1 UNK         0.0800 
@<TRIPOS>BOND
     1    1    2 1    
     2    1  127 1    
     3    1  128 1    
     4    1  129 1    
     5    2    3 2    
     6    2    4 am   BACKBONE|DICT|INTERRES
     7    4    5 1    
     8    4  130 1    
     9    5    6 1    
    10    5   65 1    
    11    5  131 1    
    12    6    7 1    
    13    6  132 1    
    14    6  133 1    
    15    7    8 1    
    16    8    9 1    
    17    8  134 1    
    18    8  135 1    
    19    9   10 ar   
    20    9   14 ar   
    21   10   11 ar   
    22   10  136 1    
    23   11   12 ar   
    24   11  126 1    
    25   12   13 ar   
    26   12  137 1    
    27   13   14 ar   
    28   13   15 1    
    29   14  138 1    
    30   15   16 1    
    31   15  139 1    
    32   15  140 1    
    33   16   17 1    
    34   17   18 1    
    35   17  141 1    
    36   17  142 1    
    37   18   19 1    
    38   18   67 1    
    39   18  143 1    
    40   19   20 am   BACKBONE|DICT|INTERRES
    41   19  144 1    
    42   20   21 2    
    43   20   22 1    
    44   22   23 1    
    45   22   24 1    
    46   22  145 1    
    47   23  146 1    
    48   23  147 1    
    49   23  148 1    
    50   24   25 am   BACKBONE|DICT|INTERRES
    51   24  149 1    
    52   25   26 2    
    53   25   27 1    
    54   27   28 1    
    55   27   29 1    
    56   27  150 1    
    57   28  151 1    
    58   28  152 1    
    59   28  153 1    
    60   29   30 am   BACKBONE|DICT|INTERRES
    61   29  154 1    
    62   30   31 2    
    63   30   32 1    
    64   32   33 1    
    65   32   34 1    
    66   32  155 1    
    67   33  156 1    
    68   33  157 1    
    69   33  158 1    
    70   34   35 am   BACKBONE|DICT|INTERRES
    71   34  159 1    
    72   35   36 2    
    73   35   37 1    
    74   37   38 1    
    75   37   39 1    
    76   37  160 1    
    77   38  161 1    
    78   38  162 1    
    79   38  163 1    
    80   39   40 am   BACKBONE|DICT|INTERRES
    81   39  164 1    
    82   40   41 2    
    83   40   42 1    
    84   42   43 1    
    85   42   44 1    
    86   42  165 1    
    87   43  166 1    
    88   43  167 1    
    89   43  168 1    
    90   44   45 am   BACKBONE|DICT|INTERRES
    91   44  169 1    
    92   45   46 2    
    93   45   47 1    
    94   47   48 1    
    95   47   49 1    
    96   47  170 1    
    97   48  171 1    
    98   48  172 1    
    99   48  173 1    
   100   49   50 am   BACKBONE|DICT|INTERRES
   101   49  174 1    
   102   50   51 2    
   103   50   52 1    
   104   52   53 1    
   105   52   54 1    
   106   52  175 1    
   107   53  176 1    
   108   53  177 1    
   109   53  178 1    
   110   54   55 am   BACKBONE|DICT|INTERRES
   111   54  179 1    
   112   55   56 2    
   113   55   57 1    
   114   57   58 1    
   115   57   59 1    
   116   57  180 1    
   117   58  181 1    
   118   58  182 1    
   119   58  183 1    
   120   59   60 am   BACKBONE|DICT|INTERRES
   121   59  184 1    
   122   60   61 2    
   123   60   62 1    
   124   62   63 1    
   125   62   64 1    
   126   62  185 1    
   127   63  186 1    
   128   63  187 1    
   129   63  188 1    
   130   64   65 am   BACKBONE|DICT|INTERRES
   131   64  189 1    
   132   65   66 2    
   133   67   68 2    
   134   67   69 am   BACKBONE|DICT|INTERRES
   135   69   70 1    
   136   69  190 1    
   137   70   71 1    
   138   70   72 1    
   139   70  191 1    
   140   71  192 1    
   141   71  193 1    
   142   71  194 1    
   143   72   73 2    
   144   72   74 am   BACKBONE|DICT|INTERRES
   145   74   75 1    
   146   74  195 1    
   147   75   76 1    
   148   75   77 1    
   149   75  196 1    
   150   76  197 1    
   151   76  198 1    
   152   76  199 1    
   153   77   78 2    
   154   77   79 am   BACKBONE|DICT|INTERRES
   155   79   80 1    
   156   79  200 1    
   157   80   81 1    
   158   80   82 1    
   159   80  201 1    
   160   81  202 1    
   161   81  203 1    
   162   81  204 1    
   163   82   83 2    
   164   82   84 am   BACKBONE|DICT|INTERRES
   165   84   85 1    
   166   84  205 1    
   167   85   86 1    
   168   85   87 1    
   169   85  206 1    
   170   86  207 1    
   171   86  208 1    
   172   86  209 1    
   173   87   88 2    
   174   87   89 am   BACKBONE|DICT|INTERRES
   175   89   90 1    
   176   89  210 1    
   177   90   91 1    
   178   90   92 1    
   179   90  211 1    
   180   91  212 1    
   181   91  213 1    
   182   91  214 1    
   183   92   93 2    
   184   92   94 am   BACKBONE|DICT|INTERRES
   185   94   95 1    
   186   94  215 1    
   187   95   96 1    
   188   95   97 1    
   189   95  216 1    
   190   96  217 1    
   191   96  218 1    
   192   96  219 1    
   193   97   98 2    
   194   97   99 am   BACKBONE|DICT|INTERRES
   195   99  100 1    
   196   99  220 1    
   197  100  101 1    
   198  100  102 1    
   199  100  221 1    
   200  101  222 1    
   201  101  223 1    
   202  101  224 1    
   203  102  103 2    
   204  102  104 am   BACKBONE|DICT|INTERRES
   205  104  105 1    
   206  104  225 1    
   207  105  106 1    
   208  105  107 1    
   209  105  226 1    
   210  106  227 1    
   211  106  228 1    
   212  106  229 1    
   213  107  108 2    
   214  107  109 am   BACKBONE|DICT|INTERRES
   215  109  110 1    
   216  109  230 1    
   217  110  111 1    
   218  110  112 1    
   219  110  231 1    
   220  111  232 1    
   221  111  233 1    
   222  111  234 1    
   223  112  113 2    
   224  112  114 am   BACKBONE|DICT|INTERRES
   225  114  115 1    
   226  114  235 1    
   227  115  116 1    
   228  115  117 1    
   229  115  236 1    
   230  116  237 1    
   231  116  238 1    
   232  116  239 1    
   233  117  118 2    
   234  117  119 am   BACKBONE|DICT|INTERRES
   235  119  120 1    
   236  119  240 1    
   237  120  121 1    
   238  120  124 1    
   239  120  241 1    
   240  121  122 am   BACKBONE|DICT|INTERRES
   241  121  123 2    
   242  122  242 1    
   243  122  243 1    
   244  124  125 1    
   245  124  244 1    
   246  124  245 1    
   247  125  126 1    
   248  126  246 1    
   249  126  247 1    
@<TRIPOS>SUBSTRUCTURE
     1 UNK         1 GROUP             0       ****    0 ROOT    
