@<TRIPOS>MOLECULE
3R540
247   249    1
SMALL
USER_CHARGES


@<TRIPOS>ATOM
      1 CA          7.0947  -14.1433  -45.8821 C.3       0 UNK        -0.1800 
      2 C           5.8442  -15.0076  -45.9307 C.2       0 UNK         0.5000 
      3 O           5.9070  -16.1950  -45.6136 O.2       0 UNK        -0.5000 
      4 N           4.7011  -14.4187  -46.3050 N.am      1 UNK        -0.5000 
      5 CA          3.4021  -15.0927  -46.4596 C.3       1 UNK         0.1400 
      6 C6          2.3106  -14.1419  -47.0176 C.3       23 UNK        -0.0398 
      7 S7          2.8424  -13.2745  -48.5395 S.3       23 UNK        -0.2404 
      8 C8          1.3324  -13.2802  -49.5702 C.3       23 UNK        -0.0205 
      9 C9          1.0211  -14.5778  -50.3228 C.ar      23 UNK        -0.0193 
     10 C10         0.0103  -14.5549  -51.2914 C.ar      23 UNK        -0.1150 
     11 C11        -0.3214  -15.6990  -52.0256 C.ar      23 UNK        -0.0193 
     12 C12         0.3854  -16.8812  -51.7841 C.ar      23 UNK        -0.1150 
     13 C13         1.3773  -16.9327  -50.8052 C.ar      23 UNK        -0.0193 
     14 C14         1.6948  -15.7819  -50.0824 C.ar      23 UNK        -0.1150 
     15 C15         2.1026  -18.2372  -50.5252 C.3       23 UNK        -0.0205 
     16 S16         1.4505  -19.0560  -49.0392 S.3       23 UNK        -0.2404 
     17 C17        -0.2497  -19.5051  -49.5372 C.3       23 UNK        -0.0398 
     18 CA         -1.3233  -18.8851  -48.6059 C.3       11 UNK         0.1400 
     19 N          -1.3373  -17.4155  -48.6468 N.am      11 UNK        -0.5000 
     20 C          -1.8140  -16.6188  -47.6802 C.2       10 UNK         0.5000 
     21 O          -2.3293  -17.0420  -46.6419 O.2       10 UNK        -0.5000 
     22 CA         -1.7412  -15.1064  -47.9197 C.3       10 UNK         0.1400 
     23 CB         -2.7231  -14.6801  -49.0294 C.3       10 UNK        -0.1800 
     24 N          -2.0633  -14.4238  -46.6706 N.am      10 UNK        -0.5000 
     25 C          -1.9469  -13.1141  -46.4319 C.2       9 UNK         0.5000 
     26 O          -1.4595  -12.3105  -47.2270 O.2       9 UNK        -0.5000 
     27 CA         -2.4864  -12.6080  -45.0834 C.3       9 UNK         0.1400 
     28 CB         -3.9990  -12.3517  -45.1745 C.3       9 UNK        -0.1800 
     29 N          -2.2214  -13.5113  -43.9628 N.am      9 UNK        -0.5000 
     30 C          -1.0180  -13.6705  -43.3963 C.2       8 UNK         0.5000 
     31 O           0.0173  -13.1654  -43.8310 O.2       8 UNK        -0.5000 
     32 CA         -0.9713  -14.4965  -42.0983 C.3       8 UNK         0.1400 
     33 CB         -1.2161  -13.5936  -40.8798 C.3       8 UNK        -0.1800 
     34 N          -1.9234  -15.6086  -42.0728 N.am      8 UNK        -0.5000 
     35 C          -1.7330  -16.7547  -42.7364 C.2       7 UNK         0.5000 
     36 O          -0.7847  -16.9505  -43.4963 O.2       7 UNK        -0.5000 
     37 CA         -2.7624  -17.8737  -42.5024 C.3       7 UNK         0.1400 
     38 CB         -3.7303  -17.9995  -43.6893 C.3       7 UNK        -0.1800 
     39 N          -2.0687  -19.1450  -42.3202 N.am      7 UNK        -0.5000 
     40 C          -1.5112  -19.5594  -41.1749 C.2       6 UNK         0.5000 
     41 O          -1.6425  -18.9756  -40.0984 O.2       6 UNK        -0.5000 
     42 CA         -0.6511  -20.8367  -41.2495 C.3       6 UNK         0.1400 
     43 CB         -1.4898  -22.0771  -40.9066 C.3       6 UNK        -0.1800 
     44 N          -0.0478  -21.0163  -42.5713 N.am      6 UNK        -0.5000 
     45 C           1.0046  -20.3198  -43.0179 C.2       5 UNK         0.5000 
     46 O           1.6541  -19.5340  -42.3258 O.2       5 UNK        -0.5000 
     47 CA          1.3544  -20.5200  -44.4960 C.3       5 UNK         0.1400 
     48 CB          0.3636  -19.7550  -45.3795 C.3       5 UNK        -0.1800 
     49 N           2.6897  -20.0106  -44.7859 N.am      5 UNK        -0.5000 
     50 C           3.6159  -20.6366  -45.5191 C.2       4 UNK         0.5000 
     51 O           3.4694  -21.7652  -45.9905 O.2       4 UNK        -0.5000 
     52 CA          4.9287  -19.8757  -45.7897 C.3       4 UNK         0.1400 
     53 CB          4.8536  -19.1574  -47.1467 C.3       4 UNK        -0.1800 
     54 N           5.2679  -18.8935  -44.7599 N.am      4 UNK        -0.5000 
     55 C           5.6448  -19.1817  -43.5061 C.2       3 UNK         0.5000 
     56 O           5.7664  -20.3283  -43.0741 O.2       3 UNK        -0.5000 
     57 CA          5.9213  -17.9868  -42.5776 C.3       3 UNK         0.1400 
     58 CB          7.3628  -17.4820  -42.7498 C.3       3 UNK        -0.1800 
     59 N           4.9845  -16.8957  -42.8496 N.am      3 UNK        -0.5000 
     60 C           3.8622  -16.6736  -42.1517 C.2       2 UNK         0.5000 
     61 O           3.5818  -17.2729  -41.1135 O.2       2 UNK        -0.5000 
     62 CA          2.8931  -15.5895  -42.6676 C.3       2 UNK         0.1400 
     63 CB          2.8761  -14.3851  -41.7115 C.3       2 UNK        -0.1800 
     64 N           3.1976  -15.1066  -44.0151 N.am      2 UNK        -0.5000 
     65 C           2.9284  -15.7650  -45.1514 C.2       1 UNK         0.5000 
     66 O           2.4005  -16.8742  -45.1915 O.2       1 UNK        -0.5000 
     67 C          -2.7229  -19.5157  -48.7986 C.2       11 UNK         0.5000 
     68 O          -2.9067  -20.3784  -49.6558 O.2       11 UNK        -0.5000 
     69 N          -3.6770  -19.0928  -47.9623 N.am      12 UNK        -0.5000 
     70 CA         -5.0203  -19.6553  -47.8330 C.3       12 UNK         0.1400 
     71 CB         -5.9300  -18.5981  -47.1885 C.3       12 UNK        -0.1800 
     72 C          -5.0393  -20.9516  -46.9978 C.2       12 UNK         0.5000 
     73 O          -6.0199  -21.6931  -47.0556 O.2       12 UNK        -0.5000 
     74 N          -3.9699  -21.1937  -46.2294 N.am      13 UNK        -0.5000 
     75 CA         -3.7920  -22.3448  -45.3532 C.3       13 UNK         0.1400 
     76 CB         -4.2550  -21.9849  -43.9296 C.3       13 UNK        -0.1800 
     77 C          -2.3194  -22.7718  -45.4205 C.2       13 UNK         0.5000 
     78 O          -1.5506  -22.5029  -44.4947 O.2       13 UNK        -0.5000 
     79 N          -1.9480  -23.3821  -46.5500 N.am      14 UNK        -0.5000 
     80 CA         -0.6199  -23.9401  -46.8052 C.3       14 UNK         0.1400 
     81 CB          0.2232  -22.9529  -47.6294 C.3       14 UNK        -0.1800 
     82 C          -0.7614  -25.2843  -47.5303 C.2       14 UNK         0.5000 
     83 O          -0.2585  -26.2991  -47.0473 O.2       14 UNK        -0.5000 
     84 N          -1.4774  -25.2682  -48.6595 N.am      15 UNK        -0.5000 
     85 CA         -1.8100  -26.4217  -49.4850 C.3       15 UNK         0.1400 
     86 CB         -0.6264  -26.7728  -50.4039 C.3       15 UNK        -0.1800 
     87 C          -3.0464  -26.0534  -50.3114 C.2       15 UNK         0.5000 
     88 O          -3.2650  -24.8670  -50.5736 O.2       15 UNK        -0.5000 
     89 N          -3.8150  -27.0642  -50.7351 N.am      16 UNK        -0.5000 
     90 CA         -5.0493  -26.9032  -51.5119 C.3       16 UNK         0.1400 
     91 CB         -5.7072  -28.2763  -51.7141 C.3       16 UNK        -0.1800 
     92 C          -4.8385  -26.2004  -52.8661 C.2       16 UNK         0.5000 
     93 O          -5.6741  -25.3918  -53.2687 O.2       16 UNK        -0.5000 
     94 N          -3.7038  -26.4902  -53.5182 N.am      17 UNK        -0.5000 
     95 CA         -3.2917  -25.8826  -54.7848 C.3       17 UNK         0.1400 
     96 CB         -2.0727  -26.6399  -55.3328 C.3       17 UNK        -0.1800 
     97 C          -2.9842  -24.3779  -54.6645 C.2       17 UNK         0.5000 
     98 O          -3.2308  -23.6344  -55.6144 O.2       17 UNK        -0.5000 
     99 N          -2.4709  -23.9559  -53.5001 N.am      18 UNK        -0.5000 
    100 CA        -2.2464  -22.5506  -53.1692 C.3       18 UNK         0.1400 
    101 CB        -1.1889  -22.4336  -52.0597 C.3       18 UNK        -0.1800 
    102 C         -3.5624  -21.8779  -52.7537 C.2       18 UNK         0.5000 
    103 O         -3.8956  -20.8170  -53.2815 O.2       18 UNK        -0.5000 
    104 N         -4.3086  -22.5326  -51.8524 N.am      19 UNK        -0.5000 
    105 CA        -5.5637  -22.0465  -51.2778 C.3       19 UNK         0.1400 
    106 CB        -6.0399  -23.0272  -50.1986 C.3       19 UNK        -0.1800 
    107 C         -6.6746  -21.7975  -52.3128 C.2       19 UNK         0.5000 
    108 O         -7.4778  -20.8836  -52.1251 O.2       19 UNK        -0.5000 
    109 N         -6.6715  -22.5696  -53.4078 N.am      20 UNK        -0.5000 
    110 CA        -7.5576  -22.4003  -54.5611 C.3       20 UNK         0.1400 
    111 CB        -7.3043  -23.5432  -55.5563 C.3       20 UNK        -0.1800 
    112 C         -7.4216  -21.0350  -55.2690 C.2       20 UNK         0.5000 
    113 O         -8.3871  -20.5873  -55.8895 O.2       20 UNK        -0.5000 
    114 N         -6.2452  -20.4020  -55.1638 N.am      21 UNK        -0.5000 
    115 CA        -5.9591  -19.0796  -55.7160 C.3       21 UNK         0.1400 
    116 CB        -4.6459  -19.1456  -56.5130 C.3       21 UNK        -0.1800 
    117 C         -5.8598  -18.0169  -54.6090 C.2       21 UNK         0.5000 
    118 O         -6.4106  -16.9264  -54.7657 O.2       21 UNK        -0.5000 
    119 N         -5.1426  -18.3431  -53.5284 N.am      22 UNK        -0.5000 
    120 CA        -4.7301  -17.4076  -52.4706 C.3       22 UNK         0.1400 
    121 C         -5.6019  -17.4564  -51.1852 C.2       22 UNK         0.5000 
    122 N         -6.6096  -18.3121  -51.0771 N.am      22 UNK        -0.7600 
    123 O         -5.3754  -16.6741  -50.2679 O.2       22 UNK        -0.5000 
    124 C124       -3.2253  -17.5842  -52.1418 C.3       23 UNK        -0.0398 
    125 S125       -2.1683  -17.2030  -53.5818 S.3       23 UNK        -0.2404 
    126 C126       -1.4165  -15.6089  -53.0909 C.3       23 UNK        -0.0205 
    127 H127        7.8492  -14.5397  -46.5613 H         1 UNK         0.0600 
    128 H128        7.5091  -14.1417  -44.8739 H         1 UNK         0.0600 
    129 H129        6.8862  -13.1120  -46.1676 H         1 UNK         0.0600 
    130 H130        4.7128  -13.4436  -46.5696 H         1 UNK         0.3000 
    131 H131        3.5511  -15.8929  -47.1874 H         1 UNK         0.0600 
    132 H132        1.4001  -14.7057  -47.2230 H         1 UNK         0.0800 
    133 H133        2.0386  -13.3864  -46.2777 H         1 UNK         0.0800 
    134 H134        0.4782  -12.9981  -48.9551 H         1 UNK         0.0800 
    135 H135        1.4457  -12.4829  -50.3062 H         1 UNK         0.0800 
    136 H136       -0.5201  -13.6317  -51.4810 H         1 UNK         0.1150 
    137 H137        0.1694  -17.7729  -52.3536 H         1 UNK         0.1150 
    138 H138        2.4719  -15.8437  -49.3367 H         1 UNK         0.1150 
    139 H139        2.0310  -18.9157  -51.3767 H         1 UNK         0.0800 
    140 H140        3.1657  -18.0393  -50.3808 H         1 UNK         0.0800 
    141 H141       -0.3001  -20.5934  -49.5057 H         1 UNK         0.0800 
    142 H142       -0.4374  -19.2328  -50.5751 H         1 UNK         0.0800 
    143 H143       -1.0528  -19.1640  -47.5909 H         1 UNK         0.0600 
    144 H144       -0.9197  -16.9966  -49.4657 H         1 UNK         0.3000 
    145 H145       -0.7211  -14.8583  -48.2034 H         1 UNK         0.0600 
    146 H146       -3.7548  -14.9084  -48.7592 H         1 UNK         0.0600 
    147 H147       -2.6604  -13.6126  -49.2382 H         1 UNK         0.0600 
    148 H148       -2.5092  -15.1919  -49.9652 H         1 UNK         0.0600 
    149 H149       -2.4222  -15.0398  -45.9509 H         1 UNK         0.3000 
    150 H150       -1.9981  -11.6538  -44.8729 H         1 UNK         0.0600 
    151 H151       -4.5543  -13.2730  -45.3553 H         1 UNK         0.0600 
    152 H152       -4.2300  -11.6645  -45.9896 H         1 UNK         0.0600 
    153 H153       -4.3796  -11.9039  -44.2563 H         1 UNK         0.0600 
    154 H154       -3.0171  -13.9689  -43.5438 H         1 UNK         0.3000 
    155 H155        0.0338  -14.9066  -42.0044 H         1 UNK         0.0600 
    156 H156       -2.2173  -13.1611  -40.8914 H         1 UNK         0.0600 
    157 H157       -0.5023  -12.7690  -40.8559 H         1 UNK         0.0600 
    158 H158       -1.0996  -14.1482  -39.9484 H         1 UNK         0.0600 
    159 H159       -2.7204  -15.5135  -41.4599 H         1 UNK         0.3000 
    160 H160       -3.3439  -17.6454  -41.6066 H         1 UNK         0.0600 
    161 H161       -4.5321  -18.7043  -43.4692 H         1 UNK         0.0600 
    162 H162       -3.2201  -18.3491  -44.5863 H         1 UNK         0.0600 
    163 H163       -4.1944  -17.0411  -43.9252 H         1 UNK         0.0600 
    164 H164       -1.8449  -19.6546  -43.1606 H         1 UNK         0.3000 
    165 H165        0.1450  -20.7478  -40.5072 H         1 UNK         0.0600 
    166 H166       -1.9399  -21.9834  -39.9175 H         1 UNK         0.0600 
    167 H167       -2.2975  -22.2277  -41.6228 H         1 UNK         0.0600 
    168 H168       -0.8760  -22.9779  -40.9010 H         1 UNK         0.0600 
    169 H169       -0.5364  -21.6395  -43.2127 H         1 UNK         0.3000 
    170 H170        1.2909  -21.5875  -44.7179 H         1 UNK         0.0600 
    171 H171       -0.6534  -20.1295  -45.2740 H         1 UNK         0.0600 
    172 H172        0.3499  -18.6901  -45.1460 H         1 UNK         0.0600 
    173 H173        0.6524  -19.8550  -46.4214 H         1 UNK         0.0600 
    174 H174        2.8869  -19.0864  -44.4227 H         1 UNK         0.3000 
    175 H175        5.7344  -20.6111  -45.8344 H         1 UNK         0.0600 
    176 H176        5.7965  -18.6667  -47.3885 H         1 UNK         0.0600 
    177 H177        4.6350  -19.8605  -47.9515 H         1 UNK         0.0600 
    178 H178        4.0695  -18.3990  -47.1540 H         1 UNK         0.0600 
    179 H179        5.2692  -17.9217  -45.0538 H         1 UNK         0.3000 
    180 H180        5.8129  -18.3329  -41.5476 H         1 UNK         0.0600 
    181 H181        7.5623  -17.1522  -43.7695 H         1 UNK         0.0600 
    182 H182        8.0799  -18.2698  -42.5157 H         1 UNK         0.0600 
    183 H183        7.5688  -16.6459  -42.0815 H         1 UNK         0.0600 
    184 H184        5.1451  -16.3702  -43.7003 H         1 UNK         0.3000 
    185 H185        1.8986  -16.0392  -42.6839 H         1 UNK         0.0600 
    186 H186        2.5689  -14.6854  -40.7089 H         1 UNK         0.0600 
    187 H187        3.8614  -13.9247  -41.6291 H         1 UNK         0.0600 
    188 H188        2.1770  -13.6195  -42.0479 H         1 UNK         0.0600 
    189 H189        3.6620  -14.2123  -44.0783 H         1 UNK         0.3000 
    190 H190       -3.4283  -18.3474  -47.3154 H         1 UNK         0.3000 
    191 H191       -5.4074  -19.8858  -48.8261 H         1 UNK         0.0600 
    192 H192       -5.5954  -18.3379  -46.1835 H         1 UNK         0.0600 
    193 H193       -5.9519  -17.6825  -47.7794 H         1 UNK         0.0600 
    194 H194       -6.9563  -18.9592  -47.1111 H         1 UNK         0.0600 
    195 H195       -3.2016  -20.5408  -46.2623 H         1 UNK         0.3000 
    196 H196       -4.3920  -23.1862  -45.7066 H         1 UNK         0.0600 
    197 H197       -4.1178  -22.8273  -43.2509 H         1 UNK         0.0600 
    198 H198       -5.3135  -21.7249  -43.9149 H         1 UNK         0.0600 
    199 H199       -3.7001  -21.1393  -43.5248 H         1 UNK         0.0600 
    200 H200       -2.6541  -23.5725  -47.2462 H         1 UNK         0.3000 
    201 H201       -0.1067  -24.1300  -45.8597 H         1 UNK         0.0600 
    202 H202        1.2209  -23.3525  -47.8157 H         1 UNK         0.0600 
    203 H203       -0.2321  -22.7395  -48.5962 H         1 UNK         0.0600 
    204 H204        0.3487  -22.0097  -47.1037 H         1 UNK         0.0600 
    205 H205       -1.8749  -24.4045  -49.0056 H         1 UNK         0.3000 
    206 H206       -2.0533  -27.2722  -48.8447 H         1 UNK         0.0600 
    207 H207        0.2575  -27.0420  -49.8254 H         1 UNK         0.0600 
    208 H208       -0.8639  -27.6230  -51.0443 H         1 UNK         0.0600 
    209 H209       -0.3590  -25.9363  -51.0511 H         1 UNK         0.0600 
    210 H210       -3.5616  -28.0100  -50.4875 H         1 UNK         0.3000 
    211 H211       -5.7310  -26.2864  -50.9241 H         1 UNK         0.0600 
    212 H212       -5.0585  -28.9575  -52.2662 H         1 UNK         0.0600 
    213 H213       -6.6390  -28.1840  -52.2739 H         1 UNK         0.0600 
    214 H214       -5.9492  -28.7425  -50.7588 H         1 UNK         0.0600 
    215 H215       -3.0749  -27.1657  -53.1100 H         1 UNK         0.3000 
    216 H216       -4.1133  -25.9953  -55.4955 H         1 UNK         0.0600 
    217 H217       -1.7530  -26.2246  -56.2895 H         1 UNK         0.0600 
    218 H218       -2.3034  -27.6924  -55.4980 H         1 UNK         0.0600 
    219 H219       -1.2235  -26.5843  -54.6505 H         1 UNK         0.0600 
    220 H220       -2.3522  -24.6233  -52.7517 H         1 UNK         0.3000 
    221 H221       -1.8643  -22.0322  -54.0514 H         1 UNK         0.0600 
    222 H222       -1.5136  -22.9020  -51.1305 H         1 UNK         0.0600 
    223 H223       -0.2489  -22.8971  -52.3589 H         1 UNK         0.0600 
    224 H224       -0.9802  -21.3863  -51.8402 H         1 UNK         0.0600 
    225 H225       -3.9474  -23.3997  -51.4630 H         1 UNK         0.3000 
    226 H226       -5.3458  -21.0897  -50.8021 H         1 UNK         0.0600 
    227 H227       -6.9356  -22.6547  -49.7000 H         1 UNK         0.0600 
    228 H228       -6.2795  -24.0019  -50.6227 H         1 UNK         0.0600 
    229 H229       -5.2780  -23.1714  -49.4323 H         1 UNK         0.0600 
    230 H230       -6.0211  -23.3471  -53.4472 H         1 UNK         0.3000 
    231 H231       -8.5856  -22.4793  -54.2020 H         1 UNK         0.0600 
    232 H232       -6.2674  -23.5568  -55.8951 H         1 UNK         0.0600 
    233 H233       -7.9388  -23.4456  -56.4381 H         1 UNK         0.0600 
    234 H234       -7.5230  -24.5121  -55.1074 H         1 UNK         0.0600 
    235 H235       -5.5120  -20.8262  -54.6076 H         1 UNK         0.3000 
    236 H236       -6.7493  -18.7688  -56.4026 H         1 UNK         0.0600 
    237 H237       -4.7251  -19.8482  -57.3426 H         1 UNK         0.0600 
    238 H238       -4.3945  -18.1711  -56.9336 H         1 UNK         0.0600 
    239 H239       -3.8083  -19.4595  -55.8883 H         1 UNK         0.0600 
    240 H240       -4.7114  -19.2644  -53.4793 H         1 UNK         0.3000 
    241 H241       -4.8511  -16.3879  -52.8410 H         1 UNK         0.0600 
    242 H242       -7.1755  -18.2904  -50.2454 H         1 UNK         0.3800 
    243 H243       -6.8256  -18.9850  -51.8026 H         1 UNK         0.3800 
    244 H244       -3.0238  -18.6098  -51.8294 H         1 UNK         0.0800 
    245 H245       -2.9265  -16.9536  -51.3060 H         1 UNK         0.0800 
    246 H246       -2.2093  -14.9383  -52.7553 H         1 UNK         0.0800 
    247 H247       -0.9828  -15.1508  -53.9805 H         1 UNK         0.0800 
@<TRIPOS>BOND
     1    1    2 1    
     2    1  127 1    
     3    1  128 1    
     4    1  129 1    
     5    2    3 2    
     6    2    4 am   BACKBONE|DICT|INTERRES
     7    4    5 1    
     8    4  130 1    
     9    5    6 1    
    10    5   65 1    
    11    5  131 1    
    12    6    7 1    
    13    6  132 1    
    14    6  133 1    
    15    7    8 1    
    16    8    9 1    
    17    8  134 1    
    18    8  135 1    
    19    9   10 ar   
    20    9   14 ar   
    21   10   11 ar   
    22   10  136 1    
    23   11   12 ar   
    24   11  126 1    
    25   12   13 ar   
    26   12  137 1    
    27   13   14 ar   
    28   13   15 1    
    29   14  138 1    
    30   15   16 1    
    31   15  139 1    
    32   15  140 1    
    33   16   17 1    
    34   17   18 1    
    35   17  141 1    
    36   17  142 1    
    37   18   19 1    
    38   18   67 1    
    39   18  143 1    
    40   19   20 am   BACKBONE|DICT|INTERRES
    41   19  144 1    
    42   20   21 2    
    43   20   22 1    
    44   22   23 1    
    45   22   24 1    
    46   22  145 1    
    47   23  146 1    
    48   23  147 1    
    49   23  148 1    
    50   24   25 am   BACKBONE|DICT|INTERRES
    51   24  149 1    
    52   25   26 2    
    53   25   27 1    
    54   27   28 1    
    55   27   29 1    
    56   27  150 1    
    57   28  151 1    
    58   28  152 1    
    59   28  153 1    
    60   29   30 am   BACKBONE|DICT|INTERRES
    61   29  154 1    
    62   30   31 2    
    63   30   32 1    
    64   32   33 1    
    65   32   34 1    
    66   32  155 1    
    67   33  156 1    
    68   33  157 1    
    69   33  158 1    
    70   34   35 am   BACKBONE|DICT|INTERRES
    71   34  159 1    
    72   35   36 2    
    73   35   37 1    
    74   37   38 1    
    75   37   39 1    
    76   37  160 1    
    77   38  161 1    
    78   38  162 1    
    79   38  163 1    
    80   39   40 am   BACKBONE|DICT|INTERRES
    81   39  164 1    
    82   40   41 2    
    83   40   42 1    
    84   42   43 1    
    85   42   44 1    
    86   42  165 1    
    87   43  166 1    
    88   43  167 1    
    89   43  168 1    
    90   44   45 am   BACKBONE|DICT|INTERRES
    91   44  169 1    
    92   45   46 2    
    93   45   47 1    
    94   47   48 1    
    95   47   49 1    
    96   47  170 1    
    97   48  171 1    
    98   48  172 1    
    99   48  173 1    
   100   49   50 am   BACKBONE|DICT|INTERRES
   101   49  174 1    
   102   50   51 2    
   103   50   52 1    
   104   52   53 1    
   105   52   54 1    
   106   52  175 1    
   107   53  176 1    
   108   53  177 1    
   109   53  178 1    
   110   54   55 am   BACKBONE|DICT|INTERRES
   111   54  179 1    
   112   55   56 2    
   113   55   57 1    
   114   57   58 1    
   115   57   59 1    
   116   57  180 1    
   117   58  181 1    
   118   58  182 1    
   119   58  183 1    
   120   59   60 am   BACKBONE|DICT|INTERRES
   121   59  184 1    
   122   60   61 2    
   123   60   62 1    
   124   62   63 1    
   125   62   64 1    
   126   62  185 1    
   127   63  186 1    
   128   63  187 1    
   129   63  188 1    
   130   64   65 am   BACKBONE|DICT|INTERRES
   131   64  189 1    
   132   65   66 2    
   133   67   68 2    
   134   67   69 am   BACKBONE|DICT|INTERRES
   135   69   70 1    
   136   69  190 1    
   137   70   71 1    
   138   70   72 1    
   139   70  191 1    
   140   71  192 1    
   141   71  193 1    
   142   71  194 1    
   143   72   73 2    
   144   72   74 am   BACKBONE|DICT|INTERRES
   145   74   75 1    
   146   74  195 1    
   147   75   76 1    
   148   75   77 1    
   149   75  196 1    
   150   76  197 1    
   151   76  198 1    
   152   76  199 1    
   153   77   78 2    
   154   77   79 am   BACKBONE|DICT|INTERRES
   155   79   80 1    
   156   79  200 1    
   157   80   81 1    
   158   80   82 1    
   159   80  201 1    
   160   81  202 1    
   161   81  203 1    
   162   81  204 1    
   163   82   83 2    
   164   82   84 am   BACKBONE|DICT|INTERRES
   165   84   85 1    
   166   84  205 1    
   167   85   86 1    
   168   85   87 1    
   169   85  206 1    
   170   86  207 1    
   171   86  208 1    
   172   86  209 1    
   173   87   88 2    
   174   87   89 am   BACKBONE|DICT|INTERRES
   175   89   90 1    
   176   89  210 1    
   177   90   91 1    
   178   90   92 1    
   179   90  211 1    
   180   91  212 1    
   181   91  213 1    
   182   91  214 1    
   183   92   93 2    
   184   92   94 am   BACKBONE|DICT|INTERRES
   185   94   95 1    
   186   94  215 1    
   187   95   96 1    
   188   95   97 1    
   189   95  216 1    
   190   96  217 1    
   191   96  218 1    
   192   96  219 1    
   193   97   98 2    
   194   97   99 am   BACKBONE|DICT|INTERRES
   195   99  100 1    
   196   99  220 1    
   197  100  101 1    
   198  100  102 1    
   199  100  221 1    
   200  101  222 1    
   201  101  223 1    
   202  101  224 1    
   203  102  103 2    
   204  102  104 am   BACKBONE|DICT|INTERRES
   205  104  105 1    
   206  104  225 1    
   207  105  106 1    
   208  105  107 1    
   209  105  226 1    
   210  106  227 1    
   211  106  228 1    
   212  106  229 1    
   213  107  108 2    
   214  107  109 am   BACKBONE|DICT|INTERRES
   215  109  110 1    
   216  109  230 1    
   217  110  111 1    
   218  110  112 1    
   219  110  231 1    
   220  111  232 1    
   221  111  233 1    
   222  111  234 1    
   223  112  113 2    
   224  112  114 am   BACKBONE|DICT|INTERRES
   225  114  115 1    
   226  114  235 1    
   227  115  116 1    
   228  115  117 1    
   229  115  236 1    
   230  116  237 1    
   231  116  238 1    
   232  116  239 1    
   233  117  118 2    
   234  117  119 am   BACKBONE|DICT|INTERRES
   235  119  120 1    
   236  119  240 1    
   237  120  121 1    
   238  120  124 1    
   239  120  241 1    
   240  121  122 am   BACKBONE|DICT|INTERRES
   241  121  123 2    
   242  122  242 1    
   243  122  243 1    
   244  124  125 1    
   245  124  244 1    
   246  124  245 1    
   247  125  126 1    
   248  126  246 1    
   249  126  247 1    
@<TRIPOS>SUBSTRUCTURE
     1 UNK         1 GROUP             0       ****    0 ROOT    
