@<TRIPOS>MOLECULE
3R540
247   249    1
SMALL
USER_CHARGES


@<TRIPOS>ATOM
      1 CA          3.5694  -16.6675  -47.1129 C.3       0 UNK        -0.1800 
      2 C           2.4349  -15.6547  -47.1586 C.2       0 UNK         0.5000 
      3 O           1.9786  -15.1986  -46.1125 O.2       0 UNK        -0.5000 
      4 N           1.9885  -15.2885  -48.3668 N.am      1 UNK        -0.5000 
      5 CA          0.8051  -14.4533  -48.6402 C.3       1 UNK         0.1400 
      6 C6          0.3900  -14.5075  -50.1314 C.3       23 UNK        -0.0398 
      7 S7          0.1190  -16.2164  -50.7042 S.3       23 UNK        -0.2404 
      8 C8          1.5286  -16.4312  -51.8315 C.3       23 UNK        -0.0205 
      9 C9          1.7553  -17.9003  -52.1381 C.ar      23 UNK        -0.0193 
     10 C10         1.4589  -18.4231  -53.4002 C.ar      23 UNK        -0.1150 
     11 C11         1.6886  -19.7743  -53.6736 C.ar      23 UNK        -0.0193 
     12 C12         2.2033  -20.5996  -52.6691 C.ar      23 UNK        -0.1150 
     13 C13         2.4967  -20.0952  -51.3980 C.ar      23 UNK        -0.0193 
     14 C14         2.2802  -18.7354  -51.1479 C.ar      23 UNK        -0.1150 
     15 C15         3.0730  -21.0492  -50.3485 C.3       23 UNK        -0.0205 
     16 S16         2.9832  -20.4909  -48.6092 S.3       23 UNK        -0.2404 
     17 C17         1.2042  -20.6774  -48.2410 C.3       23 UNK        -0.0398 
     18 CA          0.8311  -22.0918  -47.7271 C.3       11 UNK         0.1400 
     19 N           1.6634  -22.5226  -46.5992 N.am      11 UNK        -0.5000 
     20 C           1.6863  -23.7683  -46.1063 C.2       10 UNK         0.5000 
     21 O           0.9933  -24.6890  -46.5365 O.2       10 UNK        -0.5000 
     22 CA          2.6073  -24.0251  -44.9011 C.3       10 UNK         0.1400 
     23 CB          4.0278  -24.3633  -45.3768 C.3       10 UNK        -0.1800 
     24 N           2.6716  -22.9200  -43.9428 N.am      10 UNK        -0.5000 
     25 C           1.6286  -22.3409  -43.3319 C.2       9 UNK         0.5000 
     26 O           0.4526  -22.6287  -43.5605 O.2       9 UNK        -0.5000 
     27 CA          1.9386  -21.2597  -42.2815 C.3       9 UNK         0.1400 
     28 CB          3.4378  -21.1138  -41.9345 C.3       9 UNK        -0.1800 
     29 N           1.3734  -19.9607  -42.6438 N.am      9 UNK        -0.5000 
     30 C           1.6489  -19.2161  -43.7265 C.2       8 UNK         0.5000 
     31 O           2.3526  -19.6070  -44.6591 O.2       8 UNK        -0.5000 
     32 CA          1.0514  -17.7900  -43.7843 C.3       8 UNK         0.1400 
     33 CB          0.0767  -17.6533  -44.9646 C.3       8 UNK        -0.1800 
     34 N           0.3618  -17.3728  -42.5590 N.am      8 UNK        -0.5000 
     35 C           0.9282  -17.1466  -41.3647 C.2       7 UNK         0.5000 
     36 O           2.1441  -17.1449  -41.1738 O.2       7 UNK        -0.5000 
     37 CA         -0.0292  -16.9622  -40.1679 C.3       7 UNK         0.1400 
     38 CB         -0.2832  -15.4750  -39.8813 C.3       7 UNK        -0.1800 
     39 N          -1.3128  -17.6514  -40.3426 N.am      7 UNK        -0.5000 
     40 C          -1.4773  -18.9788  -40.4309 C.2       6 UNK         0.5000 
     41 O          -0.5468  -19.7782  -40.3303 O.2       6 UNK        -0.5000 
     42 CA         -2.8915  -19.5138  -40.7429 C.3       6 UNK         0.1400 
     43 CB         -3.7020  -19.7511  -39.4546 C.3       6 UNK        -0.1800 
     44 N          -3.6326  -18.7082  -41.7261 N.am      6 UNK        -0.5000 
     45 C          -4.1307  -17.4731  -41.5869 C.2       5 UNK         0.5000 
     46 O          -4.1235  -16.8388  -40.5292 O.2       5 UNK        -0.5000 
     47 CA         -4.6714  -16.8099  -42.8697 C.3       5 UNK         0.1400 
     48 CB         -6.2031  -16.9053  -42.9247 C.3       5 UNK        -0.1800 
     49 N          -4.2704  -15.4033  -42.9628 N.am      5 UNK        -0.5000 
     50 C          -3.0029  -14.9668  -42.9405 C.2       4 UNK         0.5000 
     51 O          -2.0285  -15.7239  -42.9475 O.2       4 UNK        -0.5000 
     52 CA         -2.8123  -13.4372  -42.8471 C.3       4 UNK         0.1400 
     53 CB         -3.4221  -12.8891  -41.5444 C.3       4 UNK        -0.1800 
     54 N          -1.4049  -13.0371  -42.8870 N.am      4 UNK        -0.5000 
     55 C          -0.6192  -13.0770  -43.9687 C.2       3 UNK         0.5000 
     56 O          -1.0167  -13.3944  -45.0929 O.2       3 UNK        -0.5000 
     57 CA          0.8547  -12.6975  -43.7312 C.3       3 UNK         0.1400 
     58 CB          1.5867  -13.8083  -42.9618 C.3       3 UNK        -0.1800 
     59 N           1.5421  -12.4881  -45.0009 N.am      3 UNK        -0.5000 
     60 C           1.7205  -11.3018  -45.5974 C.2       2 UNK         0.5000 
     61 O           1.4108  -10.2251  -45.0850 O.2       2 UNK        -0.5000 
     62 CA          2.3460  -11.3127  -47.0090 C.3       2 UNK         0.1400 
     63 CB          3.8583  -11.0529  -46.9312 C.3       2 UNK        -0.1800 
     64 N           2.1170  -12.5733  -47.7157 N.am      2 UNK        -0.5000 
     65 C           0.9241  -12.9864  -48.1655 C.2       1 UNK         0.5000 
     66 O          -0.0686  -12.2582  -48.2057 O.2       1 UNK        -0.5000 
     67 C          -0.6698  -22.1789  -47.3774 C.2       11 UNK         0.5000 
     68 O          -1.4586  -22.6957  -48.1696 O.2       11 UNK        -0.5000 
     69 N          -1.0299  -21.7219  -46.1690 N.am      12 UNK        -0.5000 
     70 CA         -2.3883  -21.8072  -45.6347 C.3       12 UNK         0.1400 
     71 CB         -2.5392  -20.8647  -44.4303 C.3       12 UNK        -0.1800 
     72 C          -2.7752  -23.2466  -45.2573 C.2       12 UNK         0.5000 
     73 O          -3.8886  -23.6702  -45.5657 O.2       12 UNK        -0.5000 
     74 N          -1.8464  -23.9763  -44.6233 N.am      13 UNK        -0.5000 
     75 CA         -2.0284  -25.3600  -44.1779 C.3       13 UNK         0.1400 
     76 CB         -0.8201  -25.7886  -43.3327 C.3       13 UNK        -0.1800 
     77 C          -2.2605  -26.3485  -45.3358 C.2       13 UNK         0.5000 
     78 O          -3.1129  -27.2297  -45.2195 O.2       13 UNK        -0.5000 
     79 N          -1.5221  -26.1690  -46.4392 N.am      14 UNK        -0.5000 
     80 CA         -1.6718  -26.9482  -47.6698 C.3       14 UNK         0.1400 
     81 CB         -0.3720  -26.8417  -48.4834 C.3       14 UNK        -0.1800 
     82 C          -2.8688  -26.5023  -48.5329 C.2       14 UNK         0.5000 
     83 O          -3.2343  -27.2266  -49.4596 O.2       14 UNK        -0.5000 
     84 N          -3.4275  -25.3162  -48.2415 N.am      15 UNK        -0.5000 
     85 CA         -4.4300  -24.5867  -49.0279 C.3       15 UNK         0.1400 
     86 CB         -5.7860  -25.3216  -49.0215 C.3       15 UNK        -0.1800 
     87 C          -3.9150  -24.2591  -50.4463 C.2       15 UNK         0.5000 
     88 O          -4.6480  -24.3837  -51.4284 O.2       15 UNK        -0.5000 
     89 N          -2.6408  -23.8631  -50.5117 N.am      16 UNK        -0.5000 
     90 CA         -1.8940  -23.5408  -51.7160 C.3       16 UNK         0.1400 
     91 CB         -0.8412  -24.6356  -51.9646 C.3       16 UNK        -0.1800 
     92 C          -1.2757  -22.1612  -51.4806 C.2       16 UNK         0.5000 
     93 O          -0.1190  -22.0641  -51.0760 O.2       16 UNK        -0.5000 
     94 N          -2.1010  -21.1291  -51.6603 N.am      17 UNK        -0.5000 
     95 CA         -1.7763  -19.7250  -51.4474 C.3       17 UNK         0.1400 
     96 CB         -2.1900  -19.3280  -50.0185 C.3       17 UNK        -0.1800 
     97 C          -2.5272  -18.8916  -52.4949 C.2       17 UNK         0.5000 
     98 O          -3.3757  -19.4305  -53.2159 O.2       17 UNK        -0.5000 
     99 N          -2.2120  -17.5923  -52.5628 N.am      18 UNK        -0.5000 
    100 CA        -2.8522  -16.6090  -53.4388 C.3       18 UNK         0.1400 
    101 CB        -2.2058  -15.2323  -53.2276 C.3       18 UNK        -0.1800 
    102 C         -4.3722  -16.5395  -53.2111 C.2       18 UNK         0.5000 
    103 O         -4.8093  -16.4008  -52.0675 O.2       18 UNK        -0.5000 
    104 N         -5.1359  -16.6923  -54.2993 N.am      19 UNK        -0.5000 
    105 CA        -6.5998  -16.7647  -54.3946 C.3       19 UNK         0.1400 
    106 CB        -7.2789  -15.5220  -53.7861 C.3       19 UNK        -0.1800 
    107 C         -7.2158  -18.0713  -53.8509 C.2       19 UNK         0.5000 
    108 O         -8.3060  -18.4379  -54.2916 O.2       19 UNK        -0.5000 
    109 N         -6.5196  -18.7728  -52.9450 N.am      20 UNK        -0.5000 
    110 CA        -6.8879  -20.1053  -52.4625 C.3       20 UNK         0.1400 
    111 CB        -6.0999  -20.4319  -51.1836 C.3       20 UNK        -0.1800 
    112 C         -6.6578  -21.1823  -53.5385 C.2       20 UNK         0.5000 
    113 O         -7.4722  -22.0974  -53.6660 O.2       20 UNK        -0.5000 
    114 N         -5.5753  -21.0280  -54.3110 N.am      21 UNK        -0.5000 
    115 CA        -5.2407  -21.8647  -55.4613 C.3       21 UNK         0.1400 
    116 CB        -4.5795  -23.1761  -55.0025 C.3       21 UNK        -0.1800 
    117 C         -4.3286  -21.1198  -56.4466 C.2       21 UNK         0.5000 
    118 O         -4.5078  -21.2603  -57.6571 O.2       21 UNK        -0.5000 
    119 N         -3.3626  -20.3564  -55.9214 N.am      22 UNK        -0.5000 
    120 CA        -2.3798  -19.5985  -56.7071 C.3       22 UNK         0.1400 
    121 C         -2.9731  -18.2759  -57.2658 C.2       22 UNK         0.5000 
    122 N         -2.4816  -17.8016  -58.4017 N.am      22 UNK        -0.7600 
    123 O         -3.8445  -17.6523  -56.6622 O.2       22 UNK        -0.5000 
    124 C124       -1.0851  -19.3263  -55.8973 C.3       23 UNK        -0.0398 
    125 S125       -0.3159  -20.8578  -55.2637 S.3       23 UNK        -0.2404 
    126 C126        1.4182  -20.3447  -55.0585 C.3       23 UNK        -0.0205 
    127 H127        3.8777  -16.9782  -48.1115 H         1 UNK         0.0600 
    128 H128        3.2538  -17.5560  -46.5654 H         1 UNK         0.0600 
    129 H129        4.4339  -16.2414  -46.6042 H         1 UNK         0.0600 
    130 H130        2.4199  -15.6920  -49.1844 H         1 UNK         0.3000 
    131 H131       -0.0144  -14.8818  -48.0585 H         1 UNK         0.0600 
    132 H132       -0.5427  -13.9625  -50.2882 H         1 UNK         0.0800 
    133 H133        1.1354  -14.0165  -50.7595 H         1 UNK         0.0800 
    134 H134        1.3494  -15.8639  -52.7461 H         1 UNK         0.0800 
    135 H135        2.4342  -16.0203  -51.3836 H         1 UNK         0.0800 
    136 H136        1.0611  -17.7793  -54.1718 H         1 UNK         0.1150 
    137 H137        2.3744  -21.6466  -52.8769 H         1 UNK         0.1150 
    138 H138        2.5120  -18.3138  -50.1812 H         1 UNK         0.1150 
    139 H139        2.5769  -22.0180  -50.4247 H         1 UNK         0.0800 
    140 H140        4.1215  -21.2224  -50.5929 H         1 UNK         0.0800 
    141 H141        0.6337  -20.4291  -49.1366 H         1 UNK         0.0800 
    142 H142        0.9457  -19.9212  -47.4979 H         1 UNK         0.0800 
    143 H143        1.0071  -22.7949  -48.5442 H         1 UNK         0.0600 
    144 H144        2.2521  -21.8175  -46.1763 H         1 UNK         0.3000 
    145 H145        2.2157  -24.8923  -44.3677 H         1 UNK         0.0600 
    146 H146        4.6669  -24.6504  -44.5417 H         1 UNK         0.0600 
    147 H147        4.0165  -25.1994  -46.0775 H         1 UNK         0.0600 
    148 H148        4.4946  -23.5172  -45.8830 H         1 UNK         0.0600 
    149 H149        3.5960  -22.5922  -43.7044 H         1 UNK         0.3000 
    150 H150        1.4229  -21.5719  -41.3724 H         1 UNK         0.0600 
    151 H151        3.8549  -22.0559  -41.5765 H         1 UNK         0.0600 
    152 H152        3.5793  -20.3817  -41.1391 H         1 UNK         0.0600 
    153 H153        4.0313  -20.7856  -42.7886 H         1 UNK         0.0600 
    154 H154        0.7362  -19.5793  -41.9547 H         1 UNK         0.3000 
    155 H155        1.8858  -17.1066  -43.9512 H         1 UNK         0.0600 
    156 H156       -0.7997  -18.2855  -44.8366 H         1 UNK         0.0600 
    157 H157       -0.2665  -16.6234  -45.0705 H         1 UNK         0.0600 
    158 H158        0.5525  -17.9315  -45.9056 H         1 UNK         0.0600 
    159 H159       -0.6380  -17.2209  -42.6369 H         1 UNK         0.3000 
    160 H160        0.4599  -17.3950  -39.2928 H         1 UNK         0.0600 
    161 H161       -0.9061  -15.3449  -38.9962 H         1 UNK         0.0600 
    162 H162       -0.7815  -14.9828  -40.7152 H         1 UNK         0.0600 
    163 H163        0.6539  -14.9477  -39.6990 H         1 UNK         0.0600 
    164 H164       -2.1396  -17.0702  -40.4336 H         1 UNK         0.3000 
    165 H165       -2.7521  -20.4875  -41.2157 H         1 UNK         0.0600 
    166 H166       -4.6897  -20.1540  -39.6782 H         1 UNK         0.0600 
    167 H167       -3.1964  -20.4695  -38.8083 H         1 UNK         0.0600 
    168 H168       -3.8343  -18.8365  -38.8763 H         1 UNK         0.0600 
    169 H169       -3.6859  -19.1227  -42.6449 H         1 UNK         0.3000 
    170 H170       -4.2582  -17.3277  -43.7378 H         1 UNK         0.0600 
    171 H171       -6.5317  -17.9446  -42.8816 H         1 UNK         0.0600 
    172 H172       -6.6687  -16.3791  -42.0903 H         1 UNK         0.0600 
    173 H173       -6.5929  -16.4805  -43.8500 H         1 UNK         0.0600 
    174 H174       -5.0175  -14.7259  -42.9274 H         1 UNK         0.3000 
    175 H175       -3.3262  -12.9815  -43.6960 H         1 UNK         0.0600 
    176 H176       -3.2817  -11.8108  -41.4658 H         1 UNK         0.0600 
    177 H177       -2.9709  -13.3511  -40.6651 H         1 UNK         0.0600 
    178 H178       -4.4957  -13.0738  -41.4955 H         1 UNK         0.0600 
    179 H179       -0.9937  -12.7863  -42.0006 H         1 UNK         0.3000 
    180 H180        0.8859  -11.7841  -43.1336 H         1 UNK         0.0600 
    181 H181        1.5110  -14.7662  -43.4758 H         1 UNK         0.0600 
    182 H182        1.1690  -13.9380  -41.9642 H         1 UNK         0.0600 
    183 H183        2.6448  -13.5764  -42.8409 H         1 UNK         0.0600 
    184 H184        1.7531  -13.3368  -45.5184 H         1 UNK         0.3000 
    185 H185        1.8875  -10.5049  -47.5833 H         1 UNK         0.0600 
    186 H186        4.3731  -11.8372  -46.3748 H         1 UNK         0.0600 
    187 H187        4.3014  -10.9991  -47.9257 H         1 UNK         0.0600 
    188 H188        4.0661  -10.1056  -46.4319 H         1 UNK         0.0600 
    189 H189        2.8778  -13.2367  -47.7215 H         1 UNK         0.3000 
    190 H190       -0.3104  -21.4051  -45.5346 H         1 UNK         0.3000 
    191 H191       -3.0833  -21.4738  -46.4087 H         1 UNK         0.0600 
    192 H192       -2.4701  -19.8238  -44.7412 H         1 UNK         0.0600 
    193 H193       -3.5130  -20.9937  -43.9560 H         1 UNK         0.0600 
    194 H194       -1.7768  -21.0457  -43.6717 H         1 UNK         0.0600 
    195 H195       -0.9673  -23.5296  -44.3723 H         1 UNK         0.3000 
    196 H196       -2.9137  -25.3851  -43.5393 H         1 UNK         0.0600 
    197 H197       -0.9595  -26.7944  -42.9346 H         1 UNK         0.0600 
    198 H198       -0.6723  -25.1195  -42.4848 H         1 UNK         0.0600 
    199 H199        0.0970  -25.7934  -43.9208 H         1 UNK         0.0600 
    200 H200       -0.7932  -25.4601  -46.4399 H         1 UNK         0.3000 
    201 H201       -1.8250  -27.9972  -47.4082 H         1 UNK         0.0600 
    202 H202        0.4842  -27.1945  -47.9082 H         1 UNK         0.0600 
    203 H203       -0.1724  -25.8122  -48.7844 H         1 UNK         0.0600 
    204 H204       -0.4246  -27.4442  -49.3911 H         1 UNK         0.0600 
    205 H205       -3.0598  -24.8138  -47.4447 H         1 UNK         0.3000 
    206 H206       -4.5718  -23.6285  -48.5259 H         1 UNK         0.0600 
    207 H207       -6.1154  -25.5291  -48.0034 H         1 UNK         0.0600 
    208 H208       -6.5587  -24.7156  -49.4958 H         1 UNK         0.0600 
    209 H209       -5.7390  -26.2688  -49.5593 H         1 UNK         0.0600 
    210 H210       -2.1501  -23.6732  -49.6399 H         1 UNK         0.3000 
    211 H211       -2.5509  -23.4844  -52.5838 H         1 UNK         0.0600 
    212 H212       -0.1619  -24.7453  -51.1183 H         1 UNK         0.0600 
    213 H213       -0.2393  -24.4025  -52.8437 H         1 UNK         0.0600 
    214 H214       -1.3150  -25.6021  -52.1374 H         1 UNK         0.0600 
    215 H215       -3.0225  -21.2891  -52.0426 H         1 UNK         0.3000 
    216 H216       -0.7052  -19.5640  -51.5838 H         1 UNK         0.0600 
    217 H217       -3.2683  -19.4066  -49.8761 H         1 UNK         0.0600 
    218 H218       -1.9037  -18.3008  -49.7930 H         1 UNK         0.0600 
    219 H219       -1.7134  -19.9661  -49.2757 H         1 UNK         0.0600 
    220 H220       -1.5201  -17.2261  -51.9215 H         1 UNK         0.3000 
    221 H221       -2.6609  -16.9097  -54.4679 H         1 UNK         0.0600 
    222 H222       -2.3282  -14.8841  -52.2012 H         1 UNK         0.0600 
    223 H223       -1.1391  -15.2582  -53.4504 H         1 UNK         0.0600 
    224 H224       -2.6556  -14.4857  -53.8832 H         1 UNK         0.0600 
    225 H225       -4.6582  -16.8899  -55.1780 H         1 UNK         0.3000 
    226 H226       -6.8123  -16.7566  -55.4648 H         1 UNK         0.0600 
    227 H227       -6.8592  -14.6024  -54.1940 H         1 UNK         0.0600 
    228 H228       -8.3466  -15.5181  -54.0081 H         1 UNK         0.0600 
    229 H229       -7.1765  -15.4880  -52.7014 H         1 UNK         0.0600 
    230 H230       -5.6442  -18.3875  -52.6154 H         1 UNK         0.3000 
    231 H231       -7.9510  -20.0999  -52.2128 H         1 UNK         0.0600 
    232 H232       -5.0270  -20.4699  -51.3659 H         1 UNK         0.0600 
    233 H233       -6.3953  -21.4024  -50.7828 H         1 UNK         0.0600 
    234 H234       -6.2819  -19.6891  -50.4068 H         1 UNK         0.0600 
    235 H235       -4.9617  -20.2420  -54.1244 H         1 UNK         0.3000 
    236 H236       -6.1632  -22.1062  -55.9939 H         1 UNK         0.0600 
    237 H237       -3.6236  -22.9863  -54.5164 H         1 UNK         0.0600 
    238 H238       -5.2108  -23.7243  -54.3028 H         1 UNK         0.0600 
    239 H239       -4.3889  -23.8329  -55.8519 H         1 UNK         0.0600 
    240 H240       -3.2887  -20.2475  -54.9158 H         1 UNK         0.3000 
    241 H241       -2.1004  -20.2146  -57.5644 H         1 UNK         0.0600 
    242 H242       -1.7658  -18.2898  -58.9178 H         1 UNK         0.3800 
    243 H243       -2.8502  -16.9376  -58.7680 H         1 UNK         0.3800 
    244 H244       -0.3615  -18.8078  -56.5282 H         1 UNK         0.0800 
    245 H245       -1.2774  -18.6647  -55.0558 H         1 UNK         0.0800 
    246 H246        1.7000  -19.6232  -55.8263 H         1 UNK         0.0800 
    247 H247        2.0535  -21.2158  -55.2259 H         1 UNK         0.0800 
@<TRIPOS>BOND
     1    1    2 1    
     2    1  127 1    
     3    1  128 1    
     4    1  129 1    
     5    2    3 2    
     6    2    4 am   BACKBONE|DICT|INTERRES
     7    4    5 1    
     8    4  130 1    
     9    5    6 1    
    10    5   65 1    
    11    5  131 1    
    12    6    7 1    
    13    6  132 1    
    14    6  133 1    
    15    7    8 1    
    16    8    9 1    
    17    8  134 1    
    18    8  135 1    
    19    9   10 ar   
    20    9   14 ar   
    21   10   11 ar   
    22   10  136 1    
    23   11   12 ar   
    24   11  126 1    
    25   12   13 ar   
    26   12  137 1    
    27   13   14 ar   
    28   13   15 1    
    29   14  138 1    
    30   15   16 1    
    31   15  139 1    
    32   15  140 1    
    33   16   17 1    
    34   17   18 1    
    35   17  141 1    
    36   17  142 1    
    37   18   19 1    
    38   18   67 1    
    39   18  143 1    
    40   19   20 am   BACKBONE|DICT|INTERRES
    41   19  144 1    
    42   20   21 2    
    43   20   22 1    
    44   22   23 1    
    45   22   24 1    
    46   22  145 1    
    47   23  146 1    
    48   23  147 1    
    49   23  148 1    
    50   24   25 am   BACKBONE|DICT|INTERRES
    51   24  149 1    
    52   25   26 2    
    53   25   27 1    
    54   27   28 1    
    55   27   29 1    
    56   27  150 1    
    57   28  151 1    
    58   28  152 1    
    59   28  153 1    
    60   29   30 am   BACKBONE|DICT|INTERRES
    61   29  154 1    
    62   30   31 2    
    63   30   32 1    
    64   32   33 1    
    65   32   34 1    
    66   32  155 1    
    67   33  156 1    
    68   33  157 1    
    69   33  158 1    
    70   34   35 am   BACKBONE|DICT|INTERRES
    71   34  159 1    
    72   35   36 2    
    73   35   37 1    
    74   37   38 1    
    75   37   39 1    
    76   37  160 1    
    77   38  161 1    
    78   38  162 1    
    79   38  163 1    
    80   39   40 am   BACKBONE|DICT|INTERRES
    81   39  164 1    
    82   40   41 2    
    83   40   42 1    
    84   42   43 1    
    85   42   44 1    
    86   42  165 1    
    87   43  166 1    
    88   43  167 1    
    89   43  168 1    
    90   44   45 am   BACKBONE|DICT|INTERRES
    91   44  169 1    
    92   45   46 2    
    93   45   47 1    
    94   47   48 1    
    95   47   49 1    
    96   47  170 1    
    97   48  171 1    
    98   48  172 1    
    99   48  173 1    
   100   49   50 am   BACKBONE|DICT|INTERRES
   101   49  174 1    
   102   50   51 2    
   103   50   52 1    
   104   52   53 1    
   105   52   54 1    
   106   52  175 1    
   107   53  176 1    
   108   53  177 1    
   109   53  178 1    
   110   54   55 am   BACKBONE|DICT|INTERRES
   111   54  179 1    
   112   55   56 2    
   113   55   57 1    
   114   57   58 1    
   115   57   59 1    
   116   57  180 1    
   117   58  181 1    
   118   58  182 1    
   119   58  183 1    
   120   59   60 am   BACKBONE|DICT|INTERRES
   121   59  184 1    
   122   60   61 2    
   123   60   62 1    
   124   62   63 1    
   125   62   64 1    
   126   62  185 1    
   127   63  186 1    
   128   63  187 1    
   129   63  188 1    
   130   64   65 am   BACKBONE|DICT|INTERRES
   131   64  189 1    
   132   65   66 2    
   133   67   68 2    
   134   67   69 am   BACKBONE|DICT|INTERRES
   135   69   70 1    
   136   69  190 1    
   137   70   71 1    
   138   70   72 1    
   139   70  191 1    
   140   71  192 1    
   141   71  193 1    
   142   71  194 1    
   143   72   73 2    
   144   72   74 am   BACKBONE|DICT|INTERRES
   145   74   75 1    
   146   74  195 1    
   147   75   76 1    
   148   75   77 1    
   149   75  196 1    
   150   76  197 1    
   151   76  198 1    
   152   76  199 1    
   153   77   78 2    
   154   77   79 am   BACKBONE|DICT|INTERRES
   155   79   80 1    
   156   79  200 1    
   157   80   81 1    
   158   80   82 1    
   159   80  201 1    
   160   81  202 1    
   161   81  203 1    
   162   81  204 1    
   163   82   83 2    
   164   82   84 am   BACKBONE|DICT|INTERRES
   165   84   85 1    
   166   84  205 1    
   167   85   86 1    
   168   85   87 1    
   169   85  206 1    
   170   86  207 1    
   171   86  208 1    
   172   86  209 1    
   173   87   88 2    
   174   87   89 am   BACKBONE|DICT|INTERRES
   175   89   90 1    
   176   89  210 1    
   177   90   91 1    
   178   90   92 1    
   179   90  211 1    
   180   91  212 1    
   181   91  213 1    
   182   91  214 1    
   183   92   93 2    
   184   92   94 am   BACKBONE|DICT|INTERRES
   185   94   95 1    
   186   94  215 1    
   187   95   96 1    
   188   95   97 1    
   189   95  216 1    
   190   96  217 1    
   191   96  218 1    
   192   96  219 1    
   193   97   98 2    
   194   97   99 am   BACKBONE|DICT|INTERRES
   195   99  100 1    
   196   99  220 1    
   197  100  101 1    
   198  100  102 1    
   199  100  221 1    
   200  101  222 1    
   201  101  223 1    
   202  101  224 1    
   203  102  103 2    
   204  102  104 am   BACKBONE|DICT|INTERRES
   205  104  105 1    
   206  104  225 1    
   207  105  106 1    
   208  105  107 1    
   209  105  226 1    
   210  106  227 1    
   211  106  228 1    
   212  106  229 1    
   213  107  108 2    
   214  107  109 am   BACKBONE|DICT|INTERRES
   215  109  110 1    
   216  109  230 1    
   217  110  111 1    
   218  110  112 1    
   219  110  231 1    
   220  111  232 1    
   221  111  233 1    
   222  111  234 1    
   223  112  113 2    
   224  112  114 am   BACKBONE|DICT|INTERRES
   225  114  115 1    
   226  114  235 1    
   227  115  116 1    
   228  115  117 1    
   229  115  236 1    
   230  116  237 1    
   231  116  238 1    
   232  116  239 1    
   233  117  118 2    
   234  117  119 am   BACKBONE|DICT|INTERRES
   235  119  120 1    
   236  119  240 1    
   237  120  121 1    
   238  120  124 1    
   239  120  241 1    
   240  121  122 am   BACKBONE|DICT|INTERRES
   241  121  123 2    
   242  122  242 1    
   243  122  243 1    
   244  124  125 1    
   245  124  244 1    
   246  124  245 1    
   247  125  126 1    
   248  126  246 1    
   249  126  247 1    
@<TRIPOS>SUBSTRUCTURE
     1 UNK         1 GROUP             0       ****    0 ROOT    
