@<TRIPOS>MOLECULE
3R540
247   249    1
SMALL
USER_CHARGES


@<TRIPOS>ATOM
      1 CA          4.1802  -19.8415  -49.4704 C.3       0 UNK        -0.1800 
      2 C           3.4629  -19.1169  -48.3417 C.2       0 UNK         0.5000 
      3 O           3.5187  -19.5614  -47.1968 O.2       0 UNK        -0.5000 
      4 N           2.8014  -17.9945  -48.6561 N.am      1 UNK        -0.5000 
      5 CA          1.9604  -17.2111  -47.7377 C.3       1 UNK         0.1400 
      6 C6          1.2185  -16.0649  -48.4635 C.3       23 UNK        -0.0398 
      7 S7          0.0455  -16.6735  -49.7151 S.3       23 UNK        -0.2404 
      8 C8         -0.6098  -15.0908  -50.3163 C.3       23 UNK        -0.0205 
      9 C9         -1.8941  -15.2895  -51.1018 C.ar      23 UNK        -0.0193 
     10 C10        -1.9021  -15.2008  -52.4954 C.ar      23 UNK        -0.1150 
     11 C11        -3.0991  -15.3269  -53.2067 C.ar      23 UNK        -0.0193 
     12 C12        -4.2871  -15.5689  -52.5078 C.ar      23 UNK        -0.1150 
     13 C13        -4.2933  -15.6876  -51.1133 C.ar      23 UNK        -0.0193 
     14 C14        -3.0873  -15.5312  -50.4193 C.ar      23 UNK        -0.1150 
     15 C15        -5.6289  -15.9412  -50.4101 C.3       23 UNK        -0.0205 
     16 S16        -5.5483  -16.2610  -48.6104 S.3       23 UNK        -0.2404 
     17 C17        -5.0596  -18.0214  -48.5290 C.3       23 UNK        -0.0398 
     18 CA         -3.6357  -18.2752  -47.9638 C.3       11 UNK         0.1400 
     19 N          -3.3666  -17.4995  -46.7457 N.am      11 UNK        -0.5000 
     20 C          -2.2318  -17.5127  -46.0316 C.2       10 UNK         0.5000 
     21 O          -1.2610  -18.2144  -46.3123 O.2       10 UNK        -0.5000 
     22 CA         -2.1756  -16.6336  -44.7647 C.3       10 UNK         0.1400 
     23 CB         -3.3325  -15.6168  -44.6520 C.3       10 UNK        -0.1800 
     24 N          -2.0927  -17.4366  -43.5399 N.am      10 UNK        -0.5000 
     25 C          -2.9156  -18.4216  -43.1446 C.2       9 UNK         0.5000 
     26 O          -3.8785  -18.8146  -43.8046 O.2       9 UNK        -0.5000 
     27 CA         -2.6182  -19.0830  -41.7815 C.3       9 UNK         0.1400 
     28 CB         -2.0463  -20.4965  -41.9677 C.3       9 UNK        -0.1800 
     29 N          -1.6878  -18.2994  -40.9635 N.am      9 UNK        -0.5000 
     30 C          -2.0536  -17.2850  -40.1662 C.2       8 UNK         0.5000 
     31 O          -3.2213  -16.9348  -39.9925 O.2       8 UNK        -0.5000 
     32 CA         -0.9172  -16.5132  -39.4710 C.3       8 UNK         0.1400 
     33 CB         -0.5305  -17.1889  -38.1477 C.3       8 UNK        -0.1800 
     34 N           0.2612  -16.3816  -40.3328 N.am      8 UNK        -0.5000 
     35 C           0.3057  -15.5687  -41.3990 C.2       7 UNK         0.5000 
     36 O          -0.6338  -14.8418  -41.7264 O.2       7 UNK        -0.5000 
     37 CA          1.5789  -15.5942  -42.2654 C.3       7 UNK         0.1400 
     38 CB          1.7385  -14.3183  -43.1226 C.3       7 UNK        -0.1800 
     39 N           2.8021  -15.8832  -41.5131 N.am      7 UNK        -0.5000 
     40 C           3.3989  -15.0943  -40.6084 C.2       6 UNK         0.5000 
     41 O           2.9497  -14.0092  -40.2339 O.2       6 UNK        -0.5000 
     42 CA          4.7289  -15.6244  -40.0363 C.3       6 UNK         0.1400 
     43 CB          5.4449  -14.6132  -39.1149 C.3       6 UNK        -0.1800 
     44 N           4.5669  -16.9185  -39.3688 N.am      6 UNK        -0.5000 
     45 C           3.8146  -17.1881  -38.2914 C.2       5 UNK         0.5000 
     46 O           3.1483  -16.3501  -37.6821 O.2       5 UNK        -0.5000 
     47 CA          3.8230  -18.6608  -37.8310 C.3       5 UNK         0.1400 
     48 CB          2.7710  -18.9664  -36.7443 C.3       5 UNK        -0.1800 
     49 N           3.7057  -19.6098  -38.9455 N.am      5 UNK        -0.5000 
     50 C           2.6989  -19.6931  -39.8272 C.2       4 UNK         0.5000 
     51 O           1.7365  -18.9227  -39.8594 O.2       4 UNK        -0.5000 
     52 CA          2.8302  -20.8209  -40.8681 C.3       4 UNK         0.1400 
     53 CB          1.4838  -21.1648  -41.5336 C.3       4 UNK        -0.1800 
     54 N           3.8484  -20.5231  -41.8828 N.am      4 UNK        -0.5000 
     55 C           3.8657  -19.4831  -42.7303 C.2       3 UNK         0.5000 
     56 O           3.0224  -18.5849  -42.7246 O.2       3 UNK        -0.5000 
     57 CA          5.0235  -19.4577  -43.7523 C.3       3 UNK         0.1400 
     58 CB          5.1287  -20.7787  -44.5367 C.3       3 UNK        -0.1800 
     59 N           4.8913  -18.3571  -44.7088 N.am      3 UNK        -0.5000 
     60 C           5.1750  -17.0747  -44.4395 C.2       2 UNK         0.5000 
     61 O           5.6400  -16.6960  -43.3633 O.2       2 UNK        -0.5000 
     62 CA          4.9257  -16.0336  -45.5507 C.3       2 UNK         0.1400 
     63 CB          6.2573  -15.5895  -46.1760 C.3       2 UNK        -0.1800 
     64 N           4.0431  -16.5042  -46.6190 N.am      2 UNK        -0.5000 
     65 C           2.7149  -16.6500  -46.5130 C.2       1 UNK         0.5000 
     66 O           2.0767  -16.3566  -45.5052 O.2       1 UNK        -0.5000 
     67 C          -3.4354  -19.7929  -47.7589 C.2       11 UNK         0.5000 
     68 O          -2.9511  -20.4753  -48.6635 O.2       11 UNK        -0.5000 
     69 N          -3.7917  -20.2958  -46.5667 N.am      12 UNK        -0.5000 
     70 CA         -3.6694  -21.7052  -46.1956 C.3       12 UNK         0.1400 
     71 CB         -4.5142  -21.9923  -44.9476 C.3       12 UNK        -0.1800 
     72 C          -2.2122  -22.1700  -46.0158 C.2       12 UNK         0.5000 
     73 O          -1.9479  -23.3610  -46.1813 O.2       12 UNK        -0.5000 
     74 N          -1.2837  -21.2371  -45.7488 N.am      13 UNK        -0.5000 
     75 CA          0.1567  -21.5093  -45.6919 C.3       13 UNK         0.1400 
     76 CB          0.8870  -20.3049  -45.0808 C.3       13 UNK        -0.1800 
     77 C           0.7390  -21.8454  -47.0798 C.2       13 UNK         0.5000 
     78 O           1.6923  -22.6181  -47.1707 O.2       13 UNK        -0.5000 
     79 N           0.1135  -21.3053  -48.1348 N.am      14 UNK        -0.5000 
     80 CA          0.4210  -21.5663  -49.5392 C.3       14 UNK         0.1400 
     81 CB          0.2342  -20.2621  -50.3324 C.3       14 UNK        -0.1800 
     82 C          -0.4365  -22.7090  -50.1202 C.2       14 UNK         0.5000 
     83 O          -0.6745  -22.7232  -51.3272 O.2       14 UNK        -0.5000 
     84 N          -0.9059  -23.6345  -49.2686 N.am      15 UNK        -0.5000 
     85 CA         -1.7529  -24.7866  -49.6029 C.3       15 UNK         0.1400 
     86 CB         -0.9837  -25.7999  -50.4767 C.3       15 UNK        -0.1800 
     87 C          -3.0981  -24.3551  -50.2209 C.2       15 UNK         0.5000 
     88 O          -3.4718  -24.8206  -51.2995 O.2       15 UNK        -0.5000 
     89 N          -3.7746  -23.4305  -49.5245 N.am      16 UNK        -0.5000 
     90 CA         -5.0364  -22.7840  -49.9021 C.3       16 UNK         0.1400 
     91 CB         -6.1957  -23.8023  -49.9116 C.3       16 UNK        -0.1800 
     92 C          -4.8988  -22.0075  -51.2246 C.2       16 UNK         0.5000 
     93 O          -5.7000  -22.1971  -52.1392 O.2       16 UNK        -0.5000 
     94 N          -3.8487  -21.1773  -51.3024 N.am      17 UNK        -0.5000 
     95 CA         -3.4237  -20.3972  -52.4687 C.3       17 UNK         0.1400 
     96 CB         -4.4161  -19.2486  -52.7308 C.3       17 UNK        -0.1800 
     97 C          -3.1851  -21.2869  -53.7075 C.2       17 UNK         0.5000 
     98 O          -3.7659  -21.0463  -54.7677 O.2       17 UNK        -0.5000 
     99 N          -2.3638  -22.3300  -53.5170 N.am      18 UNK        -0.5000 
    100 CA        -2.0090  -23.3838  -54.4704 C.3       18 UNK         0.1400 
    101 CB        -1.0808  -22.8248  -55.5671 C.3       18 UNK        -0.1800 
    102 C         -3.2450  -24.1195  -55.0265 C.2       18 UNK         0.5000 
    103 O         -3.3953  -24.2469  -56.2425 O.2       18 UNK        -0.5000 
    104 N         -4.1164  -24.5683  -54.1109 N.am      19 UNK        -0.5000 
    105 CA        -5.4120  -25.2068  -54.3625 C.3       19 UNK         0.1400 
    106 CB        -5.2238  -26.5996  -54.9993 C.3       19 UNK        -0.1800 
    107 C         -6.3708  -24.2933  -55.1565 C.2       19 UNK         0.5000 
    108 O         -6.9367  -24.7085  -56.1699 O.2       19 UNK        -0.5000 
    109 N         -6.5238  -23.0573  -54.6628 N.am      20 UNK        -0.5000 
    110 CA        -7.3726  -21.9805  -55.1745 C.3       20 UNK         0.1400 
    111 CB        -8.8645  -22.3516  -55.0441 C.3       20 UNK        -0.1800 
    112 C         -6.9900  -21.4979  -56.5888 C.2       20 UNK         0.5000 
    113 O         -7.8663  -21.0963  -57.3576 O.2       20 UNK        -0.5000 
    114 N         -5.6854  -21.4849  -56.9002 N.am      21 UNK        -0.5000 
    115 CA        -5.1365  -20.9528  -58.1533 C.3       21 UNK         0.1400 
    116 CB        -3.6439  -21.2965  -58.2507 C.3       21 UNK        -0.1800 
    117 C         -5.3440  -19.4320  -58.2913 C.2       21 UNK         0.5000 
    118 O         -5.4874  -18.9322  -59.4078 O.2       21 UNK        -0.5000 
    119 N         -5.3960  -18.7389  -57.1477 N.am      22 UNK        -0.5000 
    120 CA        -5.7781  -17.3249  -57.0227 C.3       22 UNK         0.1400 
    121 C         -7.3049  -17.0532  -57.1974 C.2       22 UNK         0.5000 
    122 N         -8.1653  -18.0553  -57.3441 N.am      22 UNK        -0.7600 
    123 O         -7.7213  -15.8981  -57.2100 O.2       22 UNK        -0.5000 
    124 C124       -5.2544  -16.7209  -55.6946 C.3       23 UNK        -0.0398 
    125 S125       -3.4284  -16.7079  -55.6098 S.3       23 UNK        -0.2404 
    126 C126       -3.1059  -15.1503  -54.7209 C.3       23 UNK        -0.0205 
    127 H127        3.8475  -20.8783  -49.5179 H         1 UNK         0.0600 
    128 H128        5.2560  -19.8353  -49.2958 H         1 UNK         0.0600 
    129 H129        3.9866  -19.3778  -50.4379 H         1 UNK         0.0600 
    130 H130        2.7975  -17.6782  -49.6153 H         1 UNK         0.3000 
    131 H131        1.2048  -17.8935  -47.3484 H         1 UNK         0.0600 
    132 H132        0.6470  -15.4686  -47.7489 H         1 UNK         0.0800 
    133 H133        1.9280  -15.3851  -48.9387 H         1 UNK         0.0800 
    134 H134       -0.8089  -14.4287  -49.4722 H         1 UNK         0.0800 
    135 H135        0.1466  -14.5951  -50.9268 H         1 UNK         0.0800 
    136 H136       -0.9790  -15.0070  -53.0237 H         1 UNK         0.1150 
    137 H137       -5.2167  -15.6562  -53.0510 H         1 UNK         0.1150 
    138 H138       -3.0571  -15.5851  -49.3415 H         1 UNK         0.1150 
    139 H139       -6.2550  -15.0606  -50.5597 H         1 UNK         0.0800 
    140 H140       -6.1483  -16.7677  -50.8973 H         1 UNK         0.0800 
    141 H141       -5.1528  -18.4695  -49.5193 H         1 UNK         0.0800 
    142 H142       -5.8079  -18.5182  -47.9082 H         1 UNK         0.0800 
    143 H143       -2.9070  -17.9557  -48.7113 H         1 UNK         0.0600 
    144 H144       -4.1201  -16.9034  -46.4348 H         1 UNK         0.3000 
    145 H145       -1.2437  -16.0695  -44.8294 H         1 UNK         0.0600 
    146 H146       -3.1862  -14.9622  -43.7924 H         1 UNK         0.0600 
    147 H147       -3.3852  -14.9773  -45.5343 H         1 UNK         0.0600 
    148 H148       -4.3008  -16.1038  -44.5307 H         1 UNK         0.0600 
    149 H149       -1.3360  -17.1971  -42.9183 H         1 UNK         0.3000 
    150 H150       -3.5666  -19.1766  -41.2483 H         1 UNK         0.0600 
    151 H151       -1.7250  -20.9233  -41.0175 H         1 UNK         0.0600 
    152 H152       -2.7962  -21.1702  -42.3781 H         1 UNK         0.0600 
    153 H153       -1.1967  -20.5052  -42.6473 H         1 UNK         0.0600 
    154 H154       -0.7066  -18.5369  -41.0195 H         1 UNK         0.3000 
    155 H155       -1.2833  -15.5109  -39.2383 H         1 UNK         0.0600 
    156 H156       -1.3660  -17.1735  -37.4471 H         1 UNK         0.0600 
    157 H157        0.3055  -16.6775  -37.6702 H         1 UNK         0.0600 
    158 H158       -0.2504  -18.2320  -38.2937 H         1 UNK         0.0600 
    159 H159        1.0404  -17.0037  -40.1406 H         1 UNK         0.3000 
    160 H160        1.4493  -16.4329  -42.9494 H         1 UNK         0.0600 
    161 H161        0.9252  -14.2321  -43.8440 H         1 UNK         0.0600 
    162 H162        2.6690  -14.3353  -43.6885 H         1 UNK         0.0600 
    163 H163        1.7319  -13.4131  -42.5152 H         1 UNK         0.0600 
    164 H164        3.2183  -16.7815  -41.7373 H         1 UNK         0.3000 
    165 H165        5.3852  -15.7975  -40.8894 H         1 UNK         0.0600 
    166 H166        6.3974  -15.0082  -38.7618 H         1 UNK         0.0600 
    167 H167        5.6563  -13.6858  -39.6483 H         1 UNK         0.0600 
    168 H168        4.8445  -14.3560  -38.2420 H         1 UNK         0.0600 
    169 H169        5.0516  -17.6921  -39.8006 H         1 UNK         0.3000 
    170 H170        4.8051  -18.8287  -37.3864 H         1 UNK         0.0600 
    171 H171        2.9162  -18.3331  -35.8684 H         1 UNK         0.0600 
    172 H172        1.7563  -18.7997  -37.1034 H         1 UNK         0.0600 
    173 H173        2.8406  -20.0012  -36.4095 H         1 UNK         0.0600 
    174 H174        4.4647  -20.2715  -39.0308 H         1 UNK         0.3000 
    175 H175        3.1660  -21.7131  -40.3373 H         1 UNK         0.0600 
    176 H176        1.5936  -21.9622  -42.2684 H         1 UNK         0.0600 
    177 H177        0.7592  -21.4997  -40.7910 H         1 UNK         0.0600 
    178 H178        1.0574  -20.2989  -42.0370 H         1 UNK         0.0600 
    179 H179        4.5971  -21.1980  -41.9480 H         1 UNK         0.3000 
    180 H180        5.9512  -19.3204  -43.1932 H         1 UNK         0.0600 
    181 H181        4.1946  -21.0265  -45.0407 H         1 UNK         0.0600 
    182 H182        5.3807  -21.6147  -43.8840 H         1 UNK         0.0600 
    183 H183        5.9086  -20.7234  -45.2965 H         1 UNK         0.0600 
    184 H184        4.4550  -18.5878  -45.5948 H         1 UNK         0.3000 
    185 H185        4.4646  -15.1625  -45.0818 H         1 UNK         0.0600 
    186 H186        6.7650  -16.4181  -46.6714 H         1 UNK         0.0600 
    187 H187        6.1043  -14.7997  -46.9118 H         1 UNK         0.0600 
    188 H188        6.9347  -15.1964  -45.4167 H         1 UNK         0.0600 
    189 H189        4.4842  -16.7806  -47.4839 H         1 UNK         0.3000 
    190 H190       -4.1170  -19.6647  -45.8426 H         1 UNK         0.3000 
    191 H191       -4.0923  -22.3004  -47.0047 H         1 UNK         0.0600 
    192 H192       -5.5689  -21.7890  -45.1334 H         1 UNK         0.0600 
    193 H193       -4.4332  -23.0386  -44.6499 H         1 UNK         0.0600 
    194 H194       -4.2053  -21.3853  -44.1004 H         1 UNK         0.0600 
    195 H195       -1.5589  -20.2632  -45.6980 H         1 UNK         0.3000 
    196 H196        0.3111  -22.3696  -45.0372 H         1 UNK         0.0600 
    197 H197        1.8980  -20.5794  -44.7838 H         1 UNK         0.0600 
    198 H198        0.3784  -19.9191  -44.2003 H         1 UNK         0.0600 
    199 H199        0.9751  -19.4831  -45.7879 H         1 UNK         0.0600 
    200 H200       -0.6907  -20.7158  -47.9643 H         1 UNK         0.3000 
    201 H201        1.4646  -21.8708  -49.6366 H         1 UNK         0.0600 
    202 H202        0.8754  -19.4767  -49.9402 H         1 UNK         0.0600 
    203 H203       -0.7949  -19.9047  -50.2881 H         1 UNK         0.0600 
    204 H204        0.4964  -20.3903  -51.3832 H         1 UNK         0.0600 
    205 H205       -0.6804  -23.5299  -48.2885 H         1 UNK         0.3000 
    206 H206       -1.9911  -25.2800  -48.6594 H         1 UNK         0.0600 
    207 H207       -0.7447  -25.3943  -51.4603 H         1 UNK         0.0600 
    208 H208       -0.0496  -26.1000  -50.0021 H         1 UNK         0.0600 
    209 H209       -1.5733  -26.7040  -50.6332 H         1 UNK         0.0600 
    210 H210       -3.3301  -23.0666  -48.6951 H         1 UNK         0.3000 
    211 H211       -5.2587  -22.0429  -49.1338 H         1 UNK         0.0600 
    212 H212       -6.0731  -24.5547  -50.6912 H         1 UNK         0.0600 
    213 H213       -7.1494  -23.3038  -50.0888 H         1 UNK         0.0600 
    214 H214       -6.2729  -24.3197  -48.9555 H         1 UNK         0.0600 
    215 H215       -3.2741  -21.0760  -50.4708 H         1 UNK         0.3000 
    216 H216       -2.4608  -19.9516  -52.2151 H         1 UNK         0.0600 
    217 H217       -5.4010  -19.6142  -53.0224 H         1 UNK         0.0600 
    218 H218       -4.5348  -18.6226  -51.8479 H         1 UNK         0.0600 
    219 H219       -4.0518  -18.6075  -53.5309 H         1 UNK         0.0600 
    220 H220       -1.9210  -22.4317  -52.6051 H         1 UNK         0.3000 
    221 H221       -1.4415  -24.1259  -53.9068 H         1 UNK         0.0600 
    222 H222       -1.5762  -22.0633  -56.1675 H         1 UNK         0.0600 
    223 H223       -0.1869  -22.3775  -55.1325 H         1 UNK         0.0600 
    224 H224       -0.7523  -23.6148  -56.2433 H         1 UNK         0.0600 
    225 H225       -3.8850  -24.4416  -53.1279 H         1 UNK         0.3000 
    226 H226       -5.8709  -25.3539  -53.3836 H         1 UNK         0.0600 
    227 H227       -4.5646  -27.2224  -54.3946 H         1 UNK         0.0600 
    228 H228       -6.1778  -27.1215  -55.0815 H         1 UNK         0.0600 
    229 H229       -4.7994  -26.5361  -56.0016 H         1 UNK         0.0600 
    230 H230       -6.0261  -22.8205  -53.8052 H         1 UNK         0.3000 
    231 H231       -7.1922  -21.1298  -54.5158 H         1 UNK         0.0600 
    232 H232       -9.1050  -22.6640  -54.0279 H         1 UNK         0.0600 
    233 H233       -9.5025  -21.4986  -55.2784 H         1 UNK         0.0600 
    234 H234       -9.1412  -23.1616  -55.7195 H         1 UNK         0.0600 
    235 H235       -5.0115  -21.7502  -56.1879 H         1 UNK         0.3000 
    236 H236       -5.6559  -21.4385  -58.9817 H         1 UNK         0.0600 
    237 H237       -3.2280  -20.9621  -59.2018 H         1 UNK         0.0600 
    238 H238       -3.0729  -20.8148  -57.4568 H         1 UNK         0.0600 
    239 H239       -3.4788  -22.3714  -58.1841 H         1 UNK         0.0600 
    240 H240       -5.2280  -19.2371  -56.2853 H         1 UNK         0.3000 
    241 H241       -5.2966  -16.7835  -57.8393 H         1 UNK         0.0600 
    242 H242       -9.1437  -17.8438  -57.4609 H         1 UNK         0.3800 
    243 H243       -7.8624  -19.0211  -57.3715 H         1 UNK         0.3800 
    244 H244       -5.6462  -17.2778  -54.8425 H         1 UNK         0.0800 
    245 H245       -5.6142  -15.6975  -55.5798 H         1 UNK         0.0800 
    246 H246       -2.1400  -14.7691  -55.0558 H         1 UNK         0.0800 
    247 H247       -3.8340  -14.3882  -55.0008 H         1 UNK         0.0800 
@<TRIPOS>BOND
     1    1    2 1    
     2    1  127 1    
     3    1  128 1    
     4    1  129 1    
     5    2    3 2    
     6    2    4 am   BACKBONE|DICT|INTERRES
     7    4    5 1    
     8    4  130 1    
     9    5    6 1    
    10    5   65 1    
    11    5  131 1    
    12    6    7 1    
    13    6  132 1    
    14    6  133 1    
    15    7    8 1    
    16    8    9 1    
    17    8  134 1    
    18    8  135 1    
    19    9   10 ar   
    20    9   14 ar   
    21   10   11 ar   
    22   10  136 1    
    23   11   12 ar   
    24   11  126 1    
    25   12   13 ar   
    26   12  137 1    
    27   13   14 ar   
    28   13   15 1    
    29   14  138 1    
    30   15   16 1    
    31   15  139 1    
    32   15  140 1    
    33   16   17 1    
    34   17   18 1    
    35   17  141 1    
    36   17  142 1    
    37   18   19 1    
    38   18   67 1    
    39   18  143 1    
    40   19   20 am   BACKBONE|DICT|INTERRES
    41   19  144 1    
    42   20   21 2    
    43   20   22 1    
    44   22   23 1    
    45   22   24 1    
    46   22  145 1    
    47   23  146 1    
    48   23  147 1    
    49   23  148 1    
    50   24   25 am   BACKBONE|DICT|INTERRES
    51   24  149 1    
    52   25   26 2    
    53   25   27 1    
    54   27   28 1    
    55   27   29 1    
    56   27  150 1    
    57   28  151 1    
    58   28  152 1    
    59   28  153 1    
    60   29   30 am   BACKBONE|DICT|INTERRES
    61   29  154 1    
    62   30   31 2    
    63   30   32 1    
    64   32   33 1    
    65   32   34 1    
    66   32  155 1    
    67   33  156 1    
    68   33  157 1    
    69   33  158 1    
    70   34   35 am   BACKBONE|DICT|INTERRES
    71   34  159 1    
    72   35   36 2    
    73   35   37 1    
    74   37   38 1    
    75   37   39 1    
    76   37  160 1    
    77   38  161 1    
    78   38  162 1    
    79   38  163 1    
    80   39   40 am   BACKBONE|DICT|INTERRES
    81   39  164 1    
    82   40   41 2    
    83   40   42 1    
    84   42   43 1    
    85   42   44 1    
    86   42  165 1    
    87   43  166 1    
    88   43  167 1    
    89   43  168 1    
    90   44   45 am   BACKBONE|DICT|INTERRES
    91   44  169 1    
    92   45   46 2    
    93   45   47 1    
    94   47   48 1    
    95   47   49 1    
    96   47  170 1    
    97   48  171 1    
    98   48  172 1    
    99   48  173 1    
   100   49   50 am   BACKBONE|DICT|INTERRES
   101   49  174 1    
   102   50   51 2    
   103   50   52 1    
   104   52   53 1    
   105   52   54 1    
   106   52  175 1    
   107   53  176 1    
   108   53  177 1    
   109   53  178 1    
   110   54   55 am   BACKBONE|DICT|INTERRES
   111   54  179 1    
   112   55   56 2    
   113   55   57 1    
   114   57   58 1    
   115   57   59 1    
   116   57  180 1    
   117   58  181 1    
   118   58  182 1    
   119   58  183 1    
   120   59   60 am   BACKBONE|DICT|INTERRES
   121   59  184 1    
   122   60   61 2    
   123   60   62 1    
   124   62   63 1    
   125   62   64 1    
   126   62  185 1    
   127   63  186 1    
   128   63  187 1    
   129   63  188 1    
   130   64   65 am   BACKBONE|DICT|INTERRES
   131   64  189 1    
   132   65   66 2    
   133   67   68 2    
   134   67   69 am   BACKBONE|DICT|INTERRES
   135   69   70 1    
   136   69  190 1    
   137   70   71 1    
   138   70   72 1    
   139   70  191 1    
   140   71  192 1    
   141   71  193 1    
   142   71  194 1    
   143   72   73 2    
   144   72   74 am   BACKBONE|DICT|INTERRES
   145   74   75 1    
   146   74  195 1    
   147   75   76 1    
   148   75   77 1    
   149   75  196 1    
   150   76  197 1    
   151   76  198 1    
   152   76  199 1    
   153   77   78 2    
   154   77   79 am   BACKBONE|DICT|INTERRES
   155   79   80 1    
   156   79  200 1    
   157   80   81 1    
   158   80   82 1    
   159   80  201 1    
   160   81  202 1    
   161   81  203 1    
   162   81  204 1    
   163   82   83 2    
   164   82   84 am   BACKBONE|DICT|INTERRES
   165   84   85 1    
   166   84  205 1    
   167   85   86 1    
   168   85   87 1    
   169   85  206 1    
   170   86  207 1    
   171   86  208 1    
   172   86  209 1    
   173   87   88 2    
   174   87   89 am   BACKBONE|DICT|INTERRES
   175   89   90 1    
   176   89  210 1    
   177   90   91 1    
   178   90   92 1    
   179   90  211 1    
   180   91  212 1    
   181   91  213 1    
   182   91  214 1    
   183   92   93 2    
   184   92   94 am   BACKBONE|DICT|INTERRES
   185   94   95 1    
   186   94  215 1    
   187   95   96 1    
   188   95   97 1    
   189   95  216 1    
   190   96  217 1    
   191   96  218 1    
   192   96  219 1    
   193   97   98 2    
   194   97   99 am   BACKBONE|DICT|INTERRES
   195   99  100 1    
   196   99  220 1    
   197  100  101 1    
   198  100  102 1    
   199  100  221 1    
   200  101  222 1    
   201  101  223 1    
   202  101  224 1    
   203  102  103 2    
   204  102  104 am   BACKBONE|DICT|INTERRES
   205  104  105 1    
   206  104  225 1    
   207  105  106 1    
   208  105  107 1    
   209  105  226 1    
   210  106  227 1    
   211  106  228 1    
   212  106  229 1    
   213  107  108 2    
   214  107  109 am   BACKBONE|DICT|INTERRES
   215  109  110 1    
   216  109  230 1    
   217  110  111 1    
   218  110  112 1    
   219  110  231 1    
   220  111  232 1    
   221  111  233 1    
   222  111  234 1    
   223  112  113 2    
   224  112  114 am   BACKBONE|DICT|INTERRES
   225  114  115 1    
   226  114  235 1    
   227  115  116 1    
   228  115  117 1    
   229  115  236 1    
   230  116  237 1    
   231  116  238 1    
   232  116  239 1    
   233  117  118 2    
   234  117  119 am   BACKBONE|DICT|INTERRES
   235  119  120 1    
   236  119  240 1    
   237  120  121 1    
   238  120  124 1    
   239  120  241 1    
   240  121  122 am   BACKBONE|DICT|INTERRES
   241  121  123 2    
   242  122  242 1    
   243  122  243 1    
   244  124  125 1    
   245  124  244 1    
   246  124  245 1    
   247  125  126 1    
   248  126  246 1    
   249  126  247 1    
@<TRIPOS>SUBSTRUCTURE
     1 UNK         1 GROUP             0       ****    0 ROOT    
