@<TRIPOS>MOLECULE
3R540
247   249    1
SMALL
USER_CHARGES


@<TRIPOS>ATOM
      1 CA         -2.3406  -13.7547  -49.3681 C.3       0 UNK        -0.1800 
      2 C          -1.2383  -13.9288  -48.3331 C.2       0 UNK         0.5000 
      3 O          -1.3161  -14.8475  -47.5215 O.2       0 UNK        -0.5000 
      4 N          -0.2410  -13.0303  -48.3551 N.am      1 UNK        -0.5000 
      5 CA          1.0026  -12.9956  -47.5603 C.3       1 UNK         0.1400 
      6 C6          2.1474  -13.8760  -48.1387 C.3       23 UNK        -0.0398 
      7 S7          1.8364  -15.6737  -48.1458 S.3       23 UNK        -0.2404 
      8 C8          2.8162  -16.1922  -49.5848 C.3       23 UNK        -0.0205 
      9 C9          2.6535  -17.6781  -49.8683 C.ar      23 UNK        -0.0193 
     10 C10         1.8617  -18.1092  -50.9367 C.ar      23 UNK        -0.1150 
     11 C11         1.7328  -19.4731  -51.2280 C.ar      23 UNK        -0.0193 
     12 C12         2.4232  -20.4015  -50.4411 C.ar      23 UNK        -0.1150 
     13 C13         3.2177  -19.9863  -49.3676 C.ar      23 UNK        -0.0193 
     14 C14         3.3234  -18.6215  -49.0843 C.ar      23 UNK        -0.1150 
     15 C15         4.0131  -20.9991  -48.5499 C.3       23 UNK        -0.0205 
     16 S16         2.9925  -22.3149  -47.8071 S.3       23 UNK        -0.2404 
     17 C17         1.9774  -21.3793  -46.6140 C.3       23 UNK        -0.0398 
     18 CA          0.4797  -21.7653  -46.6696 C.3       11 UNK         0.1400 
     19 N          -0.2474  -21.3118  -45.4768 N.am      11 UNK        -0.5000 
     20 C          -1.5383  -21.5625  -45.2088 C.2       10 UNK         0.5000 
     21 O          -2.2663  -22.2426  -45.9314 O.2       10 UNK        -0.5000 
     22 CA         -2.1325  -20.9083  -43.9495 C.3       10 UNK         0.1400 
     23 CB         -1.7181  -21.6706  -42.6823 C.3       10 UNK        -0.1800 
     24 N          -1.7552  -19.5017  -43.8270 N.am      10 UNK        -0.5000 
     25 C          -2.1558  -18.5293  -44.6597 C.2       9 UNK         0.5000 
     26 O          -2.9575  -18.6990  -45.5782 O.2       9 UNK        -0.5000 
     27 CA         -1.5335  -17.1365  -44.4366 C.3       9 UNK         0.1400 
     28 CB         -2.2634  -16.4164  -43.2892 C.3       9 UNK        -0.1800 
     29 N          -0.0946  -17.1980  -44.1558 N.am      9 UNK        -0.5000 
     30 C           0.8211  -17.7370  -44.9779 C.2       8 UNK         0.5000 
     31 O           0.5582  -18.2146  -46.0800 O.2       8 UNK        -0.5000 
     32 CA          2.2565  -17.8565  -44.4351 C.3       8 UNK         0.1400 
     33 CB          3.0344  -16.5393  -44.5736 C.3       8 UNK        -0.1800 
     34 N           2.2614  -18.2927  -43.0391 N.am      8 UNK        -0.5000 
     35 C           1.9158  -19.5237  -42.6344 C.2       7 UNK         0.5000 
     36 O           1.6132  -20.4339  -43.4045 O.2       7 UNK        -0.5000 
     37 CA          1.8504  -19.7638  -41.1146 C.3       7 UNK         0.1400 
     38 CB          3.2365  -20.1321  -40.5656 C.3       7 UNK        -0.1800 
     39 N           1.3353  -18.6020  -40.3895 N.am      7 UNK        -0.5000 
     40 C           0.0872  -18.1247  -40.5050 C.2       6 UNK         0.5000 
     41 O          -0.7906  -18.6762  -41.1670 O.2       6 UNK        -0.5000 
     42 CA         -0.2074  -16.7779  -39.8128 C.3       6 UNK         0.1400 
     43 CB         -0.7570  -17.0066  -38.3974 C.3       6 UNK        -0.1800 
     44 N           0.9767  -15.9147  -39.7429 N.am      6 UNK        -0.5000 
     45 C           1.5820  -15.3832  -40.8130 C.2       5 UNK         0.5000 
     46 O           1.1455  -15.4818  -41.9628 O.2       5 UNK        -0.5000 
     47 CA          2.9511  -14.7370  -40.5639 C.3       5 UNK         0.1400 
     48 CB          4.0192  -15.8444  -40.4230 C.3       5 UNK        -0.1800 
     49 N           3.2778  -13.8448  -41.6731 N.am      5 UNK        -0.5000 
     50 C           4.3391  -13.0300  -41.7385 C.2       4 UNK         0.5000 
     51 O           5.1789  -12.9182  -40.8443 O.2       4 UNK        -0.5000 
     52 CA          4.4746  -12.1736  -43.0086 C.3       4 UNK         0.1400 
     53 CB          4.9507  -13.0212  -44.1991 C.3       4 UNK        -0.1800 
     54 N           3.2188  -11.5024  -43.3411 N.am      4 UNK        -0.5000 
     55 C           2.7474  -10.4322  -42.6803 C.2       3 UNK         0.5000 
     56 O           3.3576   -9.8746  -41.7671 O.2       3 UNK        -0.5000 
     57 CA          1.3698   -9.8785  -43.0994 C.3       3 UNK         0.1400 
     58 CB          1.5375   -8.6697  -44.0329 C.3       3 UNK        -0.1800 
     59 N           0.5245  -10.8707  -43.7599 N.am      3 UNK        -0.5000 
     60 C          -0.0002  -11.9510  -43.1667 C.2       2 UNK         0.5000 
     61 O           0.0823  -12.1737  -41.9588 O.2       2 UNK        -0.5000 
     62 CA         -0.7108  -12.9666  -44.0811 C.3       2 UNK         0.1400 
     63 CB         -2.2359  -12.8541  -43.9366 C.3       2 UNK        -0.1800 
     64 N          -0.3613  -12.8552  -45.5001 N.am      2 UNK        -0.5000 
     65 C           0.8487  -13.1008  -46.0215 C.2       1 UNK         0.5000 
     66 O           1.8365  -13.3296  -45.3222 O.2       1 UNK        -0.5000 
     67 C          -0.1907  -21.2951  -47.9778 C.2       11 UNK         0.5000 
     68 O          -0.3585  -22.1015  -48.8914 O.2       11 UNK        -0.5000 
     69 N          -0.6478  -20.0356  -47.9962 N.am      12 UNK        -0.5000 
     70 CA         -1.3890  -19.4060  -49.0907 C.3       12 UNK         0.1400 
     71 CB         -1.4084  -17.8874  -48.8665 C.3       12 UNK        -0.1800 
     72 C          -2.8122  -19.9577  -49.3323 C.2       12 UNK         0.5000 
     73 O          -3.5096  -19.4490  -50.2117 O.2       12 UNK        -0.5000 
     74 N          -3.2226  -20.9809  -48.5754 N.am      13 UNK        -0.5000 
     75 CA         -4.3663  -21.8319  -48.8753 C.3       13 UNK         0.1400 
     76 CB         -5.4048  -21.7239  -47.7488 C.3       13 UNK        -0.1800 
     77 C          -3.8949  -23.2819  -49.0641 C.2       13 UNK         0.5000 
     78 O          -4.2451  -23.9081  -50.0639 O.2       13 UNK        -0.5000 
     79 N          -3.1026  -23.7930  -48.1127 N.am      14 UNK        -0.5000 
     80 CA         -2.6900  -25.1925  -48.0217 C.3       14 UNK         0.1400 
     81 CB         -1.9511  -25.4098  -46.6924 C.3       14 UNK        -0.1800 
     82 C          -1.8390  -25.7174  -49.1927 C.2       14 UNK         0.5000 
     83 O          -1.9200  -26.9117  -49.4821 O.2       14 UNK        -0.5000 
     84 N          -1.0422  -24.8544  -49.8416 N.am      15 UNK        -0.5000 
     85 CA         -0.0878  -25.2561  -50.8826 C.3       15 UNK         0.1400 
     86 CB          0.8628  -24.0934  -51.2000 C.3       15 UNK        -0.1800 
     87 C          -0.7308  -25.8181  -52.1682 C.2       15 UNK         0.5000 
     88 O          -0.0983  -26.6354  -52.8392 O.2       15 UNK        -0.5000 
     89 N          -1.9683  -25.4073  -52.4748 N.am      16 UNK        -0.5000 
     90 CA         -2.7636  -25.9224  -53.5964 C.3       16 UNK         0.1400 
     91 CB         -2.6858  -24.9471  -54.7817 C.3       16 UNK        -0.1800 
     92 C          -4.2184  -26.2319  -53.1914 C.2       16 UNK         0.5000 
     93 O          -5.0708  -26.3894  -54.0671 O.2       16 UNK        -0.5000 
     94 N          -4.4774  -26.3210  -51.8788 N.am      17 UNK        -0.5000 
     95 CA         -5.7435  -26.6065  -51.1882 C.3       17 UNK         0.1400 
     96 CB         -6.2705  -28.0098  -51.5425 C.3       17 UNK        -0.1800 
     97 C          -6.8444  -25.5381  -51.3578 C.2       17 UNK         0.5000 
     98 O          -7.4265  -25.1093  -50.3603 O.2       17 UNK        -0.5000 
     99 N          -7.1220  -25.1322  -52.6006 N.am      18 UNK        -0.5000 
    100 CA        -8.0639  -24.0737  -52.9478 C.3       18 UNK         0.1400 
    101 CB        -8.6561  -24.3636  -54.3359 C.3       18 UNK        -0.1800 
    102 C         -7.3217  -22.7325  -52.9468 C.2       18 UNK         0.5000 
    103 O         -6.3743  -22.5722  -53.7187 O.2       18 UNK        -0.5000 
    104 N         -7.7545  -21.7853  -52.1044 N.am      19 UNK        -0.5000 
    105 CA        -7.1117  -20.4784  -51.9052 C.3       19 UNK         0.1400 
    106 CB        -7.8501  -19.7138  -50.7975 C.3       19 UNK        -0.1800 
    107 C         -6.9924  -19.6185  -53.1801 C.2       19 UNK         0.5000 
    108 O         -6.0404  -18.8487  -53.3041 O.2       19 UNK        -0.5000 
    109 N         -7.9132  -19.8134  -54.1347 N.am      20 UNK        -0.5000 
    110 CA        -7.8821  -19.2109  -55.4710 C.3       20 UNK         0.1400 
    111 CB        -9.2027  -19.5293  -56.1886 C.3       20 UNK        -0.1800 
    112 C         -6.6807  -19.6632  -56.3304 C.2       20 UNK         0.5000 
    113 O         -6.2702  -18.9260  -57.2273 O.2       20 UNK        -0.5000 
    114 N         -6.1329  -20.8488  -56.0330 N.am      21 UNK        -0.5000 
    115 CA        -4.9390  -21.4213  -56.6555 C.3       21 UNK         0.1400 
    116 CB        -5.2267  -22.8977  -56.9831 C.3       21 UNK        -0.1800 
    117 C         -3.6974  -21.2922  -55.7475 C.2       21 UNK         0.5000 
    118 O         -2.6544  -21.8548  -56.0812 O.2       21 UNK        -0.5000 
    119 N         -3.8214  -20.5688  -54.6251 N.am      22 UNK        -0.5000 
    120 CA        -2.8363  -20.4680  -53.5355 C.3       22 UNK         0.1400 
    121 C         -2.8391  -21.6922  -52.5688 C.2       22 UNK         0.5000 
    122 N         -3.9136  -22.4638  -52.4792 N.am      22 UNK        -0.7600 
    123 O         -1.8779  -21.9405  -51.8531 O.2       22 UNK        -0.5000 
    124 C124       -1.4202  -20.0257  -54.0128 C.3       23 UNK        -0.0398 
    125 S125       -0.5607  -18.9535  -52.8092 S.3       23 UNK        -0.2404 
    126 C126        0.8969  -19.9777  -52.4046 C.3       23 UNK        -0.0205 
    127 H127       -2.4117  -14.6473  -49.9898 H         1 UNK         0.0600 
    128 H128       -2.1571  -12.9002  -50.0198 H         1 UNK         0.0600 
    129 H129       -3.3003  -13.6063  -48.8730 H         1 UNK         0.0600 
    130 H130       -0.3021  -12.2926  -49.0429 H         1 UNK         0.3000 
    131 H131        1.3475  -11.9688  -47.6901 H         1 UNK         0.0600 
    132 H132        3.0804  -13.6958  -47.6019 H         1 UNK         0.0800 
    133 H133        2.3418  -13.5577  -49.1634 H         1 UNK         0.0800 
    134 H134        3.8684  -15.9666  -49.4056 H         1 UNK         0.0800 
    135 H135        2.5169  -15.6072  -50.4557 H         1 UNK         0.0800 
    136 H136        1.3540  -17.3758  -51.5460 H         1 UNK         0.1150 
    137 H137        2.3464  -21.4560  -50.6657 H         1 UNK         0.1150 
    138 H138        3.9415  -18.2855  -48.2636 H         1 UNK         0.1150 
    139 H139        4.7538  -21.4627  -49.2027 H         1 UNK         0.0800 
    140 H140        4.5750  -20.5033  -47.7568 H         1 UNK         0.0800 
    141 H141        2.1070  -20.3067  -46.7624 H         1 UNK         0.0800 
    142 H142        2.3806  -21.5976  -45.6250 H         1 UNK         0.0800 
    143 H143        0.4202  -22.8553  -46.6562 H         1 UNK         0.0600 
    144 H144        0.2907  -20.7738  -44.8041 H         1 UNK         0.3000 
    145 H145       -3.2203  -20.9574  -44.0318 H         1 UNK         0.0600 
    146 H146       -2.1873  -21.2439  -41.7955 H         1 UNK         0.0600 
    147 H147       -0.6391  -21.6500  -42.5304 H         1 UNK         0.0600 
    148 H148       -2.0214  -22.7166  -42.7406 H         1 UNK         0.0600 
    149 H149       -1.1553  -19.2542  -43.0467 H         1 UNK         0.3000 
    150 H150       -1.6580  -16.5517  -45.3503 H         1 UNK         0.0600 
    151 H151       -3.2572  -16.1003  -43.6075 H         1 UNK         0.0600 
    152 H152       -1.7294  -15.5314  -42.9525 H         1 UNK         0.0600 
    153 H153       -2.3966  -17.0598  -42.4201 H         1 UNK         0.0600 
    154 H154        0.2217  -16.7990  -43.2795 H         1 UNK         0.3000 
    155 H155        2.7784  -18.6125  -45.0255 H         1 UNK         0.0600 
    156 H156        3.1780  -16.2843  -45.6228 H         1 UNK         0.0600 
    157 H157        4.0236  -16.6102  -44.1216 H         1 UNK         0.0600 
    158 H158        2.5119  -15.7040  -44.1103 H         1 UNK         0.0600 
    159 H159        2.4409  -17.5835  -42.3455 H         1 UNK         0.3000 
    160 H160        1.1753  -20.6037  -40.9371 H         1 UNK         0.0600 
    161 H161        3.9521  -19.3190  -40.6946 H         1 UNK         0.0600 
    162 H162        3.6382  -21.0075  -41.0778 H         1 UNK         0.0600 
    163 H163        3.1886  -20.3724  -39.5034 H         1 UNK         0.0600 
    164 H164        1.9883  -18.1039  -39.8044 H         1 UNK         0.3000 
    165 H165       -0.9713  -16.2628  -40.3988 H         1 UNK         0.0600 
    166 H166       -1.0314  -16.0637  -37.9241 H         1 UNK         0.0600 
    167 H167       -1.6527  -17.6287  -38.4233 H         1 UNK         0.0600 
    168 H168       -0.0288  -17.5056  -37.7568 H         1 UNK         0.0600 
    169 H169        1.3906  -15.7913  -38.8298 H         1 UNK         0.3000 
    170 H170        2.8981  -14.1497  -39.6452 H         1 UNK         0.0600 
    171 H171        4.1459  -16.4002  -41.3527 H         1 UNK         0.0600 
    172 H172        4.9912  -15.4371  -40.1471 H         1 UNK         0.0600 
    173 H173        3.7523  -16.5600  -39.6448 H         1 UNK         0.0600 
    174 H174        2.6098  -13.8651  -42.4340 H         1 UNK         0.3000 
    175 H175        5.2348  -11.4117  -42.8219 H         1 UNK         0.0600 
    176 H176        4.2604  -13.8338  -44.4236 H         1 UNK         0.0600 
    177 H177        5.0569  -12.4148  -45.0987 H         1 UNK         0.0600 
    178 H178        5.9229  -13.4695  -43.9912 H         1 UNK         0.0600 
    179 H179        2.6526  -11.9346  -44.0633 H         1 UNK         0.3000 
    180 H180        0.8591   -9.5451  -42.1936 H         1 UNK         0.0600 
    181 H181        0.5734   -8.2254  -44.2811 H         1 UNK         0.0600 
    182 H182        2.0311   -8.9467  -44.9653 H         1 UNK         0.0600 
    183 H183        2.1399   -7.8923  -43.5611 H         1 UNK         0.0600 
    184 H184        0.3961  -10.7688  -44.7555 H         1 UNK         0.3000 
    185 H185       -0.3938  -13.9565  -43.7517 H         1 UNK         0.0600 
    186 H186       -2.5991  -11.8789  -44.2631 H         1 UNK         0.0600 
    187 H187       -2.7452  -13.6168  -44.5262 H         1 UNK         0.0600 
    188 H188       -2.5418  -12.9887  -42.8983 H         1 UNK         0.0600 
    189 H189       -1.1218  -12.6843  -46.1415 H         1 UNK         0.3000 
    190 H190       -0.4298  -19.4335  -47.2060 H         1 UNK         0.3000 
    191 H191       -0.8304  -19.6043  -50.0043 H         1 UNK         0.0600 
    192 H192       -1.9470  -17.6228  -47.9563 H         1 UNK         0.0600 
    193 H193       -1.8858  -17.3681  -49.6980 H         1 UNK         0.0600 
    194 H194       -0.3968  -17.4929  -48.7812 H         1 UNK         0.0600 
    195 H195       -2.5916  -21.3199  -47.8611 H         1 UNK         0.3000 
    196 H196       -4.8429  -21.5255  -49.8071 H         1 UNK         0.0600 
    197 H197       -5.7832  -20.7050  -47.6641 H         1 UNK         0.0600 
    198 H198       -4.9866  -22.0055  -46.7816 H         1 UNK         0.0600 
    199 H199       -6.2586  -22.3742  -47.9432 H         1 UNK         0.0600 
    200 H200       -2.8440  -23.2100  -47.3192 H         1 UNK         0.3000 
    201 H201       -3.6026  -25.7917  -47.9988 H         1 UNK         0.0600 
    202 H202       -2.5787  -25.1410  -45.8425 H         1 UNK         0.0600 
    203 H203       -1.0410  -24.8120  -46.6390 H         1 UNK         0.0600 
    204 H204       -1.6659  -26.4552  -46.5672 H         1 UNK         0.0600 
    205 H205       -1.0228  -23.8771  -49.5598 H         1 UNK         0.3000 
    206 H206        0.5194  -26.0609  -50.4629 H         1 UNK         0.0600 
    207 H207        0.3230  -23.2321  -51.5874 H         1 UNK         0.0600 
    208 H208        1.4064  -23.7755  -50.3102 H         1 UNK         0.0600 
    209 H209        1.6022  -24.3816  -51.9480 H         1 UNK         0.0600 
    210 H210       -2.3895  -24.6884  -51.9018 H         1 UNK         0.3000 
    211 H211       -2.3518  -26.8779  -53.9266 H         1 UNK         0.0600 
    212 H212       -3.1992  -24.0141  -54.5599 H         1 UNK         0.0600 
    213 H213       -3.1530  -25.3696  -55.6718 H         1 UNK         0.0600 
    214 H214       -1.6534  -24.7098  -55.0382 H         1 UNK         0.0600 
    215 H215       -3.6987  -26.1611  -51.2555 H         1 UNK         0.3000 
    216 H216       -5.4901  -26.6166  -50.1268 H         1 UNK         0.0600 
    217 H217       -7.1552  -28.2525  -50.9526 H         1 UNK         0.0600 
    218 H218       -5.5222  -28.7748  -51.3357 H         1 UNK         0.0600 
    219 H219       -6.5496  -28.0889  -52.5935 H         1 UNK         0.0600 
    220 H220       -6.5454  -25.5016  -53.3527 H         1 UNK         0.3000 
    221 H221       -8.8806  -24.0442  -52.2235 H         1 UNK         0.0600 
    222 H222       -7.8820  -24.4206  -55.1029 H         1 UNK         0.0600 
    223 H223       -9.1997  -25.3084  -54.3410 H         1 UNK         0.0600 
    224 H224       -9.3568  -23.5825  -54.6333 H         1 UNK         0.0600 
    225 H225       -8.5398  -21.9916  -51.5038 H         1 UNK         0.3000 
    226 H226       -6.0932  -20.6667  -51.5621 H         1 UNK         0.0600 
    227 H227       -7.8347  -20.2679  -49.8587 H         1 UNK         0.0600 
    228 H228       -7.3786  -18.7482  -50.6091 H         1 UNK         0.0600 
    229 H229       -8.8912  -19.5263  -51.0630 H         1 UNK         0.0600 
    230 H230       -8.6577  -20.4698  -53.9511 H         1 UNK         0.3000 
    231 H231       -7.8089  -18.1282  -55.3495 H         1 UNK         0.0600 
    232 H232       -9.2295  -19.0728  -57.1790 H         1 UNK         0.0600 
    233 H233      -10.0575  -19.1446  -55.6321 H         1 UNK         0.0600 
    234 H234       -9.3406  -20.6035  -56.3184 H         1 UNK         0.0600 
    235 H235       -6.5052  -21.3831  -55.2537 H         1 UNK         0.3000 
    236 H236       -4.7121  -20.9034  -57.5893 H         1 UNK         0.0600 
    237 H237       -5.4009  -23.4850  -56.0805 H         1 UNK         0.0600 
    238 H238       -6.1049  -22.9962  -57.6211 H         1 UNK         0.0600 
    239 H239       -4.3895  -23.3540  -57.5124 H         1 UNK         0.0600 
    240 H240       -4.7063  -20.1132  -54.4418 H         1 UNK         0.3000 
    241 H241       -3.2305  -19.6558  -52.9244 H         1 UNK         0.0600 
    242 H242       -3.9541  -23.1578  -51.7423 H         1 UNK         0.3800 
    243 H243       -4.7255  -22.3354  -53.0775 H         1 UNK         0.3800 
    244 H244       -0.8071  -20.8916  -54.2678 H         1 UNK         0.0800 
    245 H245       -1.5015  -19.4431  -54.9312 H         1 UNK         0.0800 
    246 H246        1.5373  -20.0477  -53.2844 H         1 UNK         0.0800 
    247 H247        0.5513  -20.9882  -52.1880 H         1 UNK         0.0800 
@<TRIPOS>BOND
     1    1    2 1    
     2    1  127 1    
     3    1  128 1    
     4    1  129 1    
     5    2    3 2    
     6    2    4 am   BACKBONE|DICT|INTERRES
     7    4    5 1    
     8    4  130 1    
     9    5    6 1    
    10    5   65 1    
    11    5  131 1    
    12    6    7 1    
    13    6  132 1    
    14    6  133 1    
    15    7    8 1    
    16    8    9 1    
    17    8  134 1    
    18    8  135 1    
    19    9   10 ar   
    20    9   14 ar   
    21   10   11 ar   
    22   10  136 1    
    23   11   12 ar   
    24   11  126 1    
    25   12   13 ar   
    26   12  137 1    
    27   13   14 ar   
    28   13   15 1    
    29   14  138 1    
    30   15   16 1    
    31   15  139 1    
    32   15  140 1    
    33   16   17 1    
    34   17   18 1    
    35   17  141 1    
    36   17  142 1    
    37   18   19 1    
    38   18   67 1    
    39   18  143 1    
    40   19   20 am   BACKBONE|DICT|INTERRES
    41   19  144 1    
    42   20   21 2    
    43   20   22 1    
    44   22   23 1    
    45   22   24 1    
    46   22  145 1    
    47   23  146 1    
    48   23  147 1    
    49   23  148 1    
    50   24   25 am   BACKBONE|DICT|INTERRES
    51   24  149 1    
    52   25   26 2    
    53   25   27 1    
    54   27   28 1    
    55   27   29 1    
    56   27  150 1    
    57   28  151 1    
    58   28  152 1    
    59   28  153 1    
    60   29   30 am   BACKBONE|DICT|INTERRES
    61   29  154 1    
    62   30   31 2    
    63   30   32 1    
    64   32   33 1    
    65   32   34 1    
    66   32  155 1    
    67   33  156 1    
    68   33  157 1    
    69   33  158 1    
    70   34   35 am   BACKBONE|DICT|INTERRES
    71   34  159 1    
    72   35   36 2    
    73   35   37 1    
    74   37   38 1    
    75   37   39 1    
    76   37  160 1    
    77   38  161 1    
    78   38  162 1    
    79   38  163 1    
    80   39   40 am   BACKBONE|DICT|INTERRES
    81   39  164 1    
    82   40   41 2    
    83   40   42 1    
    84   42   43 1    
    85   42   44 1    
    86   42  165 1    
    87   43  166 1    
    88   43  167 1    
    89   43  168 1    
    90   44   45 am   BACKBONE|DICT|INTERRES
    91   44  169 1    
    92   45   46 2    
    93   45   47 1    
    94   47   48 1    
    95   47   49 1    
    96   47  170 1    
    97   48  171 1    
    98   48  172 1    
    99   48  173 1    
   100   49   50 am   BACKBONE|DICT|INTERRES
   101   49  174 1    
   102   50   51 2    
   103   50   52 1    
   104   52   53 1    
   105   52   54 1    
   106   52  175 1    
   107   53  176 1    
   108   53  177 1    
   109   53  178 1    
   110   54   55 am   BACKBONE|DICT|INTERRES
   111   54  179 1    
   112   55   56 2    
   113   55   57 1    
   114   57   58 1    
   115   57   59 1    
   116   57  180 1    
   117   58  181 1    
   118   58  182 1    
   119   58  183 1    
   120   59   60 am   BACKBONE|DICT|INTERRES
   121   59  184 1    
   122   60   61 2    
   123   60   62 1    
   124   62   63 1    
   125   62   64 1    
   126   62  185 1    
   127   63  186 1    
   128   63  187 1    
   129   63  188 1    
   130   64   65 am   BACKBONE|DICT|INTERRES
   131   64  189 1    
   132   65   66 2    
   133   67   68 2    
   134   67   69 am   BACKBONE|DICT|INTERRES
   135   69   70 1    
   136   69  190 1    
   137   70   71 1    
   138   70   72 1    
   139   70  191 1    
   140   71  192 1    
   141   71  193 1    
   142   71  194 1    
   143   72   73 2    
   144   72   74 am   BACKBONE|DICT|INTERRES
   145   74   75 1    
   146   74  195 1    
   147   75   76 1    
   148   75   77 1    
   149   75  196 1    
   150   76  197 1    
   151   76  198 1    
   152   76  199 1    
   153   77   78 2    
   154   77   79 am   BACKBONE|DICT|INTERRES
   155   79   80 1    
   156   79  200 1    
   157   80   81 1    
   158   80   82 1    
   159   80  201 1    
   160   81  202 1    
   161   81  203 1    
   162   81  204 1    
   163   82   83 2    
   164   82   84 am   BACKBONE|DICT|INTERRES
   165   84   85 1    
   166   84  205 1    
   167   85   86 1    
   168   85   87 1    
   169   85  206 1    
   170   86  207 1    
   171   86  208 1    
   172   86  209 1    
   173   87   88 2    
   174   87   89 am   BACKBONE|DICT|INTERRES
   175   89   90 1    
   176   89  210 1    
   177   90   91 1    
   178   90   92 1    
   179   90  211 1    
   180   91  212 1    
   181   91  213 1    
   182   91  214 1    
   183   92   93 2    
   184   92   94 am   BACKBONE|DICT|INTERRES
   185   94   95 1    
   186   94  215 1    
   187   95   96 1    
   188   95   97 1    
   189   95  216 1    
   190   96  217 1    
   191   96  218 1    
   192   96  219 1    
   193   97   98 2    
   194   97   99 am   BACKBONE|DICT|INTERRES
   195   99  100 1    
   196   99  220 1    
   197  100  101 1    
   198  100  102 1    
   199  100  221 1    
   200  101  222 1    
   201  101  223 1    
   202  101  224 1    
   203  102  103 2    
   204  102  104 am   BACKBONE|DICT|INTERRES
   205  104  105 1    
   206  104  225 1    
   207  105  106 1    
   208  105  107 1    
   209  105  226 1    
   210  106  227 1    
   211  106  228 1    
   212  106  229 1    
   213  107  108 2    
   214  107  109 am   BACKBONE|DICT|INTERRES
   215  109  110 1    
   216  109  230 1    
   217  110  111 1    
   218  110  112 1    
   219  110  231 1    
   220  111  232 1    
   221  111  233 1    
   222  111  234 1    
   223  112  113 2    
   224  112  114 am   BACKBONE|DICT|INTERRES
   225  114  115 1    
   226  114  235 1    
   227  115  116 1    
   228  115  117 1    
   229  115  236 1    
   230  116  237 1    
   231  116  238 1    
   232  116  239 1    
   233  117  118 2    
   234  117  119 am   BACKBONE|DICT|INTERRES
   235  119  120 1    
   236  119  240 1    
   237  120  121 1    
   238  120  124 1    
   239  120  241 1    
   240  121  122 am   BACKBONE|DICT|INTERRES
   241  121  123 2    
   242  122  242 1    
   243  122  243 1    
   244  124  125 1    
   245  124  244 1    
   246  124  245 1    
   247  125  126 1    
   248  126  246 1    
   249  126  247 1    
@<TRIPOS>SUBSTRUCTURE
     1 UNK         1 GROUP             0       ****    0 ROOT    
