@<TRIPOS>MOLECULE
3R540
247   249    1
SMALL
USER_CHARGES


@<TRIPOS>ATOM
      1 CA         -3.5145  -13.0970  -49.3973 C.3       0 UNK        -0.1800 
      2 C          -2.2295  -12.6145  -50.0545 C.2       0 UNK         0.5000 
      3 O          -2.1664  -11.4718  -50.5094 O.2       0 UNK        -0.5000 
      4 N          -1.2101  -13.4803  -50.1091 N.am      1 UNK        -0.5000 
      5 CA          0.1290  -13.1727  -50.6207 C.3       1 UNK         0.1400 
      6 C6          0.8687  -14.4727  -51.0600 C.3       23 UNK        -0.0398 
      7 S7          2.0365  -15.2529  -49.8874 S.3       23 UNK        -0.2404 
      8 C8          0.9255  -15.8647  -48.5822 C.3       23 UNK        -0.0205 
      9 C9         -0.0280  -16.9468  -49.0635 C.ar      23 UNK        -0.0193 
     10 C10        -1.4076  -16.7949  -48.9072 C.ar      23 UNK        -0.1150 
     11 C11        -2.2808  -17.8139  -49.2948 C.ar      23 UNK        -0.0193 
     12 C12        -1.7662  -18.9983  -49.8281 C.ar      23 UNK        -0.1150 
     13 C13        -0.3884  -19.1686  -49.9787 C.ar      23 UNK        -0.0193 
     14 C14         0.4731  -18.1309  -49.6083 C.ar      23 UNK        -0.1150 
     15 C15         0.1530  -20.4904  -50.5112 C.3       23 UNK        -0.0205 
     16 S16         1.5790  -21.1521  -49.5763 S.3       23 UNK        -0.2404 
     17 C17         1.0745  -20.9508  -47.8294 C.3       23 UNK        -0.0398 
     18 CA          0.4452  -22.2112  -47.2021 C.3       11 UNK         0.1400 
     19 N           0.4460  -22.1306  -45.7414 N.am      11 UNK        -0.5000 
     20 C           0.1074  -23.1273  -44.9145 C.2       10 UNK         0.5000 
     21 O          -0.2261  -24.2486  -45.2989 O.2       10 UNK        -0.5000 
     22 CA          0.0874  -22.7940  -43.4120 C.3       10 UNK         0.1400 
     23 CB          1.5103  -22.7695  -42.8342 C.3       10 UNK        -0.1800 
     24 N          -0.5774  -21.5184  -43.1395 N.am      10 UNK        -0.5000 
     25 C          -1.8817  -21.2905  -43.3524 C.2       9 UNK         0.5000 
     26 O          -2.6708  -22.1516  -43.7419 O.2       9 UNK        -0.5000 
     27 CA         -2.3858  -19.8538  -43.1247 C.3       9 UNK         0.1400 
     28 CB         -2.6439  -19.5997  -41.6321 C.3       9 UNK        -0.1800 
     29 N          -1.4760  -18.8339  -43.6506 N.am      9 UNK        -0.5000 
     30 C          -1.1589  -18.6951  -44.9462 C.2       8 UNK         0.5000 
     31 O          -1.6131  -19.4063  -45.8390 O.2       8 UNK        -0.5000 
     32 CA         -0.1184  -17.6211  -45.3048 C.3       8 UNK         0.1400 
     33 CB         -0.7476  -16.2199  -45.3086 C.3       8 UNK        -0.1800 
     34 N           1.0378  -17.6379  -44.4121 N.am      8 UNK        -0.5000 
     35 C           1.8680  -18.6776  -44.2516 C.2       7 UNK         0.5000 
     36 O           1.7764  -19.7346  -44.8744 O.2       7 UNK        -0.5000 
     37 CA          2.9451  -18.5316  -43.1657 C.3       7 UNK         0.1400 
     38 CB          4.1224  -17.6777  -43.6627 C.3       7 UNK        -0.1800 
     39 N           2.3953  -17.9568  -41.9385 N.am      7 UNK        -0.5000 
     40 C           1.5161  -18.5788  -41.1396 C.2       6 UNK         0.5000 
     41 O           1.1038  -19.7233  -41.3321 O.2       6 UNK        -0.5000 
     42 CA          0.9808  -17.7668  -39.9463 C.3       6 UNK         0.1400 
     43 CB          1.9647  -17.8203  -38.7680 C.3       6 UNK        -0.1800 
     44 N           0.7131  -16.3696  -40.2933 N.am      6 UNK        -0.5000 
     45 C          -0.2581  -15.9748  -41.1286 C.2       5 UNK         0.5000 
     46 O          -1.0444  -16.7468  -41.6752 O.2       5 UNK        -0.5000 
     47 CA         -0.3362  -14.4689  -41.4408 C.3       5 UNK         0.1400 
     48 CB         -1.1438  -13.7346  -40.3602 C.3       5 UNK        -0.1800 
     49 N           0.9731  -13.8259  -41.5926 N.am      5 UNK        -0.5000 
     50 C           1.8881  -14.1692  -42.5083 C.2       4 UNK         0.5000 
     51 O           1.7615  -15.1262  -43.2753 O.2       4 UNK        -0.5000 
     52 CA          3.1803  -13.3319  -42.5403 C.3       4 UNK         0.1400 
     53 CB          4.2064  -13.9090  -41.5525 C.3       4 UNK        -0.1800 
     54 N           3.7782  -13.3035  -43.8765 N.am      4 UNK        -0.5000 
     55 C           3.2184  -12.7350  -44.9520 C.2       3 UNK         0.5000 
     56 O           2.1807  -12.0668  -44.9133 O.2       3 UNK        -0.5000 
     57 CA          3.9402  -12.9633  -46.2901 C.3       3 UNK         0.1400 
     58 CB          3.9452  -14.4550  -46.6712 C.3       3 UNK        -0.1800 
     59 N           3.2734  -12.1909  -47.3342 N.am      3 UNK        -0.5000 
     60 C           3.8460  -11.6894  -48.4313 C.2       2 UNK         0.5000 
     61 O           5.0267  -11.8791  -48.7309 O.2       2 UNK        -0.5000 
     62 CA          2.9359  -10.8451  -49.3498 C.3       2 UNK         0.1400 
     63 CB          3.7384   -9.9671  -50.3271 C.3       2 UNK        -0.1800 
     64 N           2.0187  -11.6842  -50.1220 N.am      2 UNK        -0.5000 
     65 C           0.9185  -12.2731  -49.6364 C.2       1 UNK         0.5000 
     66 O           0.5392  -12.1395  -48.4687 O.2       1 UNK        -0.5000 
     67 C          -0.9636  -22.4952  -47.7622 C.2       11 UNK         0.5000 
     68 O          -1.0970  -23.3538  -48.6291 O.2       11 UNK        -0.5000 
     69 N          -1.9927  -21.8272  -47.2236 N.am      12 UNK        -0.5000 
     70 CA         -3.3983  -22.0150  -47.5910 C.3       12 UNK         0.1400 
     71 CB         -4.2372  -20.8996  -46.9499 C.3       12 UNK        -0.1800 
     72 C          -3.9788  -23.3917  -47.2131 C.2       12 UNK         0.5000 
     73 O          -5.0062  -23.7794  -47.7732 O.2       12 UNK        -0.5000 
     74 N          -3.3337  -24.0915  -46.2704 N.am      13 UNK        -0.5000 
     75 CA         -3.6457  -25.4694  -45.9022 C.3       13 UNK         0.1400 
     76 CB         -3.3186  -25.6917  -44.4176 C.3       13 UNK        -0.1800 
     77 C          -2.8836  -26.4676  -46.7913 C.2       13 UNK         0.5000 
     78 O          -3.4648  -27.4743  -47.1964 O.2       13 UNK        -0.5000 
     79 N          -1.6076  -26.1737  -47.0861 N.am      14 UNK        -0.5000 
     80 CA         -0.7445  -26.9674  -47.9648 C.3       14 UNK         0.1400 
     81 CB          0.7046  -26.4690  -47.8477 C.3       14 UNK        -0.1800 
     82 C          -1.2264  -26.9419  -49.4270 C.2       14 UNK         0.5000 
     83 O          -1.4482  -27.9975  -50.0217 O.2       14 UNK        -0.5000 
     84 N          -1.4391  -25.7321  -49.9555 N.am      15 UNK        -0.5000 
     85 CA         -2.1498  -25.4560  -51.1976 C.3       15 UNK         0.1400 
     86 CB         -1.5107  -24.2322  -51.8773 C.3       15 UNK        -0.1800 
     87 C          -3.6228  -25.2375  -50.8165 C.2       15 UNK         0.5000 
     88 O          -4.0814  -24.0957  -50.7327 O.2       15 UNK        -0.5000 
     89 N          -4.2842  -26.3600  -50.5012 N.am      16 UNK        -0.5000 
     90 CA         -5.5821  -26.4763  -49.8369 C.3       16 UNK         0.1400 
     91 CB         -6.0171  -27.9495  -49.8607 C.3       16 UNK        -0.1800 
     92 C          -6.6941  -25.5814  -50.4100 C.2       16 UNK         0.5000 
     93 O          -6.8224  -25.4582  -51.6302 O.2       16 UNK        -0.5000 
     94 N          -7.4876  -25.0088  -49.4948 N.am      17 UNK        -0.5000 
     95 CA         -8.5842  -24.0674  -49.7348 C.3       17 UNK         0.1400 
     96 CB         -9.7190  -24.7231  -50.5511 C.3       17 UNK        -0.1800 
     97 C          -8.1012  -22.7249  -50.3227 C.2       17 UNK         0.5000 
     98 O          -8.8148  -22.1170  -51.1227 O.2       17 UNK        -0.5000 
     99 N          -6.9094  -22.2815  -49.8889 N.am      18 UNK        -0.5000 
    100 CA        -6.2503  -21.0260  -50.2638 C.3       18 UNK         0.1400 
    101 CB        -7.0379  -19.8117  -49.7253 C.3       18 UNK        -0.1800 
    102 C         -5.9524  -20.9392  -51.7733 C.2       18 UNK         0.5000 
    103 O         -6.3539  -19.9812  -52.4363 O.2       18 UNK        -0.5000 
    104 N         -5.2562  -21.9573  -52.2878 N.am      19 UNK        -0.5000 
    105 CA        -4.7541  -22.0083  -53.6579 C.3       19 UNK         0.1400 
    106 CB        -4.8261  -23.4676  -54.1462 C.3       19 UNK        -0.1800 
    107 C         -3.3293  -21.4178  -53.7436 C.2       19 UNK         0.5000 
    108 O         -2.8517  -20.7891  -52.7938 O.2       19 UNK        -0.5000 
    109 N         -2.6755  -21.6319  -54.8947 N.am      20 UNK        -0.5000 
    110 CA        -1.3139  -21.2065  -55.2317 C.3       20 UNK         0.1400 
    111 CB        -0.2758  -21.9922  -54.3978 C.3       20 UNK        -0.1800 
    112 C         -1.1566  -19.6730  -55.1678 C.2       20 UNK         0.5000 
    113 O         -1.8745  -18.9683  -55.8808 O.2       20 UNK        -0.5000 
    114 N         -0.2368  -19.1800  -54.3268 N.am      21 UNK        -0.5000 
    115 CA         0.1227  -17.7661  -54.1799 C.3       21 UNK         0.1400 
    116 CB         1.3431  -17.6513  -53.2546 C.3       21 UNK        -0.1800 
    117 C         -1.0190  -16.8405  -53.7100 C.2       21 UNK         0.5000 
    118 O         -0.9074  -15.6273  -53.8921 O.2       21 UNK        -0.5000 
    119 N         -2.1000  -17.4079  -53.1556 N.am      22 UNK        -0.5000 
    120 CA        -3.3592  -16.6882  -52.9001 C.3       22 UNK         0.1400 
    121 C         -4.1494  -16.3042  -54.1900 C.2       22 UNK         0.5000 
    122 N         -3.8541  -16.8687  -55.3564 N.am      22 UNK        -0.7600 
    123 O         -5.0471  -15.4687  -54.1317 O.2       22 UNK        -0.5000 
    124 C124       -4.2698  -17.4425  -51.8878 C.3       23 UNK        -0.0398 
    125 S125       -4.5004  -16.5150  -50.3342 S.3       23 UNK        -0.2404 
    126 C126       -3.7788  -17.6461  -49.1075 C.3       23 UNK        -0.0205 
    127 H127       -3.8727  -12.3567  -48.6818 H         1 UNK         0.0600 
    128 H128       -3.3688  -14.0359  -48.8636 H         1 UNK         0.0600 
    129 H129       -4.2878  -13.2477  -50.1506 H         1 UNK         0.0600 
    130 H130       -1.3220  -14.4016  -49.7159 H         1 UNK         0.3000 
    131 H131       -0.0184  -12.5783  -51.5255 H         1 UNK         0.0600 
    132 H132        0.1547  -15.2283  -51.3892 H         1 UNK         0.0800 
    133 H133        1.4548  -14.2459  -51.9515 H         1 UNK         0.0800 
    134 H134        0.3862  -15.0248  -48.1424 H         1 UNK         0.0800 
    135 H135        1.5344  -16.2878  -47.7835 H         1 UNK         0.0800 
    136 H136       -1.8086  -15.8952  -48.4645 H         1 UNK         0.1150 
    137 H137       -2.4380  -19.7955  -50.1146 H         1 UNK         0.1150 
    138 H138        1.5414  -18.2554  -49.7152 H         1 UNK         0.1150 
    139 H139       -0.6336  -21.2460  -50.5209 H         1 UNK         0.0800 
    140 H140        0.4533  -20.3505  -51.5488 H         1 UNK         0.0800 
    141 H141        0.4268  -20.0869  -47.6852 H         1 UNK         0.0800 
    142 H142        1.9926  -20.7079  -47.2939 H         1 UNK         0.0800 
    143 H143        1.0761  -23.0630  -47.4636 H         1 UNK         0.0600 
    144 H144        0.7381  -21.2418  -45.3418 H         1 UNK         0.3000 
    145 H145       -0.4720  -23.5823  -42.9040 H         1 UNK         0.0600 
    146 H146        1.4935  -22.6101  -41.7559 H         1 UNK         0.0600 
    147 H147        2.0222  -23.7153  -43.0161 H         1 UNK         0.0600 
    148 H148        2.1140  -21.9773  -43.2779 H         1 UNK         0.0600 
    149 H149        0.0015  -20.7675  -42.7789 H         1 UNK         0.3000 
    150 H150       -3.3356  -19.7516  -43.6536 H         1 UNK         0.0600 
    151 H151       -3.3200  -20.3489  -41.2183 H         1 UNK         0.0600 
    152 H152       -3.1040  -18.6244  -41.4730 H         1 UNK         0.0600 
    153 H153       -1.7208  -19.6327  -41.0526 H         1 UNK         0.0600 
    154 H154       -1.0957  -18.1750  -42.9769 H         1 UNK         0.3000 
    155 H155        0.2414  -17.8388  -46.3115 H         1 UNK         0.0600 
    156 H156       -1.1045  -15.9369  -44.3187 H         1 UNK         0.0600 
    157 H157       -1.5993  -16.1757  -45.9877 H         1 UNK         0.0600 
    158 H158       -0.0299  -15.4653  -45.6308 H         1 UNK         0.0600 
    159 H159        1.2160  -16.7875  -43.8821 H         1 UNK         0.3000 
    160 H160        3.3238  -19.5293  -42.9336 H         1 UNK         0.0600 
    161 H161        4.9061  -17.6094  -42.9081 H         1 UNK         0.0600 
    162 H162        3.8137  -16.6640  -43.9178 H         1 UNK         0.0600 
    163 H163        4.5688  -18.1161  -44.5560 H         1 UNK         0.0600 
    164 H164        2.6313  -16.9960  -41.7421 H         1 UNK         0.3000 
    165 H165        0.0419  -18.2245  -39.6272 H         1 UNK         0.0600 
    166 H166        1.5585  -17.3136  -37.8923 H         1 UNK         0.0600 
    167 H167        2.1705  -18.8518  -38.4789 H         1 UNK         0.0600 
    168 H168        2.9182  -17.3520  -39.0152 H         1 UNK         0.0600 
    169 H169        1.3174  -15.6698  -39.8888 H         1 UNK         0.3000 
    170 H170       -0.8651  -14.3603  -42.3898 H         1 UNK         0.0600 
    171 H171       -2.1313  -14.1822  -40.2392 H         1 UNK         0.0600 
    172 H172       -0.6462  -13.7700  -39.3903 H         1 UNK         0.0600 
    173 H173       -1.2941  -12.6873  -40.6231 H         1 UNK         0.0600 
    174 H174        1.1583  -13.0392  -40.9870 H         1 UNK         0.3000 
    175 H175        2.9433  -12.3067  -42.2487 H         1 UNK         0.0600 
    176 H176        4.4829  -14.9324  -41.8101 H         1 UNK         0.0600 
    177 H177        5.1171  -13.3101  -41.5354 H         1 UNK         0.0600 
    178 H178        3.8101  -13.9220  -40.5364 H         1 UNK         0.0600 
    179 H179        4.6173  -13.8504  -43.9984 H         1 UNK         0.3000 
    180 H180        4.9677  -12.6102  -46.1806 H         1 UNK         0.0600 
    181 H181        2.9366  -14.8660  -46.6564 H         1 UNK         0.0600 
    182 H182        4.5457  -15.0408  -45.9749 H         1 UNK         0.0600 
    183 H183        4.3595  -14.6137  -47.6669 H         1 UNK         0.0600 
    184 H184        2.2908  -12.0020  -47.1608 H         1 UNK         0.3000 
    185 H185        2.3520  -10.1770  -48.7127 H         1 UNK         0.0600 
    186 H186        4.4335   -9.3205  -49.7899 H         1 UNK         0.0600 
    187 H187        4.3213  -10.5674  -51.0268 H         1 UNK         0.0600 
    188 H188        3.0797   -9.3213  -50.9080 H         1 UNK         0.0600 
    189 H189        2.2907  -11.8685  -51.0767 H         1 UNK         0.3000 
    190 H190       -1.8020  -21.0859  -46.5519 H         1 UNK         0.3000 
    191 H191       -3.4641  -21.9254  -48.6765 H         1 UNK         0.0600 
    192 H192       -4.1912  -20.9440  -45.8612 H         1 UNK         0.0600 
    193 H193       -5.2863  -20.9773  -47.2366 H         1 UNK         0.0600 
    194 H194       -3.8855  -19.9154  -47.2546 H         1 UNK         0.0600 
    195 H195       -2.5260  -23.6727  -45.8289 H         1 UNK         0.3000 
    196 H196       -4.7148  -25.6473  -46.0368 H         1 UNK         0.0600 
    197 H197       -3.5842  -26.7033  -44.1083 H         1 UNK         0.0600 
    198 H198       -3.8758  -25.0001  -43.7852 H         1 UNK         0.0600 
    199 H199       -2.2583  -25.5530  -44.2073 H         1 UNK         0.0600 
    200 H200       -1.1889  -25.3509  -46.6651 H         1 UNK         0.3000 
    201 H201       -0.7749  -28.0031  -47.6201 H         1 UNK         0.0600 
    202 H202        1.0648  -26.5444  -46.8214 H         1 UNK         0.0600 
    203 H203        0.8015  -25.4285  -48.1583 H         1 UNK         0.0600 
    204 H204        1.3730  -27.0622  -48.4728 H         1 UNK         0.0600 
    205 H205       -1.2699  -24.9098  -49.3743 H         1 UNK         0.3000 
    206 H206       -2.0777  -26.3050  -51.8805 H         1 UNK         0.0600 
    207 H207       -1.9611  -24.0509  -52.8517 H         1 UNK         0.0600 
    208 H208       -1.6307  -23.3238  -51.2865 H         1 UNK         0.0600 
    209 H209       -0.4434  -24.3834  -52.0382 H         1 UNK         0.0600 
    210 H210       -3.7755  -27.2279  -50.5943 H         1 UNK         0.3000 
    211 H211       -5.4181  -26.1938  -48.7961 H         1 UNK         0.0600 
    212 H212       -6.1361  -28.3153  -50.8813 H         1 UNK         0.0600 
    213 H213       -6.9709  -28.0857  -49.3491 H         1 UNK         0.0600 
    214 H214       -5.2875  -28.5845  -49.3572 H         1 UNK         0.0600 
    215 H215       -7.2673  -25.1655  -48.5205 H         1 UNK         0.3000 
    216 H216       -8.9922  -23.8285  -48.7517 H         1 UNK         0.0600 
    217 H217      -10.5985  -24.0789  -50.5824 H         1 UNK         0.0600 
    218 H218      -10.0279  -25.6698  -50.1082 H         1 UNK         0.0600 
    219 H219       -9.4213  -24.9153  -51.5821 H         1 UNK         0.0600 
    220 H220       -6.3788  -22.8858  -49.2705 H         1 UNK         0.3000 
    221 H221       -5.2789  -21.0248  -49.7719 H         1 UNK         0.0600 
    222 H222       -8.0338  -19.7438  -50.1634 H         1 UNK         0.0600 
    223 H223       -7.1510  -19.8634  -48.6427 H         1 UNK         0.0600 
    224 H224       -6.5253  -18.8777  -49.9541 H         1 UNK         0.0600 
    225 H225       -4.9314  -22.6983  -51.6697 H         1 UNK         0.3000 
    226 H226       -5.3932  -21.4074  -54.3078 H         1 UNK         0.0600 
    227 H227       -4.5762  -23.5534  -55.2037 H         1 UNK         0.0600 
    228 H228       -4.1499  -24.1162  -53.5918 H         1 UNK         0.0600 
    229 H229       -5.8331  -23.8683  -54.0255 H         1 UNK         0.0600 
    230 H230       -3.1636  -22.1199  -55.6318 H         1 UNK         0.3000 
    231 H231       -1.1588  -21.4756  -56.2775 H         1 UNK         0.0600 
    232 H232       -0.3820  -23.0643  -54.5626 H         1 UNK         0.0600 
    233 H233       -0.3833  -21.8140  -53.3280 H         1 UNK         0.0600 
    234 H234        0.7440  -21.7302  -54.6823 H         1 UNK         0.0600 
    235 H235        0.2910  -19.8340  -53.7691 H         1 UNK         0.3000 
    236 H236        0.4215  -17.4098  -55.1678 H         1 UNK         0.0600 
    237 H237        2.1891  -18.2192  -53.6417 H         1 UNK         0.0600 
    238 H238        1.6679  -16.6147  -53.1583 H         1 UNK         0.0600 
    239 H239        1.1227  -18.0181  -52.2545 H         1 UNK         0.0600 
    240 H240       -2.1185  -18.4125  -53.0413 H         1 UNK         0.3000 
    241 H241       -3.0752  -15.7304  -52.4590 H         1 UNK         0.0600 
    242 H242       -3.1221  -17.5687  -55.4383 H         1 UNK         0.3800 
    243 H243       -4.3741  -16.6012  -56.1767 H         1 UNK         0.3800 
    244 H244       -5.2687  -17.6182  -52.2899 H         1 UNK         0.0800 
    245 H245       -3.8829  -18.4386  -51.6734 H         1 UNK         0.0800 
    246 H246       -3.9762  -17.2595  -48.1066 H         1 UNK         0.0800 
    247 H247       -4.2843  -18.6094  -49.1686 H         1 UNK         0.0800 
@<TRIPOS>BOND
     1    1    2 1    
     2    1  127 1    
     3    1  128 1    
     4    1  129 1    
     5    2    3 2    
     6    2    4 am   BACKBONE|DICT|INTERRES
     7    4    5 1    
     8    4  130 1    
     9    5    6 1    
    10    5   65 1    
    11    5  131 1    
    12    6    7 1    
    13    6  132 1    
    14    6  133 1    
    15    7    8 1    
    16    8    9 1    
    17    8  134 1    
    18    8  135 1    
    19    9   10 ar   
    20    9   14 ar   
    21   10   11 ar   
    22   10  136 1    
    23   11   12 ar   
    24   11  126 1    
    25   12   13 ar   
    26   12  137 1    
    27   13   14 ar   
    28   13   15 1    
    29   14  138 1    
    30   15   16 1    
    31   15  139 1    
    32   15  140 1    
    33   16   17 1    
    34   17   18 1    
    35   17  141 1    
    36   17  142 1    
    37   18   19 1    
    38   18   67 1    
    39   18  143 1    
    40   19   20 am   BACKBONE|DICT|INTERRES
    41   19  144 1    
    42   20   21 2    
    43   20   22 1    
    44   22   23 1    
    45   22   24 1    
    46   22  145 1    
    47   23  146 1    
    48   23  147 1    
    49   23  148 1    
    50   24   25 am   BACKBONE|DICT|INTERRES
    51   24  149 1    
    52   25   26 2    
    53   25   27 1    
    54   27   28 1    
    55   27   29 1    
    56   27  150 1    
    57   28  151 1    
    58   28  152 1    
    59   28  153 1    
    60   29   30 am   BACKBONE|DICT|INTERRES
    61   29  154 1    
    62   30   31 2    
    63   30   32 1    
    64   32   33 1    
    65   32   34 1    
    66   32  155 1    
    67   33  156 1    
    68   33  157 1    
    69   33  158 1    
    70   34   35 am   BACKBONE|DICT|INTERRES
    71   34  159 1    
    72   35   36 2    
    73   35   37 1    
    74   37   38 1    
    75   37   39 1    
    76   37  160 1    
    77   38  161 1    
    78   38  162 1    
    79   38  163 1    
    80   39   40 am   BACKBONE|DICT|INTERRES
    81   39  164 1    
    82   40   41 2    
    83   40   42 1    
    84   42   43 1    
    85   42   44 1    
    86   42  165 1    
    87   43  166 1    
    88   43  167 1    
    89   43  168 1    
    90   44   45 am   BACKBONE|DICT|INTERRES
    91   44  169 1    
    92   45   46 2    
    93   45   47 1    
    94   47   48 1    
    95   47   49 1    
    96   47  170 1    
    97   48  171 1    
    98   48  172 1    
    99   48  173 1    
   100   49   50 am   BACKBONE|DICT|INTERRES
   101   49  174 1    
   102   50   51 2    
   103   50   52 1    
   104   52   53 1    
   105   52   54 1    
   106   52  175 1    
   107   53  176 1    
   108   53  177 1    
   109   53  178 1    
   110   54   55 am   BACKBONE|DICT|INTERRES
   111   54  179 1    
   112   55   56 2    
   113   55   57 1    
   114   57   58 1    
   115   57   59 1    
   116   57  180 1    
   117   58  181 1    
   118   58  182 1    
   119   58  183 1    
   120   59   60 am   BACKBONE|DICT|INTERRES
   121   59  184 1    
   122   60   61 2    
   123   60   62 1    
   124   62   63 1    
   125   62   64 1    
   126   62  185 1    
   127   63  186 1    
   128   63  187 1    
   129   63  188 1    
   130   64   65 am   BACKBONE|DICT|INTERRES
   131   64  189 1    
   132   65   66 2    
   133   67   68 2    
   134   67   69 am   BACKBONE|DICT|INTERRES
   135   69   70 1    
   136   69  190 1    
   137   70   71 1    
   138   70   72 1    
   139   70  191 1    
   140   71  192 1    
   141   71  193 1    
   142   71  194 1    
   143   72   73 2    
   144   72   74 am   BACKBONE|DICT|INTERRES
   145   74   75 1    
   146   74  195 1    
   147   75   76 1    
   148   75   77 1    
   149   75  196 1    
   150   76  197 1    
   151   76  198 1    
   152   76  199 1    
   153   77   78 2    
   154   77   79 am   BACKBONE|DICT|INTERRES
   155   79   80 1    
   156   79  200 1    
   157   80   81 1    
   158   80   82 1    
   159   80  201 1    
   160   81  202 1    
   161   81  203 1    
   162   81  204 1    
   163   82   83 2    
   164   82   84 am   BACKBONE|DICT|INTERRES
   165   84   85 1    
   166   84  205 1    
   167   85   86 1    
   168   85   87 1    
   169   85  206 1    
   170   86  207 1    
   171   86  208 1    
   172   86  209 1    
   173   87   88 2    
   174   87   89 am   BACKBONE|DICT|INTERRES
   175   89   90 1    
   176   89  210 1    
   177   90   91 1    
   178   90   92 1    
   179   90  211 1    
   180   91  212 1    
   181   91  213 1    
   182   91  214 1    
   183   92   93 2    
   184   92   94 am   BACKBONE|DICT|INTERRES
   185   94   95 1    
   186   94  215 1    
   187   95   96 1    
   188   95   97 1    
   189   95  216 1    
   190   96  217 1    
   191   96  218 1    
   192   96  219 1    
   193   97   98 2    
   194   97   99 am   BACKBONE|DICT|INTERRES
   195   99  100 1    
   196   99  220 1    
   197  100  101 1    
   198  100  102 1    
   199  100  221 1    
   200  101  222 1    
   201  101  223 1    
   202  101  224 1    
   203  102  103 2    
   204  102  104 am   BACKBONE|DICT|INTERRES
   205  104  105 1    
   206  104  225 1    
   207  105  106 1    
   208  105  107 1    
   209  105  226 1    
   210  106  227 1    
   211  106  228 1    
   212  106  229 1    
   213  107  108 2    
   214  107  109 am   BACKBONE|DICT|INTERRES
   215  109  110 1    
   216  109  230 1    
   217  110  111 1    
   218  110  112 1    
   219  110  231 1    
   220  111  232 1    
   221  111  233 1    
   222  111  234 1    
   223  112  113 2    
   224  112  114 am   BACKBONE|DICT|INTERRES
   225  114  115 1    
   226  114  235 1    
   227  115  116 1    
   228  115  117 1    
   229  115  236 1    
   230  116  237 1    
   231  116  238 1    
   232  116  239 1    
   233  117  118 2    
   234  117  119 am   BACKBONE|DICT|INTERRES
   235  119  120 1    
   236  119  240 1    
   237  120  121 1    
   238  120  124 1    
   239  120  241 1    
   240  121  122 am   BACKBONE|DICT|INTERRES
   241  121  123 2    
   242  122  242 1    
   243  122  243 1    
   244  124  125 1    
   245  124  244 1    
   246  124  245 1    
   247  125  126 1    
   248  126  246 1    
   249  126  247 1    
@<TRIPOS>SUBSTRUCTURE
     1 UNK         1 GROUP             0       ****    0 ROOT    
