@<TRIPOS>MOLECULE
3R540
247   249    1
SMALL
USER_CHARGES


@<TRIPOS>ATOM
      1 CA         -1.1685  -16.2914  -48.6419 C.3       0 UNK        -0.1800 
      2 C          -0.9807  -15.1323  -47.6795 C.2       0 UNK         0.5000 
      3 O           0.1446  -14.6856  -47.4660 O.2       0 UNK        -0.5000 
      4 N          -2.0807  -14.6352  -47.1026 N.am      1 UNK        -0.5000 
      5 CA         -2.0807  -13.6119  -46.0499 C.3       1 UNK         0.1400 
      6 C6         -3.4534  -13.4937  -45.3454 C.3       23 UNK        -0.0398 
      7 S7         -3.9592  -15.0666  -44.5655 S.3       23 UNK        -0.2404 
      8 C8         -5.5306  -15.4478  -45.3978 C.3       23 UNK        -0.0205 
      9 C9         -5.3514  -15.7505  -46.8775 C.ar      23 UNK        -0.0193 
     10 C10        -5.6956  -14.7914  -47.8321 C.ar      23 UNK        -0.1150 
     11 C11        -5.5687  -15.0675  -49.1942 C.ar      23 UNK        -0.0193 
     12 C12        -5.1121  -16.3243  -49.5994 C.ar      23 UNK        -0.1150 
     13 C13        -4.7454  -17.2922  -48.6575 C.ar      23 UNK        -0.0193 
     14 C14        -4.8631  -16.9927  -47.2944 C.ar      23 UNK        -0.1150 
     15 C15        -4.1794  -18.6224  -49.1496 C.3       23 UNK        -0.0205 
     16 S16        -4.7440  -20.0891  -48.2205 S.3       23 UNK        -0.2404 
     17 C17        -3.4106  -20.3003  -46.9900 C.3       23 UNK        -0.0398 
     18 CA         -3.0413  -21.7911  -46.7630 C.3       11 UNK         0.1400 
     19 N          -1.6355  -21.9583  -46.3748 N.am      11 UNK        -0.5000 
     20 C          -1.0201  -23.1264  -46.1309 C.2       10 UNK         0.5000 
     21 O          -1.5603  -24.2286  -46.2332 O.2       10 UNK        -0.5000 
     22 CA          0.4285  -23.0468  -45.6148 C.3       10 UNK         0.1400 
     23 CB          1.4114  -22.7687  -46.7620 C.3       10 UNK        -0.1800 
     24 N           0.5893  -22.0449  -44.5583 N.am      10 UNK        -0.5000 
     25 C          -0.0390  -22.0927  -43.3738 C.2       9 UNK         0.5000 
     26 O          -0.7708  -23.0173  -43.0270 O.2       9 UNK        -0.5000 
     27 CA          0.1248  -20.8852  -42.4368 C.3       9 UNK         0.1400 
     28 CB          1.4449  -20.9700  -41.6571 C.3       9 UNK        -0.1800 
     29 N           0.0428  -19.6093  -43.1448 N.am      9 UNK        -0.5000 
     30 C          -1.0330  -19.1754  -43.8183 C.2       8 UNK         0.5000 
     31 O          -2.0983  -19.7904  -43.8834 O.2       8 UNK        -0.5000 
     32 CA         -0.8667  -17.8536  -44.5893 C.3       8 UNK         0.1400 
     33 CB         -0.9042  -16.6666  -43.6173 C.3       8 UNK        -0.1800 
     34 N           0.3764  -17.8145  -45.3624 N.am      8 UNK        -0.5000 
     35 C           0.7030  -18.6807  -46.3328 C.2       7 UNK         0.5000 
     36 O          -0.0499  -19.5634  -46.7417 O.2       7 UNK        -0.5000 
     37 CA          2.1300  -18.5873  -46.8989 C.3       7 UNK         0.1400 
     38 CB          2.2384  -17.5174  -47.9945 C.3       7 UNK        -0.1800 
     39 N           3.1101  -18.3208  -45.8472 N.am      7 UNK        -0.5000 
     40 C           3.4773  -19.2158  -44.9194 C.2       6 UNK         0.5000 
     41 O           3.0596  -20.3732  -44.8847 O.2       6 UNK        -0.5000 
     42 CA          4.4434  -18.7206  -43.8271 C.3       6 UNK         0.1400 
     43 CB          5.8966  -18.7822  -44.3206 C.3       6 UNK        -0.1800 
     44 N           4.1385  -17.3582  -43.3865 N.am      6 UNK        -0.5000 
     45 C           3.0323  -17.0115  -42.7129 C.2       5 UNK         0.5000 
     46 O           2.1825  -17.8193  -42.3421 O.2       5 UNK        -0.5000 
     47 CA          2.8163  -15.5077  -42.4500 C.3       5 UNK         0.1400 
     48 CB          3.4492  -15.0987  -41.1120 C.3       5 UNK        -0.1800 
     49 N           3.3422  -14.6523  -43.5182 N.am      5 UNK        -0.5000 
     50 C           2.9091  -14.6677  -44.7856 C.2       4 UNK         0.5000 
     51 O           2.0012  -15.3972  -45.1859 O.2       4 UNK        -0.5000 
     52 CA          3.6893  -13.7949  -45.7746 C.3       4 UNK         0.1400 
     53 CB          4.9838  -14.5272  -46.1891 C.3       4 UNK        -0.1800 
     54 N           2.8812  -13.4945  -46.9566 N.am      4 UNK        -0.5000 
     55 C           3.2114  -12.5766  -47.8758 C.2       3 UNK         0.5000 
     56 O           4.1743  -11.8156  -47.7644 O.2       3 UNK        -0.5000 
     57 CA          2.3430  -12.4970  -49.1391 C.3       3 UNK         0.1400 
     58 CB          2.3905  -13.8124  -49.9354 C.3       3 UNK        -0.1800 
     59 N           0.9610  -12.1545  -48.8228 N.am      3 UNK        -0.5000 
     60 C           0.4885  -10.9061  -48.7023 C.2       2 UNK         0.5000 
     61 O           1.1877   -9.8998  -48.8303 O.2       2 UNK        -0.5000 
     62 CA         -1.0131  -10.7354  -48.3932 C.3       2 UNK         0.1400 
     63 CB         -1.7970  -10.3297  -49.6517 C.3       2 UNK        -0.1800 
     64 N          -1.6039  -11.9450  -47.8182 N.am      2 UNK        -0.5000 
     65 C          -1.5699  -12.2297  -46.5087 C.2       1 UNK         0.5000 
     66 O          -1.1346  -11.4499  -45.6597 O.2       1 UNK        -0.5000 
     67 C          -4.0050  -22.4432  -45.7492 C.2       11 UNK         0.5000 
     68 O          -4.9099  -23.1774  -46.1472 O.2       11 UNK        -0.5000 
     69 N          -3.7681  -22.1786  -44.4565 N.am      12 UNK        -0.5000 
     70 CA         -4.5246  -22.7427  -43.3410 C.3       12 UNK         0.1400 
     71 CB         -4.1616  -21.9885  -42.0526 C.3       12 UNK        -0.1800 
     72 C          -4.3052  -24.2576  -43.1688 C.2       12 UNK         0.5000 
     73 O          -5.2639  -24.9767  -42.8843 O.2       12 UNK        -0.5000 
     74 N          -3.0554  -24.7122  -43.3339 N.am      13 UNK        -0.5000 
     75 CA         -2.6515  -26.1093  -43.1864 C.3       13 UNK         0.1400 
     76 CB         -1.1193  -26.2070  -43.1253 C.3       13 UNK        -0.1800 
     77 C          -3.2048  -27.0250  -44.2902 C.2       13 UNK         0.5000 
     78 O          -3.6758  -28.1194  -43.9746 O.2       13 UNK        -0.5000 
     79 N          -3.1386  -26.5802  -45.5522 N.am      14 UNK        -0.5000 
     80 CA         -3.5874  -27.3610  -46.7025 C.3       14 UNK         0.1400 
     81 CB         -2.5457  -28.4381  -47.0683 C.3       14 UNK        -0.1800 
     82 C          -3.9140  -26.4714  -47.9072 C.2       14 UNK         0.5000 
     83 O          -5.0600  -26.4628  -48.3588 O.2       14 UNK        -0.5000 
     84 N          -2.9012  -25.7744  -48.4323 N.am      15 UNK        -0.5000 
     85 CA         -2.9607  -25.0244  -49.6817 C.3       15 UNK         0.1400 
     86 CB         -2.9775  -26.0024  -50.8736 C.3       15 UNK        -0.1800 
     87 C          -1.7435  -24.0972  -49.7776 C.2       15 UNK         0.5000 
     88 O          -0.6746  -24.4379  -49.2663 O.2       15 UNK        -0.5000 
     89 N          -1.9182  -22.9680  -50.4683 N.am      16 UNK        -0.5000 
     90 CA         -0.8705  -21.9995  -50.7730 C.3       16 UNK         0.1400 
     91 CB         -1.3201  -20.6032  -50.3237 C.3       16 UNK        -0.1800 
     92 C          -0.6257  -22.0437  -52.2850 C.2       16 UNK         0.5000 
     93 O          -1.5438  -21.7479  -53.0537 O.2       16 UNK        -0.5000 
     94 N           0.5858  -22.4625  -52.6785 N.am      17 UNK        -0.5000 
     95 CA          1.0365  -22.6855  -54.0610 C.3       17 UNK         0.1400 
     96 CB          1.1249  -21.3521  -54.8304 C.3       17 UNK        -0.1800 
     97 C           0.1952  -23.7490  -54.8028 C.2       17 UNK         0.5000 
     98 O          -0.0675  -23.6097  -55.9983 O.2       17 UNK        -0.5000 
     99 N          -0.2288  -24.7816  -54.0565 N.am      18 UNK        -0.5000 
    100 CA        -1.1124  -25.8819  -54.4671 C.3       18 UNK         0.1400 
    101 CB        -0.4644  -26.7329  -55.5796 C.3       18 UNK        -0.1800 
    102 C         -2.5519  -25.4381  -54.8174 C.2       18 UNK         0.5000 
    103 O         -3.2812  -26.1906  -55.4657 O.2       18 UNK        -0.5000 
    104 N         -2.9492  -24.2456  -54.3596 N.am      19 UNK        -0.5000 
    105 CA        -4.2818  -23.6744  -54.5045 C.3       19 UNK         0.1400 
    106 CB        -4.3837  -22.9338  -55.8555 C.3       19 UNK        -0.1800 
    107 C         -4.5543  -22.7942  -53.2721 C.2       19 UNK         0.5000 
    108 O         -4.2526  -23.2095  -52.1513 O.2       19 UNK        -0.5000 
    109 N         -5.0842  -21.5882  -53.4850 N.am      20 UNK        -0.5000 
    110 CA        -5.2790  -20.5719  -52.4572 C.3       20 UNK         0.1400 
    111 CB        -6.7699  -20.4922  -52.0821 C.3       20 UNK        -0.1800 
    112 C         -4.7039  -19.2439  -52.9698 C.2       20 UNK         0.5000 
    113 O         -5.4119  -18.2363  -53.0128 O.2       20 UNK        -0.5000 
    114 N         -3.4271  -19.2724  -53.3777 N.am      21 UNK        -0.5000 
    115 CA        -2.6798  -18.0925  -53.8114 C.3       21 UNK         0.1400 
    116 CB        -1.3314  -18.5323  -54.3974 C.3       21 UNK        -0.1800 
    117 C         -2.4744  -17.1098  -52.6449 C.2       21 UNK         0.5000 
    118 O         -2.0028  -17.5216  -51.5846 O.2       21 UNK        -0.5000 
    119 N         -2.8462  -15.8429  -52.8586 N.am      22 UNK        -0.5000 
    120 CA        -2.7709  -14.7788  -51.8448 C.3       22 UNK         0.1400 
    121 C         -1.3508  -14.1842  -51.6325 C.2       22 UNK         0.5000 
    122 N         -0.4080  -14.3805  -52.5459 N.am      22 UNK        -0.7600 
    123 O         -1.0962  -13.5577  -50.6104 O.2       22 UNK        -0.5000 
    124 C124       -3.8363  -13.6828  -52.1081 C.3       23 UNK        -0.0398 
    125 S125       -4.5009  -12.9269  -50.5839 S.3       23 UNK        -0.2404 
    126 C126       -5.9279  -14.0005  -50.2162 C.3       23 UNK        -0.0205 
    127 H127       -1.0286  -17.2412  -48.1296 H         1 UNK         0.0600 
    128 H128       -0.4506  -16.2301  -49.4597 H         1 UNK         0.0600 
    129 H129       -2.1670  -16.2834  -49.0711 H         1 UNK         0.0600 
    130 H130       -2.9826  -15.0374  -47.3182 H         1 UNK         0.3000 
    131 H131       -1.3609  -13.9387  -45.2990 H         1 UNK         0.0600 
    132 H132       -3.4112  -12.7432  -44.5540 H         1 UNK         0.0800 
    133 H133       -4.2171  -13.1503  -46.0435 H         1 UNK         0.0800 
    134 H134       -6.2259  -14.6195  -45.2523 H         1 UNK         0.0800 
    135 H135       -5.9840  -16.3113  -44.9091 H         1 UNK         0.0800 
    136 H136       -6.0656  -13.8259  -47.5166 H         1 UNK         0.1150 
    137 H137       -5.0195  -16.5405  -50.6550 H         1 UNK         0.1150 
    138 H138       -4.5819  -17.7223  -46.5504 H         1 UNK         0.1150 
    139 H139       -4.4743  -18.7708  -50.1859 H         1 UNK         0.0800 
    140 H140       -3.0915  -18.5650  -49.1606 H         1 UNK         0.0800 
    141 H141       -3.6990  -19.8093  -46.0594 H         1 UNK         0.0800 
    142 H142       -2.5381  -19.7521  -47.3401 H         1 UNK         0.0800 
    143 H143       -3.1511  -22.3249  -47.7089 H         1 UNK         0.0600 
    144 H144       -1.0890  -21.1050  -46.2913 H         1 UNK         0.3000 
    145 H145        0.6818  -24.0185  -45.1864 H         1 UNK         0.0600 
    146 H146        2.4407  -22.7478  -46.4040 H         1 UNK         0.0600 
    147 H147        1.3469  -23.5470  -47.5233 H         1 UNK         0.0600 
    148 H148        1.2076  -21.8177  -47.2524 H         1 UNK         0.0600 
    149 H149        1.2159  -21.2709  -44.7514 H         1 UNK         0.3000 
    150 H150       -0.6950  -20.9137  -41.7161 H         1 UNK         0.0600 
    151 H151        1.5159  -21.9114  -41.1110 H         1 UNK         0.0600 
    152 H152        1.5231  -20.1643  -40.9270 H         1 UNK         0.0600 
    153 H153        2.3095  -20.9073  -42.3177 H         1 UNK         0.0600 
    154 H154        0.8628  -19.0114  -43.0943 H         1 UNK         0.3000 
    155 H155       -1.6987  -17.7553  -45.2899 H         1 UNK         0.0600 
    156 H156       -0.1475  -16.7512  -42.8396 H         1 UNK         0.0600 
    157 H157       -1.8706  -16.6061  -43.1169 H         1 UNK         0.0600 
    158 H158       -0.7382  -15.7253  -44.1363 H         1 UNK         0.0600 
    159 H159        1.0282  -17.0660  -45.1438 H         1 UNK         0.3000 
    160 H160        2.3686  -19.5518  -47.3520 H         1 UNK         0.0600 
    161 H161        2.0438  -16.5188  -47.6061 H         1 UNK         0.0600 
    162 H162        1.5224  -17.7055  -48.7953 H         1 UNK         0.0600 
    163 H163        3.2319  -17.5114  -48.4426 H         1 UNK         0.0600 
    164 H164        3.4473  -17.3732  -45.7716 H         1 UNK         0.3000 
    165 H165        4.3456  -19.3875  -42.9678 H         1 UNK         0.0600 
    166 H166        6.5934  -18.5056  -43.5292 H         1 UNK         0.0600 
    167 H167        6.1562  -19.7916  -44.6426 H         1 UNK         0.0600 
    168 H168        6.0655  -18.1140  -45.1660 H         1 UNK         0.0600 
    169 H169        4.7936  -16.6353  -43.6430 H         1 UNK         0.3000 
    170 H170        1.7406  -15.3340  -42.3845 H         1 UNK         0.0600 
    171 H171        3.0579  -15.7053  -40.2940 H         1 UNK         0.0600 
    172 H172        4.5328  -15.2227  -41.1233 H         1 UNK         0.0600 
    173 H173        3.2320  -14.0572  -40.8746 H         1 UNK         0.0600 
    174 H174        4.1025  -14.0370  -43.2665 H         1 UNK         0.3000 
    175 H175        3.9411  -12.8575  -45.2743 H         1 UNK         0.0600 
    176 H176        4.7653  -15.4421  -46.7415 H         1 UNK         0.0600 
    177 H177        5.6164  -13.9028  -46.8195 H         1 UNK         0.0600 
    178 H178        5.5819  -14.8026  -45.3197 H         1 UNK         0.0600 
    179 H179        2.0344  -14.0509  -47.0648 H         1 UNK         0.3000 
    180 H180        2.7642  -11.7198  -49.7804 H         1 UNK         0.0600 
    181 H181        1.9203  -14.6374  -49.4010 H         1 UNK         0.0600 
    182 H182        3.4198  -14.1039  -50.1475 H         1 UNK         0.0600 
    183 H183        1.8813  -13.7046  -50.8916 H         1 UNK         0.0600 
    184 H184        0.3309  -12.9344  -48.6747 H         1 UNK         0.3000 
    185 H185       -1.1046   -9.9140  -47.6794 H         1 UNK         0.0600 
    186 H186       -1.4181   -9.3920  -50.0596 H         1 UNK         0.0600 
    187 H187       -1.7242  -11.0784  -50.4391 H         1 UNK         0.0600 
    188 H188       -2.8537  -10.1831  -49.4277 H         1 UNK         0.0600 
    189 H189       -1.9327  -12.6445  -48.4717 H         1 UNK         0.3000 
    190 H190       -3.0208  -21.5322  -44.2204 H         1 UNK         0.3000 
    191 H191       -5.5861  -22.5812  -43.5399 H         1 UNK         0.0600 
    192 H192       -3.1036  -22.0917  -41.8096 H         1 UNK         0.0600 
    193 H193       -4.7328  -22.3668  -41.2040 H         1 UNK         0.0600 
    194 H194       -4.3797  -20.9242  -42.1445 H         1 UNK         0.0600 
    195 H195       -2.3089  -24.0436  -43.5032 H         1 UNK         0.3000 
    196 H196       -3.0447  -26.4690  -42.2333 H         1 UNK         0.0600 
    197 H197       -0.7965  -27.2434  -43.0193 H         1 UNK         0.0600 
    198 H198       -0.7232  -25.6560  -42.2723 H         1 UNK         0.0600 
    199 H199       -0.6546  -25.8086  -44.0275 H         1 UNK         0.0600 
    200 H200       -2.7376  -25.6640  -45.7438 H         1 UNK         0.3000 
    201 H201       -4.5169  -27.8690  -46.4354 H         1 UNK         0.0600 
    202 H202       -2.4441  -29.1786  -46.2751 H         1 UNK         0.0600 
    203 H203       -1.5611  -28.0042  -47.2454 H         1 UNK         0.0600 
    204 H204       -2.8374  -28.9741  -47.9725 H         1 UNK         0.0600 
    205 H205       -2.0005  -25.7465  -47.9676 H         1 UNK         0.3000 
    206 H206       -3.8666  -24.4144  -49.6878 H         1 UNK         0.0600 
    207 H207       -2.1265  -26.6839  -50.8447 H         1 UNK         0.0600 
    208 H208       -3.8876  -26.6016  -50.8875 H         1 UNK         0.0600 
    209 H209       -2.9345  -25.4680  -51.8205 H         1 UNK         0.0600 
    210 H210       -2.7983  -22.8385  -50.9633 H         1 UNK         0.3000 
    211 H211        0.0562  -22.2411  -50.2481 H         1 UNK         0.0600 
    212 H212       -2.2741  -20.3213  -50.7695 H         1 UNK         0.0600 
    213 H213       -0.5892  -19.8439  -50.6049 H         1 UNK         0.0600 
    214 H214       -1.4271  -20.5623  -49.2410 H         1 UNK         0.0600 
    215 H215        1.2638  -22.6942  -51.9655 H         1 UNK         0.3000 
    216 H216        2.0466  -23.0917  -53.9918 H         1 UNK         0.0600 
    217 H217        1.6412  -21.4848  -55.7817 H         1 UNK         0.0600 
    218 H218        1.6741  -20.6002  -54.2639 H         1 UNK         0.0600 
    219 H219        0.1360  -20.9532  -55.0522 H         1 UNK         0.0600 
    220 H220        0.0494  -24.7924  -53.0855 H         1 UNK         0.3000 
    221 H221       -1.2110  -26.5226  -53.5897 H         1 UNK         0.0600 
    222 H222       -0.4117  -26.1940  -56.5258 H         1 UNK         0.0600 
    223 H223        0.5470  -27.0349  -55.3075 H         1 UNK         0.0600 
    224 H224       -1.0357  -27.6446  -55.7576 H         1 UNK         0.0600 
    225 H225       -2.3018  -23.6768  -53.8270 H         1 UNK         0.3000 
    226 H226       -5.0243  -24.4746  -54.4838 H         1 UNK         0.0600 
    227 H227       -4.1611  -23.6042  -56.6858 H         1 UNK         0.0600 
    228 H228       -5.3888  -22.5462  -56.0247 H         1 UNK         0.0600 
    229 H229       -3.6824  -22.0998  -55.9109 H         1 UNK         0.0600 
    230 H230       -5.2703  -21.2983  -54.4350 H         1 UNK         0.3000 
    231 H231       -4.7165  -20.8220  -51.5553 H         1 UNK         0.0600 
    232 H232       -7.1277  -21.4469  -51.6963 H         1 UNK         0.0600 
    233 H233       -7.3879  -20.2236  -52.9395 H         1 UNK         0.0600 
    234 H234       -6.9371  -19.7457  -51.3044 H         1 UNK         0.0600 
    235 H235       -2.8993  -20.1353  -53.2978 H         1 UNK         0.3000 
    236 H236       -3.2515  -17.6002  -54.6008 H         1 UNK         0.0600 
    237 H237       -0.7234  -19.0528  -53.6563 H         1 UNK         0.0600 
    238 H238       -1.4740  -19.1995  -55.2474 H         1 UNK         0.0600 
    239 H239       -0.7578  -17.6741  -54.7491 H         1 UNK         0.0600 
    240 H240       -3.2192  -15.5809  -53.7593 H         1 UNK         0.3000 
    241 H241       -3.0193  -15.2444  -50.8936 H         1 UNK         0.0600 
    242 H242       -0.6006  -14.9078  -53.3815 H         1 UNK         0.3800 
    243 H243        0.5089  -13.9946  -52.3952 H         1 UNK         0.3800 
    244 H244       -3.4331  -12.8913  -52.7423 H         1 UNK         0.0800 
    245 H245       -4.6769  -14.0927  -52.6691 H         1 UNK         0.0800 
    246 H246       -6.3192  -14.4589  -51.1252 H         1 UNK         0.0800 
    247 H247       -6.7358  -13.3798  -49.8259 H         1 UNK         0.0800 
@<TRIPOS>BOND
     1    1    2 1    
     2    1  127 1    
     3    1  128 1    
     4    1  129 1    
     5    2    3 2    
     6    2    4 am   BACKBONE|DICT|INTERRES
     7    4    5 1    
     8    4  130 1    
     9    5    6 1    
    10    5   65 1    
    11    5  131 1    
    12    6    7 1    
    13    6  132 1    
    14    6  133 1    
    15    7    8 1    
    16    8    9 1    
    17    8  134 1    
    18    8  135 1    
    19    9   10 ar   
    20    9   14 ar   
    21   10   11 ar   
    22   10  136 1    
    23   11   12 ar   
    24   11  126 1    
    25   12   13 ar   
    26   12  137 1    
    27   13   14 ar   
    28   13   15 1    
    29   14  138 1    
    30   15   16 1    
    31   15  139 1    
    32   15  140 1    
    33   16   17 1    
    34   17   18 1    
    35   17  141 1    
    36   17  142 1    
    37   18   19 1    
    38   18   67 1    
    39   18  143 1    
    40   19   20 am   BACKBONE|DICT|INTERRES
    41   19  144 1    
    42   20   21 2    
    43   20   22 1    
    44   22   23 1    
    45   22   24 1    
    46   22  145 1    
    47   23  146 1    
    48   23  147 1    
    49   23  148 1    
    50   24   25 am   BACKBONE|DICT|INTERRES
    51   24  149 1    
    52   25   26 2    
    53   25   27 1    
    54   27   28 1    
    55   27   29 1    
    56   27  150 1    
    57   28  151 1    
    58   28  152 1    
    59   28  153 1    
    60   29   30 am   BACKBONE|DICT|INTERRES
    61   29  154 1    
    62   30   31 2    
    63   30   32 1    
    64   32   33 1    
    65   32   34 1    
    66   32  155 1    
    67   33  156 1    
    68   33  157 1    
    69   33  158 1    
    70   34   35 am   BACKBONE|DICT|INTERRES
    71   34  159 1    
    72   35   36 2    
    73   35   37 1    
    74   37   38 1    
    75   37   39 1    
    76   37  160 1    
    77   38  161 1    
    78   38  162 1    
    79   38  163 1    
    80   39   40 am   BACKBONE|DICT|INTERRES
    81   39  164 1    
    82   40   41 2    
    83   40   42 1    
    84   42   43 1    
    85   42   44 1    
    86   42  165 1    
    87   43  166 1    
    88   43  167 1    
    89   43  168 1    
    90   44   45 am   BACKBONE|DICT|INTERRES
    91   44  169 1    
    92   45   46 2    
    93   45   47 1    
    94   47   48 1    
    95   47   49 1    
    96   47  170 1    
    97   48  171 1    
    98   48  172 1    
    99   48  173 1    
   100   49   50 am   BACKBONE|DICT|INTERRES
   101   49  174 1    
   102   50   51 2    
   103   50   52 1    
   104   52   53 1    
   105   52   54 1    
   106   52  175 1    
   107   53  176 1    
   108   53  177 1    
   109   53  178 1    
   110   54   55 am   BACKBONE|DICT|INTERRES
   111   54  179 1    
   112   55   56 2    
   113   55   57 1    
   114   57   58 1    
   115   57   59 1    
   116   57  180 1    
   117   58  181 1    
   118   58  182 1    
   119   58  183 1    
   120   59   60 am   BACKBONE|DICT|INTERRES
   121   59  184 1    
   122   60   61 2    
   123   60   62 1    
   124   62   63 1    
   125   62   64 1    
   126   62  185 1    
   127   63  186 1    
   128   63  187 1    
   129   63  188 1    
   130   64   65 am   BACKBONE|DICT|INTERRES
   131   64  189 1    
   132   65   66 2    
   133   67   68 2    
   134   67   69 am   BACKBONE|DICT|INTERRES
   135   69   70 1    
   136   69  190 1    
   137   70   71 1    
   138   70   72 1    
   139   70  191 1    
   140   71  192 1    
   141   71  193 1    
   142   71  194 1    
   143   72   73 2    
   144   72   74 am   BACKBONE|DICT|INTERRES
   145   74   75 1    
   146   74  195 1    
   147   75   76 1    
   148   75   77 1    
   149   75  196 1    
   150   76  197 1    
   151   76  198 1    
   152   76  199 1    
   153   77   78 2    
   154   77   79 am   BACKBONE|DICT|INTERRES
   155   79   80 1    
   156   79  200 1    
   157   80   81 1    
   158   80   82 1    
   159   80  201 1    
   160   81  202 1    
   161   81  203 1    
   162   81  204 1    
   163   82   83 2    
   164   82   84 am   BACKBONE|DICT|INTERRES
   165   84   85 1    
   166   84  205 1    
   167   85   86 1    
   168   85   87 1    
   169   85  206 1    
   170   86  207 1    
   171   86  208 1    
   172   86  209 1    
   173   87   88 2    
   174   87   89 am   BACKBONE|DICT|INTERRES
   175   89   90 1    
   176   89  210 1    
   177   90   91 1    
   178   90   92 1    
   179   90  211 1    
   180   91  212 1    
   181   91  213 1    
   182   91  214 1    
   183   92   93 2    
   184   92   94 am   BACKBONE|DICT|INTERRES
   185   94   95 1    
   186   94  215 1    
   187   95   96 1    
   188   95   97 1    
   189   95  216 1    
   190   96  217 1    
   191   96  218 1    
   192   96  219 1    
   193   97   98 2    
   194   97   99 am   BACKBONE|DICT|INTERRES
   195   99  100 1    
   196   99  220 1    
   197  100  101 1    
   198  100  102 1    
   199  100  221 1    
   200  101  222 1    
   201  101  223 1    
   202  101  224 1    
   203  102  103 2    
   204  102  104 am   BACKBONE|DICT|INTERRES
   205  104  105 1    
   206  104  225 1    
   207  105  106 1    
   208  105  107 1    
   209  105  226 1    
   210  106  227 1    
   211  106  228 1    
   212  106  229 1    
   213  107  108 2    
   214  107  109 am   BACKBONE|DICT|INTERRES
   215  109  110 1    
   216  109  230 1    
   217  110  111 1    
   218  110  112 1    
   219  110  231 1    
   220  111  232 1    
   221  111  233 1    
   222  111  234 1    
   223  112  113 2    
   224  112  114 am   BACKBONE|DICT|INTERRES
   225  114  115 1    
   226  114  235 1    
   227  115  116 1    
   228  115  117 1    
   229  115  236 1    
   230  116  237 1    
   231  116  238 1    
   232  116  239 1    
   233  117  118 2    
   234  117  119 am   BACKBONE|DICT|INTERRES
   235  119  120 1    
   236  119  240 1    
   237  120  121 1    
   238  120  124 1    
   239  120  241 1    
   240  121  122 am   BACKBONE|DICT|INTERRES
   241  121  123 2    
   242  122  242 1    
   243  122  243 1    
   244  124  125 1    
   245  124  244 1    
   246  124  245 1    
   247  125  126 1    
   248  126  246 1    
   249  126  247 1    
@<TRIPOS>SUBSTRUCTURE
     1 UNK         1 GROUP             0       ****    0 ROOT    
