@<TRIPOS>MOLECULE
3R540
247   249    1
SMALL
USER_CHARGES


@<TRIPOS>ATOM
      1 CA          1.5507  -12.3381  -46.2581 C.3       0 UNK        -0.1800 
      2 C           0.8723  -13.6889  -46.4326 C.2       0 UNK         0.5000 
      3 O           0.6805  -14.4081  -45.4521 O.2       0 UNK        -0.5000 
      4 N           0.5045  -14.0205  -47.6776 N.am      1 UNK        -0.5000 
      5 CA         -0.1246  -15.2782  -48.1000 C.3       1 UNK         0.1400 
      6 C6         -0.4082  -15.2933  -49.6247 C.3       23 UNK        -0.0398 
      7 S7          1.1083  -15.1582  -50.6274 S.3       23 UNK        -0.2404 
      8 C8          0.6443  -16.1042  -52.1213 C.3       23 UNK        -0.0205 
      9 C9          0.4038  -17.5900  -51.8663 C.ar      23 UNK        -0.0193 
     10 C10        -0.6831  -18.2371  -52.4641 C.ar      23 UNK        -0.1150 
     11 C11        -0.9010  -19.6044  -52.2611 C.ar      23 UNK        -0.0193 
     12 C12        -0.0420  -20.3182  -51.4203 C.ar      23 UNK        -0.1150 
     13 C13         1.0485  -19.6840  -50.8170 C.ar      23 UNK        -0.0193 
     14 C14         1.2755  -18.3279  -51.0608 C.ar      23 UNK        -0.1150 
     15 C15         1.9880  -20.4603  -49.9051 C.3       23 UNK        -0.0205 
     16 S16         2.0556  -19.7733  -48.2159 S.3       23 UNK        -0.2404 
     17 C17         0.3183  -19.9359  -47.6788 C.3       23 UNK        -0.0398 
     18 CA         -0.0222  -21.3569  -47.1608 C.3       11 UNK         0.1400 
     19 N           0.8541  -21.8299  -46.0782 N.am      11 UNK        -0.5000 
     20 C           1.1084  -21.2275  -44.9109 C.2       10 UNK         0.5000 
     21 O           0.4891  -20.2420  -44.5040 O.2       10 UNK        -0.5000 
     22 CA          2.2561  -21.8381  -44.0829 C.3       10 UNK         0.1400 
     23 CB          3.5866  -21.7569  -44.8507 C.3       10 UNK        -0.1800 
     24 N           2.4105  -21.1471  -42.8058 N.am      10 UNK        -0.5000 
     25 C           1.6724  -21.3870  -41.7149 C.2       9 UNK         0.5000 
     26 O           0.8596  -22.3103  -41.6384 O.2       9 UNK        -0.5000 
     27 CA          1.8364  -20.4203  -40.5240 C.3       9 UNK         0.1400 
     28 CB          1.7934  -21.1348  -39.1570 C.3       9 UNK        -0.1800 
     29 N           2.9932  -19.5234  -40.6388 N.am      9 UNK        -0.5000 
     30 C           4.2938  -19.8166  -40.4963 C.2       8 UNK         0.5000 
     31 O           4.7213  -20.9393  -40.2238 O.2       8 UNK        -0.5000 
     32 CA          5.2723  -18.6385  -40.6938 C.3       8 UNK         0.1400 
     33 CB          6.7405  -19.0852  -40.8596 C.3       8 UNK        -0.1800 
     34 N           4.8710  -17.7299  -41.7750 N.am      8 UNK        -0.5000 
     35 C           4.7791  -18.0118  -43.0854 C.2       7 UNK         0.5000 
     36 O           5.0373  -19.1190  -43.5547 O.2       7 UNK        -0.5000 
     37 CA          4.3069  -16.8825  -44.0289 C.3       7 UNK         0.1400 
     38 CB          3.3118  -17.4022  -45.0848 C.3       7 UNK        -0.1800 
     39 N           3.6756  -15.7925  -43.2851 N.am      7 UNK        -0.5000 
     40 C           4.2583  -14.6400  -42.9285 C.2       6 UNK         0.5000 
     41 O           5.3972  -14.3180  -43.2669 O.2       6 UNK        -0.5000 
     42 CA          3.4488  -13.6993  -42.0092 C.3       6 UNK         0.1400 
     43 CB          2.8386  -12.5443  -42.8148 C.3       6 UNK        -0.1800 
     44 N           2.3738  -14.3770  -41.2811 N.am      6 UNK        -0.5000 
     45 C           2.5476  -15.2745  -40.3012 C.2       5 UNK         0.5000 
     46 O           3.6488  -15.6009  -39.8587 O.2       5 UNK        -0.5000 
     47 CA          1.2770  -15.9852  -39.7964 C.3       5 UNK         0.1400 
     48 CB          0.6034  -15.1691  -38.6843 C.3       5 UNK        -0.1800 
     49 N           0.3065  -16.2381  -40.8660 N.am      5 UNK        -0.5000 
     50 C           0.5277  -16.9858  -41.9539 C.2       4 UNK         0.5000 
     51 O           1.5899  -17.5711  -42.1510 O.2       4 UNK        -0.5000 
     52 CA         -0.5802  -17.0603  -43.0185 C.3       4 UNK         0.1400 
     53 CB         -1.6642  -18.0784  -42.6258 C.3       4 UNK        -0.1800 
     54 N          -1.1604  -15.7609  -43.3770 N.am      4 UNK        -0.5000 
     55 C          -1.8979  -14.9195  -42.6356 C.2       3 UNK         0.5000 
     56 O          -2.1856  -15.1086  -41.4532 O.2       3 UNK        -0.5000 
     57 CA         -2.3926  -13.6407  -43.3351 C.3       3 UNK         0.1400 
     58 CB         -1.3785  -12.5005  -43.1540 C.3       3 UNK        -0.1800 
     59 N          -2.6420  -13.8509  -44.7617 N.am      3 UNK        -0.5000 
     60 C          -3.6700  -14.5592  -45.2517 C.2       2 UNK         0.5000 
     61 O          -4.5667  -15.0329  -44.5530 O.2       2 UNK        -0.5000 
     62 CA         -3.7053  -14.7806  -46.7754 C.3       2 UNK         0.1400 
     63 CB         -4.6727  -13.7920  -47.4436 C.3       2 UNK        -0.1800 
     64 N          -2.3909  -14.6608  -47.4108 N.am      2 UNK        -0.5000 
     65 C          -1.4151  -15.5749  -47.3110 C.2       1 UNK         0.5000 
     66 O          -1.4921  -16.5903  -46.6199 O.2       1 UNK        -0.5000 
     67 C          -1.5319  -21.4903  -46.8766 C.2       11 UNK         0.5000 
     68 O          -2.2956  -21.6491  -47.8276 O.2       11 UNK        -0.5000 
     69 N          -1.9495  -21.4833  -45.6034 N.am      12 UNK        -0.5000 
     70 CA         -3.3437  -21.6340  -45.1698 C.3       12 UNK         0.1400 
     71 CB         -3.4115  -21.5369  -43.6392 C.3       12 UNK        -0.1800 
     72 C          -4.0101  -22.9382  -45.6541 C.2       12 UNK         0.5000 
     73 O          -5.2054  -22.9407  -45.9521 O.2       12 UNK        -0.5000 
     74 N          -3.2087  -24.0060  -45.7714 N.am      13 UNK        -0.5000 
     75 CA         -3.6078  -25.3079  -46.3064 C.3       13 UNK         0.1400 
     76 CB         -2.4820  -26.3192  -46.0425 C.3       13 UNK        -0.1800 
     77 C          -3.9638  -25.2804  -47.8067 C.2       13 UNK         0.5000 
     78 O          -4.7414  -26.1243  -48.2537 O.2       13 UNK        -0.5000 
     79 N          -3.4306  -24.3056  -48.5580 N.am      14 UNK        -0.5000 
     80 CA         -3.7059  -24.0908  -49.9791 C.3       14 UNK         0.1400 
     81 CB         -2.4685  -23.4604  -50.6443 C.3       14 UNK        -0.1800 
     82 C          -4.9834  -23.2478  -50.1615 C.2       14 UNK         0.5000 
     83 O          -4.9462  -22.1904  -50.7947 O.2       14 UNK        -0.5000 
     84 N          -6.0880  -23.7311  -49.5740 N.am      15 UNK        -0.5000 
     85 CA         -7.4396  -23.1619  -49.5917 C.3       15 UNK         0.1400 
     86 CB         -8.0590  -23.3165  -50.9967 C.3       15 UNK        -0.1800 
     87 C          -7.4804  -21.7084  -49.0776 C.2       15 UNK         0.5000 
     88 O          -7.9902  -20.8277  -49.7700 O.2       15 UNK        -0.5000 
     89 N          -6.8932  -21.4789  -47.8921 N.am      16 UNK        -0.5000 
     90 CA         -6.6876  -20.1675  -47.2591 C.3       16 UNK         0.1400 
     91 CB         -8.0318  -19.5009  -46.8970 C.3       16 UNK        -0.1800 
     92 C          -5.7560  -19.2514  -48.0838 C.2       16 UNK         0.5000 
     93 O          -5.9321  -18.0321  -48.0933 O.2       16 UNK        -0.5000 
     94 N          -4.7834  -19.8779  -48.7617 N.am      17 UNK        -0.5000 
     95 CA         -3.8116  -19.2968  -49.6888 C.3       17 UNK         0.1400 
     96 CB         -2.8637  -18.3379  -48.9537 C.3       17 UNK        -0.1800 
     97 C          -4.4733  -18.6593  -50.9281 C.2       17 UNK         0.5000 
     98 O          -4.0385  -17.6011  -51.3864 O.2       17 UNK        -0.5000 
     99 N          -5.5129  -19.3210  -51.4497 N.am      18 UNK        -0.5000 
    100 CA        -6.3036  -18.8721  -52.5961 C.3       18 UNK         0.1400 
    101 CB        -7.6164  -18.2451  -52.0941 C.3       18 UNK        -0.1800 
    102 C         -6.5503  -19.9960  -53.6201 C.2       18 UNK         0.5000 
    103 O         -7.3632  -19.8096  -54.5279 O.2       18 UNK        -0.5000 
    104 N         -5.8555  -21.1351  -53.4812 N.am      19 UNK        -0.5000 
    105 CA        -5.8768  -22.2437  -54.4382 C.3       19 UNK         0.1400 
    106 CB        -5.1080  -23.4358  -53.8471 C.3       19 UNK        -0.1800 
    107 C         -5.2940  -21.8678  -55.8161 C.2       19 UNK         0.5000 
    108 O         -4.5142  -20.9185  -55.9347 O.2       19 UNK        -0.5000 
    109 N         -5.6732  -22.6476  -56.8350 N.am      20 UNK        -0.5000 
    110 CA        -5.1430  -22.5502  -58.1931 C.3       20 UNK         0.1400 
    111 CB        -6.0334  -23.3786  -59.1326 C.3       20 UNK        -0.1800 
    112 C         -3.6812  -23.0314  -58.2730 C.2       20 UNK         0.5000 
    113 O         -3.2712  -23.8929  -57.4916 O.2       20 UNK        -0.5000 
    114 N         -2.9423  -22.4792  -59.2445 N.am      21 UNK        -0.5000 
    115 CA        -1.5460  -22.7822  -59.5888 C.3       21 UNK         0.1400 
    116 CB        -1.3798  -24.2601  -60.0038 C.3       21 UNK        -0.1800 
    117 C         -0.5029  -22.3410  -58.5370 C.2       21 UNK         0.5000 
    118 O          0.6596  -22.7383  -58.6397 O.2       21 UNK        -0.5000 
    119 N         -0.9061  -21.5025  -57.5734 N.am      22 UNK        -0.5000 
    120 CA        -0.0023  -20.8122  -56.6403 C.3       22 UNK         0.1400 
    121 C          0.8741  -19.7484  -57.3612 C.2       22 UNK         0.5000 
    122 N          2.1236  -19.5821  -56.9494 N.am      22 UNK        -0.7600 
    123 O          0.4201  -19.0454  -58.2621 O.2       22 UNK        -0.5000 
    124 C124       -0.7767  -20.1600  -55.4691 C.3       23 UNK        -0.0398 
    125 S125       -1.4725  -21.3907  -54.3164 S.3       23 UNK        -0.2404 
    126 C126       -2.0516  -20.3146  -52.9650 C.3       23 UNK        -0.0205 
    127 H127        1.0224  -11.7441  -45.5125 H         1 UNK         0.0600 
    128 H128        2.5784  -12.4773  -45.9229 H         1 UNK         0.0600 
    129 H129        1.5717  -11.7711  -47.1891 H         1 UNK         0.0600 
    130 H130        0.7132  -13.3791  -48.4296 H         1 UNK         0.3000 
    131 H131        0.5800  -16.0827  -47.8768 H         1 UNK         0.0600 
    132 H132       -0.9254  -16.2101  -49.9031 H         1 UNK         0.0800 
    133 H133       -1.0728  -14.4760  -49.9093 H         1 UNK         0.0800 
    134 H134        1.4430  -16.0068  -52.8574 H         1 UNK         0.0800 
    135 H135       -0.2403  -15.6425  -52.5630 H         1 UNK         0.0800 
    136 H136       -1.3533  -17.6799  -53.1037 H         1 UNK         0.1150 
    137 H137       -0.2140  -21.3723  -51.2545 H         1 UNK         0.1150 
    138 H138        2.1265  -17.8432  -50.6032 H         1 UNK         0.1150 
    139 H139        1.7010  -21.5114  -49.8533 H         1 UNK         0.0800 
    140 H140        2.9910  -20.4383  -50.3330 H         1 UNK         0.0800 
    141 H141        0.1295  -19.1863  -46.9083 H         1 UNK         0.0800 
    142 H142       -0.3303  -19.6674  -48.5121 H         1 UNK         0.0800 
    143 H143        0.1649  -22.0466  -47.9852 H         1 UNK         0.0600 
    144 H144        1.3937  -22.6522  -46.3075 H         1 UNK         0.3000 
    145 H145        2.0264  -22.8892  -43.8964 H         1 UNK         0.0600 
    146 H146        4.4268  -22.0589  -44.2250 H         1 UNK         0.0600 
    147 H147        3.5823  -22.4126  -45.7218 H         1 UNK         0.0600 
    148 H148        3.7817  -20.7455  -45.2089 H         1 UNK         0.0600 
    149 H149        3.0300  -20.3485  -42.8014 H         1 UNK         0.3000 
    150 H150        0.9631  -19.7682  -40.5642 H         1 UNK         0.0600 
    151 H151        0.8361  -21.6362  -39.0103 H         1 UNK         0.0600 
    152 H152        1.9159  -20.4273  -38.3370 H         1 UNK         0.0600 
    153 H153        2.5708  -21.8936  -39.0682 H         1 UNK         0.0600 
    154 H154        2.7560  -18.5952  -40.9764 H         1 UNK         0.3000 
    155 H155        5.2162  -18.0514  -39.7761 H         1 UNK         0.0600 
    156 H156        7.0833  -19.6319  -39.9804 H         1 UNK         0.0600 
    157 H157        7.4017  -18.2278  -40.9848 H         1 UNK         0.0600 
    158 H158        6.8725  -19.7401  -41.7212 H         1 UNK         0.0600 
    159 H159        4.6054  -16.8012  -41.4727 H         1 UNK         0.3000 
    160 H160        5.1898  -16.5130  -44.5538 H         1 UNK         0.0600 
    161 H161        2.9420  -16.5919  -45.7139 H         1 UNK         0.0600 
    162 H162        2.4493  -17.8890  -44.6289 H         1 UNK         0.0600 
    163 H163        3.7837  -18.1321  -45.7434 H         1 UNK         0.0600 
    164 H164        2.7534  -16.0033  -42.9252 H         1 UNK         0.3000 
    165 H165        4.1440  -13.2792  -41.2793 H         1 UNK         0.0600 
    166 H166        3.5998  -12.0199  -43.3941 H         1 UNK         0.0600 
    167 H167        2.0833  -12.9068  -43.5108 H         1 UNK         0.0600 
    168 H168        2.3662  -11.8119  -42.1599 H         1 UNK         0.0600 
    169 H169        1.4319  -14.1877  -41.5897 H         1 UNK         0.3000 
    170 H170        1.5777  -16.9498  -39.3822 H         1 UNK         0.0600 
    171 H171        1.2974  -14.9766  -37.8649 H         1 UNK         0.0600 
    172 H172        0.2493  -14.2046  -39.0504 H         1 UNK         0.0600 
    173 H173       -0.2509  -15.7027  -38.2674 H         1 UNK         0.0600 
    174 H174       -0.6006  -15.7829  -40.7932 H         1 UNK         0.3000 
    175 H175       -0.1084  -17.4275  -43.9320 H         1 UNK         0.0600 
    176 H176       -2.1837  -17.7954  -41.7102 H         1 UNK         0.0600 
    177 H177       -2.4065  -18.1798  -43.4176 H         1 UNK         0.0600 
    178 H178       -1.2248  -19.0634  -42.4620 H         1 UNK         0.0600 
    179 H179       -0.9350  -15.4598  -44.3186 H         1 UNK         0.3000 
    180 H180       -3.3296  -13.3415  -42.8604 H         1 UNK         0.0600 
    181 H181       -0.4137  -12.7424  -43.5989 H         1 UNK         0.0600 
    182 H182       -1.7365  -11.5773  -43.6097 H         1 UNK         0.0600 
    183 H183       -1.2080  -12.2954  -42.0964 H         1 UNK         0.0600 
    184 H184       -1.9426  -13.5109  -45.4046 H         1 UNK         0.3000 
    185 H185       -4.0806  -15.7919  -46.9487 H         1 UNK         0.0600 
    186 H186       -4.7635  -13.9910  -48.5116 H         1 UNK         0.0600 
    187 H187       -5.6722  -13.8735  -47.0142 H         1 UNK         0.0600 
    188 H188       -4.3444  -12.7594  -47.3187 H         1 UNK         0.0600 
    189 H189       -2.2350  -13.8355  -47.9710 H         1 UNK         0.3000 
    190 H190       -1.2598  -21.2820  -44.8886 H         1 UNK         0.3000 
    191 H191       -3.9062  -20.8001  -45.5926 H         1 UNK         0.0600 
    192 H192       -4.4382  -21.6389  -43.2851 H         1 UNK         0.0600 
    193 H193       -3.0442  -20.5737  -43.2885 H         1 UNK         0.0600 
    194 H194       -2.8181  -22.3164  -43.1595 H         1 UNK         0.0600 
    195 H195       -2.2405  -23.9034  -45.5057 H         1 UNK         0.3000 
    196 H196       -4.4976  -25.6356  -45.7649 H         1 UNK         0.0600 
    197 H197       -2.7559  -27.3119  -46.4023 H         1 UNK         0.0600 
    198 H198       -2.2731  -26.4084  -44.9762 H         1 UNK         0.0600 
    199 H199       -1.5571  -26.0318  -46.5442 H         1 UNK         0.0600 
    200 H200       -2.8781  -23.5846  -48.1080 H         1 UNK         0.3000 
    201 H201       -3.8811  -25.0533  -50.4641 H         1 UNK         0.0600 
    202 H202       -2.2705  -22.4569  -50.2703 H         1 UNK         0.0600 
    203 H203       -2.6018  -23.3854  -51.7233 H         1 UNK         0.0600 
    204 H204       -1.5769  -24.0630  -50.4715 H         1 UNK         0.0600 
    205 H205       -5.9851  -24.6000  -49.0621 H         1 UNK         0.3000 
    206 H206       -8.0380  -23.7534  -48.8974 H         1 UNK         0.0600 
    207 H207       -8.0317  -24.3542  -51.3288 H         1 UNK         0.0600 
    208 H208       -9.1032  -23.0018  -50.9997 H         1 UNK         0.0600 
    209 H209       -7.5353  -22.7138  -51.7386 H         1 UNK         0.0600 
    210 H210       -6.4749  -22.2589  -47.3938 H         1 UNK         0.3000 
    211 H211       -6.1658  -20.3615  -46.3220 H         1 UNK         0.0600 
    212 H212       -8.5847  -19.1887  -47.7832 H         1 UNK         0.0600 
    213 H213       -7.8725  -18.6123  -46.2851 H         1 UNK         0.0600 
    214 H214       -8.6664  -20.1778  -46.3252 H         1 UNK         0.0600 
    215 H215       -4.7418  -20.8849  -48.6940 H         1 UNK         0.3000 
    216 H216       -3.2107  -20.1315  -50.0498 H         1 UNK         0.0600 
    217 H217       -3.3433  -17.3824  -48.7419 H         1 UNK         0.0600 
    218 H218       -1.9807  -18.1449  -49.5606 H         1 UNK         0.0600 
    219 H219       -2.5261  -18.7587  -48.0073 H         1 UNK         0.0600 
    220 H220       -5.7989  -20.1925  -51.0166 H         1 UNK         0.3000 
    221 H221       -5.7542  -18.1029  -53.1422 H         1 UNK         0.0600 
    222 H222       -8.2607  -18.9867  -51.6226 H         1 UNK         0.0600 
    223 H223       -7.4247  -17.4565  -51.3661 H         1 UNK         0.0600 
    224 H224       -8.1781  -17.7984  -52.9151 H         1 UNK         0.0600 
    225 H225       -5.2323  -21.2384  -52.6905 H         1 UNK         0.3000 
    226 H226       -6.9179  -22.5406  -54.5811 H         1 UNK         0.0600 
    227 H227       -5.6004  -23.8183  -52.9545 H         1 UNK         0.0600 
    228 H228       -5.0492  -24.2633  -54.5554 H         1 UNK         0.0600 
    229 H229       -4.0867  -23.1597  -53.5843 H         1 UNK         0.0600 
    230 H230       -6.2838  -23.4299  -56.6510 H         1 UNK         0.3000 
    231 H231       -5.1867  -21.5040  -58.5037 H         1 UNK         0.0600 
    232 H232       -6.0325  -24.4350  -58.8604 H         1 UNK         0.0600 
    233 H233       -7.0651  -23.0267  -59.1116 H         1 UNK         0.0600 
    234 H234       -5.6883  -23.3064  -60.1649 H         1 UNK         0.0600 
    235 H235       -3.3772  -21.7763  -59.8268 H         1 UNK         0.3000 
    236 H236       -1.3312  -22.1793  -60.4723 H         1 UNK         0.0600 
    237 H237       -2.1162  -24.5449  -60.7552 H         1 UNK         0.0600 
    238 H238       -0.3943  -24.4368  -60.4362 H         1 UNK         0.0600 
    239 H239       -1.4860  -24.9358  -59.1550 H         1 UNK         0.0600 
    240 H240       -1.8758  -21.2254  -57.5463 H         1 UNK         0.3000 
    241 H241        0.6716  -21.5627  -56.2217 H         1 UNK         0.0600 
    242 H242        2.6987  -18.8863  -57.3987 H         1 UNK         0.3800 
    243 H243        2.5161  -20.1421  -56.2080 H         1 UNK         0.3800 
    244 H244       -1.5809  -19.5218  -55.8395 H         1 UNK         0.0800 
    245 H245       -0.1082  -19.5136  -54.8990 H         1 UNK         0.0800 
    246 H246       -2.6005  -20.9227  -52.2464 H         1 UNK         0.0800 
    247 H247       -2.7676  -19.5951  -53.3657 H         1 UNK         0.0800 
@<TRIPOS>BOND
     1    1    2 1    
     2    1  127 1    
     3    1  128 1    
     4    1  129 1    
     5    2    3 2    
     6    2    4 am   BACKBONE|DICT|INTERRES
     7    4    5 1    
     8    4  130 1    
     9    5    6 1    
    10    5   65 1    
    11    5  131 1    
    12    6    7 1    
    13    6  132 1    
    14    6  133 1    
    15    7    8 1    
    16    8    9 1    
    17    8  134 1    
    18    8  135 1    
    19    9   10 ar   
    20    9   14 ar   
    21   10   11 ar   
    22   10  136 1    
    23   11   12 ar   
    24   11  126 1    
    25   12   13 ar   
    26   12  137 1    
    27   13   14 ar   
    28   13   15 1    
    29   14  138 1    
    30   15   16 1    
    31   15  139 1    
    32   15  140 1    
    33   16   17 1    
    34   17   18 1    
    35   17  141 1    
    36   17  142 1    
    37   18   19 1    
    38   18   67 1    
    39   18  143 1    
    40   19   20 am   BACKBONE|DICT|INTERRES
    41   19  144 1    
    42   20   21 2    
    43   20   22 1    
    44   22   23 1    
    45   22   24 1    
    46   22  145 1    
    47   23  146 1    
    48   23  147 1    
    49   23  148 1    
    50   24   25 am   BACKBONE|DICT|INTERRES
    51   24  149 1    
    52   25   26 2    
    53   25   27 1    
    54   27   28 1    
    55   27   29 1    
    56   27  150 1    
    57   28  151 1    
    58   28  152 1    
    59   28  153 1    
    60   29   30 am   BACKBONE|DICT|INTERRES
    61   29  154 1    
    62   30   31 2    
    63   30   32 1    
    64   32   33 1    
    65   32   34 1    
    66   32  155 1    
    67   33  156 1    
    68   33  157 1    
    69   33  158 1    
    70   34   35 am   BACKBONE|DICT|INTERRES
    71   34  159 1    
    72   35   36 2    
    73   35   37 1    
    74   37   38 1    
    75   37   39 1    
    76   37  160 1    
    77   38  161 1    
    78   38  162 1    
    79   38  163 1    
    80   39   40 am   BACKBONE|DICT|INTERRES
    81   39  164 1    
    82   40   41 2    
    83   40   42 1    
    84   42   43 1    
    85   42   44 1    
    86   42  165 1    
    87   43  166 1    
    88   43  167 1    
    89   43  168 1    
    90   44   45 am   BACKBONE|DICT|INTERRES
    91   44  169 1    
    92   45   46 2    
    93   45   47 1    
    94   47   48 1    
    95   47   49 1    
    96   47  170 1    
    97   48  171 1    
    98   48  172 1    
    99   48  173 1    
   100   49   50 am   BACKBONE|DICT|INTERRES
   101   49  174 1    
   102   50   51 2    
   103   50   52 1    
   104   52   53 1    
   105   52   54 1    
   106   52  175 1    
   107   53  176 1    
   108   53  177 1    
   109   53  178 1    
   110   54   55 am   BACKBONE|DICT|INTERRES
   111   54  179 1    
   112   55   56 2    
   113   55   57 1    
   114   57   58 1    
   115   57   59 1    
   116   57  180 1    
   117   58  181 1    
   118   58  182 1    
   119   58  183 1    
   120   59   60 am   BACKBONE|DICT|INTERRES
   121   59  184 1    
   122   60   61 2    
   123   60   62 1    
   124   62   63 1    
   125   62   64 1    
   126   62  185 1    
   127   63  186 1    
   128   63  187 1    
   129   63  188 1    
   130   64   65 am   BACKBONE|DICT|INTERRES
   131   64  189 1    
   132   65   66 2    
   133   67   68 2    
   134   67   69 am   BACKBONE|DICT|INTERRES
   135   69   70 1    
   136   69  190 1    
   137   70   71 1    
   138   70   72 1    
   139   70  191 1    
   140   71  192 1    
   141   71  193 1    
   142   71  194 1    
   143   72   73 2    
   144   72   74 am   BACKBONE|DICT|INTERRES
   145   74   75 1    
   146   74  195 1    
   147   75   76 1    
   148   75   77 1    
   149   75  196 1    
   150   76  197 1    
   151   76  198 1    
   152   76  199 1    
   153   77   78 2    
   154   77   79 am   BACKBONE|DICT|INTERRES
   155   79   80 1    
   156   79  200 1    
   157   80   81 1    
   158   80   82 1    
   159   80  201 1    
   160   81  202 1    
   161   81  203 1    
   162   81  204 1    
   163   82   83 2    
   164   82   84 am   BACKBONE|DICT|INTERRES
   165   84   85 1    
   166   84  205 1    
   167   85   86 1    
   168   85   87 1    
   169   85  206 1    
   170   86  207 1    
   171   86  208 1    
   172   86  209 1    
   173   87   88 2    
   174   87   89 am   BACKBONE|DICT|INTERRES
   175   89   90 1    
   176   89  210 1    
   177   90   91 1    
   178   90   92 1    
   179   90  211 1    
   180   91  212 1    
   181   91  213 1    
   182   91  214 1    
   183   92   93 2    
   184   92   94 am   BACKBONE|DICT|INTERRES
   185   94   95 1    
   186   94  215 1    
   187   95   96 1    
   188   95   97 1    
   189   95  216 1    
   190   96  217 1    
   191   96  218 1    
   192   96  219 1    
   193   97   98 2    
   194   97   99 am   BACKBONE|DICT|INTERRES
   195   99  100 1    
   196   99  220 1    
   197  100  101 1    
   198  100  102 1    
   199  100  221 1    
   200  101  222 1    
   201  101  223 1    
   202  101  224 1    
   203  102  103 2    
   204  102  104 am   BACKBONE|DICT|INTERRES
   205  104  105 1    
   206  104  225 1    
   207  105  106 1    
   208  105  107 1    
   209  105  226 1    
   210  106  227 1    
   211  106  228 1    
   212  106  229 1    
   213  107  108 2    
   214  107  109 am   BACKBONE|DICT|INTERRES
   215  109  110 1    
   216  109  230 1    
   217  110  111 1    
   218  110  112 1    
   219  110  231 1    
   220  111  232 1    
   221  111  233 1    
   222  111  234 1    
   223  112  113 2    
   224  112  114 am   BACKBONE|DICT|INTERRES
   225  114  115 1    
   226  114  235 1    
   227  115  116 1    
   228  115  117 1    
   229  115  236 1    
   230  116  237 1    
   231  116  238 1    
   232  116  239 1    
   233  117  118 2    
   234  117  119 am   BACKBONE|DICT|INTERRES
   235  119  120 1    
   236  119  240 1    
   237  120  121 1    
   238  120  124 1    
   239  120  241 1    
   240  121  122 am   BACKBONE|DICT|INTERRES
   241  121  123 2    
   242  122  242 1    
   243  122  243 1    
   244  124  125 1    
   245  124  244 1    
   246  124  245 1    
   247  125  126 1    
   248  126  246 1    
   249  126  247 1    
@<TRIPOS>SUBSTRUCTURE
     1 UNK         1 GROUP             0       ****    0 ROOT    
