@<TRIPOS>MOLECULE
3R540
247   249    1
SMALL
USER_CHARGES


@<TRIPOS>ATOM
      1 CA          5.2166  -13.1870  -49.5078 C.3       0 UNK        -0.1800 
      2 C           4.1085  -13.9962  -48.8501 C.2       0 UNK         0.5000 
      3 O           4.2853  -14.4898  -47.7372 O.2       0 UNK        -0.5000 
      4 N           2.9541  -14.1191  -49.5196 N.am      1 UNK        -0.5000 
      5 CA          1.7909  -14.8917  -49.0574 C.3       1 UNK         0.1400 
      6 C6          0.8187  -15.1959  -50.2262 C.3       23 UNK        -0.0398 
      7 S7         -0.2417  -16.6587  -49.9379 S.3       23 UNK        -0.2404 
      8 C8         -1.8787  -15.8700  -49.9939 C.3       23 UNK        -0.0205 
      9 C9         -3.0049  -16.8342  -49.6546 C.ar      23 UNK        -0.0193 
     10 C10        -3.4524  -17.7576  -50.6025 C.ar      23 UNK        -0.1150 
     11 C11        -4.5471  -18.5820  -50.3297 C.ar      23 UNK        -0.0193 
     12 C12        -5.1816  -18.4934  -49.0870 C.ar      23 UNK        -0.1150 
     13 C13        -4.7367  -17.5838  -48.1239 C.ar      23 UNK        -0.0193 
     14 C14        -3.6472  -16.7574  -48.4159 C.ar      23 UNK        -0.1150 
     15 C15        -5.4622  -17.4520  -46.7895 C.3       23 UNK        -0.0205 
     16 S16        -5.4563  -18.9876  -45.8056 S.3       23 UNK        -0.2404 
     17 C17        -3.6723  -19.3094  -45.6171 C.3       23 UNK        -0.0398 
     18 CA         -3.2544  -20.6481  -46.2786 C.3       11 UNK         0.1400 
     19 N          -2.0220  -20.5123  -47.0602 N.am      11 UNK        -0.5000 
     20 C          -1.4920  -21.4733  -47.8274 C.2       10 UNK         0.5000 
     21 O          -2.0122  -22.5772  -47.9961 O.2       10 UNK        -0.5000 
     22 CA         -0.1334  -21.1811  -48.4877 C.3       10 UNK         0.1400 
     23 CB         -0.3567  -20.6943  -49.9258 C.3       10 UNK        -0.1800 
     24 N           0.7229  -20.2146  -47.7911 N.am      10 UNK        -0.5000 
     25 C           1.0967  -20.2300  -46.5028 C.2       9 UNK         0.5000 
     26 O           0.6772  -21.0419  -45.6731 O.2       9 UNK        -0.5000 
     27 CA          2.1133  -19.1545  -46.0869 C.3       9 UNK         0.1400 
     28 CB          1.7206  -17.7678  -46.6158 C.3       9 UNK        -0.1800 
     29 N           2.2153  -19.0948  -44.6340 N.am      9 UNK        -0.5000 
     30 C           3.3535  -19.0561  -43.9297 C.2       8 UNK         0.5000 
     31 O           4.4717  -19.0577  -44.4467 O.2       8 UNK        -0.5000 
     32 CA          3.2238  -19.0029  -42.3936 C.3       8 UNK         0.1400 
     33 CB          4.3197  -18.1404  -41.7428 C.3       8 UNK        -0.1800 
     34 N           1.9125  -18.4849  -42.0033 N.am      8 UNK        -0.5000 
     35 C           0.9387  -19.2031  -41.4296 C.2       7 UNK         0.5000 
     36 O           1.0865  -20.3619  -41.0428 O.2       7 UNK        -0.5000 
     37 CA         -0.4398  -18.5317  -41.2692 C.3       7 UNK         0.1400 
     38 CB         -0.7025  -18.1906  -39.7953 C.3       7 UNK        -0.1800 
     39 N          -0.5988  -17.3281  -42.0914 N.am      7 UNK        -0.5000 
     40 C          -0.7791  -17.3410  -43.4214 C.2       6 UNK         0.5000 
     41 O          -0.8400  -18.3836  -44.0760 O.2       6 UNK        -0.5000 
     42 CA         -0.8491  -15.9899  -44.1638 C.3       6 UNK         0.1400 
     43 CB         -2.0208  -15.9290  -45.1584 C.3       6 UNK        -0.1800 
     44 N          -0.8166  -14.8102  -43.2988 N.am      6 UNK        -0.5000 
     45 C          -1.7588  -14.3304  -42.4774 C.2       5 UNK         0.5000 
     46 O          -2.8839  -14.8145  -42.3501 O.2       5 UNK        -0.5000 
     47 CA         -1.3223  -13.1089  -41.6379 C.3       5 UNK         0.1400 
     48 CB         -2.2474  -12.8320  -40.4342 C.3       5 UNK        -0.1800 
     49 N           0.0855  -13.2050  -41.2215 N.am      5 UNK        -0.5000 
     50 C           0.6244  -14.1610  -40.4485 C.2       4 UNK         0.5000 
     51 O          -0.0367  -15.0459  -39.9070 O.2       4 UNK        -0.5000 
     52 CA          2.1622  -14.1536  -40.3138 C.3       4 UNK         0.1400 
     53 CB          2.7120  -15.4446  -39.6717 C.3       4 UNK        -0.1800 
     54 N           2.8429  -13.8794  -41.5860 N.am      4 UNK        -0.5000 
     55 C           2.7564  -14.5848  -42.7239 C.2       3 UNK         0.5000 
     56 O           2.0915  -15.6148  -42.8568 O.2       3 UNK        -0.5000 
     57 CA          3.5373  -14.0195  -43.9264 C.3       3 UNK         0.1400 
     58 CB          4.5567  -15.0504  -44.4345 C.3       3 UNK        -0.1800 
     59 N           2.6875  -13.5842  -45.0422 N.am      3 UNK        -0.5000 
     60 C           1.6216  -12.7688  -44.9650 C.2       2 UNK         0.5000 
     61 O           1.1735  -12.3339  -43.9030 O.2       2 UNK        -0.5000 
     62 CA          0.9418  -12.3282  -46.2804 C.3       2 UNK         0.1400 
     63 CB          1.1222  -10.8172  -46.4969 C.3       2 UNK        -0.1800 
     64 N           1.4340  -13.0269  -47.4682 N.am      2 UNK        -0.5000 
     65 C           1.0800  -14.2677  -47.8278 C.2       1 UNK         0.5000 
     66 O           0.2465  -14.9225  -47.2072 O.2       1 UNK        -0.5000 
     67 C          -3.1721  -21.7850  -45.2354 C.2       11 UNK         0.5000 
     68 O          -4.1737  -22.4558  -44.9854 O.2       11 UNK        -0.5000 
     69 N          -1.9719  -21.9979  -44.6802 N.am      12 UNK        -0.5000 
     70 CA         -1.6599  -23.0908  -43.7665 C.3       12 UNK         0.1400 
     71 CB         -0.8891  -22.5316  -42.5628 C.3       12 UNK        -0.1800 
     72 C          -0.8355  -24.1736  -44.4782 C.2       12 UNK         0.5000 
     73 O          -1.1847  -25.3508  -44.3958 O.2       12 UNK        -0.5000 
     74 N           0.2348  -23.7617  -45.1738 N.am      13 UNK        -0.5000 
     75 CA          1.2501  -24.6419  -45.7601 C.3       13 UNK         0.1400 
     76 CB          2.4406  -23.7932  -46.2325 C.3       13 UNK        -0.1800 
     77 C           0.7375  -25.5305  -46.9071 C.2       13 UNK         0.5000 
     78 O           1.2512  -26.6353  -47.0867 O.2       13 UNK        -0.5000 
     79 N          -0.2645  -25.0426  -47.6468 N.am      14 UNK        -0.5000 
     80 CA         -0.9463  -25.7664  -48.7197 C.3       14 UNK         0.1400 
     81 CB         -0.7004  -25.0340  -50.0508 C.3       14 UNK        -0.1800 
     82 C          -2.4504  -25.9062  -48.4228 C.2       14 UNK         0.5000 
     83 O          -3.2121  -26.2378  -49.3303 O.2       14 UNK        -0.5000 
     84 N          -2.8651  -25.6139  -47.1784 N.am      15 UNK        -0.5000 
     85 CA         -4.2439  -25.6289  -46.6712 C.3       15 UNK         0.1400 
     86 CB         -4.7236  -27.0853  -46.5048 C.3       15 UNK        -0.1800 
     87 C          -5.2299  -24.7721  -47.5007 C.2       15 UNK         0.5000 
     88 O          -6.4112  -25.1111  -47.5887 O.2       15 UNK        -0.5000 
     89 N          -4.7137  -23.6992  -48.1210 N.am      16 UNK        -0.5000 
     90 CA         -5.3890  -22.7911  -49.0527 C.3       16 UNK         0.1400 
     91 CB         -6.5640  -22.0605  -48.3676 C.3       16 UNK        -0.1800 
     92 C          -5.8062  -23.4437  -50.3920 C.2       16 UNK         0.5000 
     93 O          -6.6020  -22.8538  -51.1236 O.2       16 UNK        -0.5000 
     94 N          -5.2619  -24.6254  -50.7197 N.am      17 UNK        -0.5000 
     95 CA         -5.5571  -25.3473  -51.9618 C.3       17 UNK         0.1400 
     96 CB         -5.3500  -26.8524  -51.7313 C.3       17 UNK        -0.1800 
     97 C          -4.7109  -24.8652  -53.1568 C.2       17 UNK         0.5000 
     98 O          -5.0307  -25.2073  -54.2964 O.2       17 UNK        -0.5000 
     99 N          -3.6410  -24.1040  -52.8879 N.am      18 UNK        -0.5000 
    100 CA        -2.7246  -23.5532  -53.8832 C.3       18 UNK         0.1400 
    101 CB        -1.4277  -23.1122  -53.1861 C.3       18 UNK        -0.1800 
    102 C         -3.3664  -22.3916  -54.6624 C.2       18 UNK         0.5000 
    103 O         -3.2515  -21.2340  -54.2529 O.2       18 UNK        -0.5000 
    104 N         -4.0098  -22.7153  -55.7910 N.am      19 UNK        -0.5000 
    105 CA        -4.6372  -21.7605  -56.7106 C.3       19 UNK         0.1400 
    106 CB        -5.3305  -22.5313  -57.8433 C.3       19 UNK        -0.1800 
    107 C         -3.6541  -20.7219  -57.2865 C.2       19 UNK         0.5000 
    108 O         -4.0482  -19.5809  -57.5246 O.2       19 UNK        -0.5000 
    109 N         -2.3844  -21.1194  -57.4512 N.am      20 UNK        -0.5000 
    110 CA        -1.2838  -20.2543  -57.8792 C.3       20 UNK         0.1400 
    111 CB        -0.0530  -21.1234  -58.1792 C.3       20 UNK        -0.1800 
    112 C         -0.9315  -19.1565  -56.8548 C.2       20 UNK         0.5000 
    113 O         -0.4826  -18.0825  -57.2571 O.2       20 UNK        -0.5000 
    114 N         -1.1456  -19.4358  -55.5609 N.am      21 UNK        -0.5000 
    115 CA        -0.9825  -18.4686  -54.4763 C.3       21 UNK         0.1400 
    116 CB        -0.6301  -19.2079  -53.1750 C.3       21 UNK        -0.1800 
    117 C         -2.2560  -17.6266  -54.2954 C.2       21 UNK         0.5000 
    118 O         -2.1608  -16.4169  -54.0866 O.2       21 UNK        -0.5000 
    119 N         -3.4189  -18.2880  -54.3676 N.am      22 UNK        -0.5000 
    120 CA        -4.7486  -17.6751  -54.2269 C.3       22 UNK         0.1400 
    121 C         -5.1330  -16.7085  -55.3839 C.2       22 UNK         0.5000 
    122 N         -4.7549  -16.9843  -56.6251 N.am      22 UNK        -0.7600 
    123 O         -5.7811  -15.6919  -55.1508 O.2       22 UNK        -0.5000 
    124 C124       -5.8415  -18.7591  -53.9976 C.3       23 UNK        -0.0398 
    125 S125       -6.4680  -18.7892  -52.2878 S.3       23 UNK        -0.2404 
    126 C126       -5.0742  -19.5374  -51.3870 C.3       23 UNK        -0.0205 
    127 H127        5.4901  -12.3426  -48.8752 H         1 UNK         0.0600 
    128 H128        4.9137  -12.8001  -50.4810 H         1 UNK         0.0600 
    129 H129        6.1005  -13.8090  -49.6488 H         1 UNK         0.0600 
    130 H130        2.8597  -13.6766  -50.4232 H         1 UNK         0.3000 
    131 H131        2.1969  -15.8446  -48.7216 H         1 UNK         0.0600 
    132 H132        0.2145  -14.3193  -50.4660 H         1 UNK         0.0800 
    133 H133        1.3885  -15.4136  -51.1306 H         1 UNK         0.0800 
    134 H134       -2.0446  -15.4595  -50.9914 H         1 UNK         0.0800 
    135 H135       -1.8897  -15.0238  -49.3048 H         1 UNK         0.0800 
    136 H136       -2.9639  -17.8111  -51.5629 H         1 UNK         0.1150 
    137 H137       -6.0393  -19.1148  -48.8753 H         1 UNK         0.1150 
    138 H138       -3.3165  -16.0281  -47.6912 H         1 UNK         0.1150 
    139 H139       -5.0283  -16.6505  -46.1898 H         1 UNK         0.0800 
    140 H140       -6.4965  -17.1629  -46.9801 H         1 UNK         0.0800 
    141 H141       -3.4164  -19.2697  -44.5564 H         1 UNK         0.0800 
    142 H142       -3.1267  -18.4821  -46.0653 H         1 UNK         0.0800 
    143 H143       -4.0178  -20.9395  -47.0015 H         1 UNK         0.0600 
    144 H144       -1.5136  -19.6462  -46.9610 H         1 UNK         0.3000 
    145 H145        0.4117  -22.1256  -48.5279 H         1 UNK         0.0600 
    146 H146        0.5843  -20.6048  -50.4686 H         1 UNK         0.0600 
    147 H147       -0.9841  -21.3927  -50.4775 H         1 UNK         0.0600 
    148 H148       -0.8543  -19.7238  -49.9491 H         1 UNK         0.0600 
    149 H149        1.1056  -19.4873  -48.3773 H         1 UNK         0.3000 
    150 H150        3.0728  -19.4413  -46.5214 H         1 UNK         0.0600 
    151 H151        1.7810  -17.7419  -47.7020 H         1 UNK         0.0600 
    152 H152        2.3803  -16.9882  -46.2352 H         1 UNK         0.0600 
    153 H153        0.6984  -17.5086  -46.3408 H         1 UNK         0.0600 
    154 H154        1.3318  -19.1530  -44.1427 H         1 UNK         0.3000 
    155 H155        3.3538  -20.0271  -42.0393 H         1 UNK         0.0600 
    156 H156        4.2834  -17.1103  -42.0944 H         1 UNK         0.0600 
    157 H157        5.3135  -18.5296  -41.9664 H         1 UNK         0.0600 
    158 H158        4.2161  -18.1277  -40.6579 H         1 UNK         0.0600 
    159 H159        1.7196  -17.5286  -42.2881 H         1 UNK         0.3000 
    160 H160       -1.1943  -19.2555  -41.5844 H         1 UNK         0.0600 
    161 H161        0.0955  -17.5775  -39.3760 H         1 UNK         0.0600 
    162 H162       -0.7617  -19.0980  -39.1933 H         1 UNK         0.0600 
    163 H163       -1.6435  -17.6543  -39.6706 H         1 UNK         0.0600 
    164 H164       -0.5260  -16.4394  -41.6118 H         1 UNK         0.3000 
    165 H165        0.0725  -15.9273  -44.7419 H         1 UNK         0.0600 
    166 H166       -2.1158  -14.9378  -45.6019 H         1 UNK         0.0600 
    167 H167       -2.9708  -16.1862  -44.6893 H         1 UNK         0.0600 
    168 H168       -1.8475  -16.6267  -45.9765 H         1 UNK         0.0600 
    169 H169        0.0811  -14.3437  -43.2719 H         1 UNK         0.3000 
    170 H170       -1.3839  -12.2471  -42.3042 H         1 UNK         0.0600 
    171 H171       -3.2634  -12.6167  -40.7667 H         1 UNK         0.0600 
    172 H172       -2.3020  -13.6839  -39.7560 H         1 UNK         0.0600 
    173 H173       -1.9038  -11.9695  -39.8632 H         1 UNK         0.0600 
    174 H174        0.7145  -12.5641  -41.6906 H         1 UNK         0.3000 
    175 H175        2.4054  -13.3249  -39.6475 H         1 UNK         0.0600 
    176 H176        2.4309  -16.3300  -40.2407 H         1 UNK         0.0600 
    177 H177        3.7994  -15.4213  -39.6025 H         1 UNK         0.0600 
    178 H178        2.3245  -15.5730  -38.6605 H         1 UNK         0.0600 
    179 H179        3.3998  -13.0362  -41.5963 H         1 UNK         0.3000 
    180 H180        4.0941  -13.1413  -43.5943 H         1 UNK         0.0600 
    181 H181        4.0667  -15.9292  -44.8549 H         1 UNK         0.0600 
    182 H182        5.2059  -15.3918  -43.6274 H         1 UNK         0.0600 
    183 H183        5.2003  -14.6240  -45.2035 H         1 UNK         0.0600 
    184 H184        2.9805  -13.8951  -45.9598 H         1 UNK         0.3000 
    185 H185       -0.1262  -12.5294  -46.1722 H         1 UNK         0.0600 
    186 H186        0.5928  -10.4805  -47.3885 H         1 UNK         0.0600 
    187 H187        0.7264  -10.2491  -45.6539 H         1 UNK         0.0600 
    188 H188        2.1737  -10.5495  -46.6083 H         1 UNK         0.0600 
    189 H189        2.1340  -12.5518  -48.0188 H         1 UNK         0.3000 
    190 H190       -1.1914  -21.4194  -44.9742 H         1 UNK         0.3000 
    191 H191       -2.5746  -23.5558  -43.3926 H         1 UNK         0.0600 
    192 H192       -0.6284  -23.3237  -41.8598 H         1 UNK         0.0600 
    193 H193       -1.4852  -21.7980  -42.0202 H         1 UNK         0.0600 
    194 H194        0.0378  -22.0459  -42.8703 H         1 UNK         0.0600 
    195 H195        0.4299  -22.7639  -45.2293 H         1 UNK         0.3000 
    196 H196        1.6027  -25.3058  -44.9681 H         1 UNK         0.0600 
    197 H197        2.1581  -23.1172  -47.0396 H         1 UNK         0.0600 
    198 H198        2.8463  -23.1922  -45.4183 H         1 UNK         0.0600 
    199 H199        3.2482  -24.4256  -46.6034 H         1 UNK         0.0600 
    200 H200       -0.6406  -24.1275  -47.4308 H         1 UNK         0.3000 
    201 H201       -0.5557  -26.7814  -48.8126 H         1 UNK         0.0600 
    202 H202       -1.1474  -24.0399  -50.0558 H         1 UNK         0.0600 
    203 H203       -1.1274  -25.5898  -50.8865 H         1 UNK         0.0600 
    204 H204        0.3656  -24.9227  -50.2486 H         1 UNK         0.0600 
    205 H205       -2.1576  -25.3830  -46.4939 H         1 UNK         0.3000 
    206 H206       -4.2092  -25.1757  -45.6796 H         1 UNK         0.0600 
    207 H207       -4.0241  -27.6635  -45.9010 H         1 UNK         0.0600 
    208 H208       -5.6916  -27.1267  -46.0043 H         1 UNK         0.0600 
    209 H209       -4.8297  -27.5862  -47.4678 H         1 UNK         0.0600 
    210 H210       -3.7234  -23.5110  -47.9894 H         1 UNK         0.3000 
    211 H211       -4.6419  -22.0389  -49.3086 H         1 UNK         0.0600 
    212 H212       -6.9599  -21.2695  -49.0045 H         1 UNK         0.0600 
    213 H213       -6.2563  -21.5990  -47.4300 H         1 UNK         0.0600 
    214 H214       -7.3908  -22.7365  -48.1498 H         1 UNK         0.0600 
    215 H215       -4.6122  -25.0768  -50.0815 H         1 UNK         0.3000 
    216 H216       -6.6067  -25.1937  -52.2209 H         1 UNK         0.0600 
    217 H217       -4.2999  -27.0952  -51.5669 H         1 UNK         0.0600 
    218 H218       -5.6844  -27.4277  -52.5955 H         1 UNK         0.0600 
    219 H219       -5.9158  -27.2032  -50.8679 H         1 UNK         0.0600 
    220 H220       -3.4657  -23.8611  -51.9251 H         1 UNK         0.3000 
    221 H221       -2.4647  -24.3403  -54.5943 H         1 UNK         0.0600 
    222 H222       -0.9088  -23.9615  -52.7436 H         1 UNK         0.0600 
    223 H223       -1.6263  -22.3876  -52.3981 H         1 UNK         0.0600 
    224 H224       -0.7393  -22.6472  -53.8931 H         1 UNK         0.0600 
    225 H225       -4.1106  -23.6950  -56.0199 H         1 UNK         0.3000 
    226 H226       -5.4014  -21.2162  -56.1534 H         1 UNK         0.0600 
    227 H227       -4.6198  -23.1221  -58.4225 H         1 UNK         0.0600 
    228 H228       -6.0902  -23.2083  -57.4520 H         1 UNK         0.0600 
    229 H229       -5.8293  -21.8485  -58.5324 H         1 UNK         0.0600 
    230 H230       -2.1523  -22.0780  -57.2376 H         1 UNK         0.3000 
    231 H231       -1.5860  -19.7575  -58.8036 H         1 UNK         0.0600 
    232 H232        0.2832  -21.6649  -57.2939 H         1 UNK         0.0600 
    233 H233        0.7812  -20.5124  -58.5267 H         1 UNK         0.0600 
    234 H234       -0.2661  -21.8537  -58.9600 H         1 UNK         0.0600 
    235 H235       -1.5647  -20.3220  -55.3139 H         1 UNK         0.3000 
    236 H236       -0.1570  -17.7931  -54.7110 H         1 UNK         0.0600 
    237 H237        0.2695  -19.8117  -53.2934 H         1 UNK         0.0600 
    238 H238       -0.4417  -18.4999  -52.3677 H         1 UNK         0.0600 
    239 H239       -1.4346  -19.8663  -52.8470 H         1 UNK         0.0600 
    240 H240       -3.3949  -19.2939  -54.4971 H         1 UNK         0.3000 
    241 H241       -4.6970  -17.0426  -53.3382 H         1 UNK         0.0600 
    242 H242       -5.0022  -16.3502  -57.3676 H         1 UNK         0.3800 
    243 H243       -4.3093  -17.8695  -56.8552 H         1 UNK         0.3800 
    244 H244       -5.4824  -19.7558  -54.2529 H         1 UNK         0.0800 
    245 H245       -6.7104  -18.6045  -54.6405 H         1 UNK         0.0800 
    246 H246       -4.2758  -19.8302  -52.0703 H         1 UNK         0.0800 
    247 H247       -5.4207  -20.4543  -50.9151 H         1 UNK         0.0800 
@<TRIPOS>BOND
     1    1    2 1    
     2    1  127 1    
     3    1  128 1    
     4    1  129 1    
     5    2    3 2    
     6    2    4 am   BACKBONE|DICT|INTERRES
     7    4    5 1    
     8    4  130 1    
     9    5    6 1    
    10    5   65 1    
    11    5  131 1    
    12    6    7 1    
    13    6  132 1    
    14    6  133 1    
    15    7    8 1    
    16    8    9 1    
    17    8  134 1    
    18    8  135 1    
    19    9   10 ar   
    20    9   14 ar   
    21   10   11 ar   
    22   10  136 1    
    23   11   12 ar   
    24   11  126 1    
    25   12   13 ar   
    26   12  137 1    
    27   13   14 ar   
    28   13   15 1    
    29   14  138 1    
    30   15   16 1    
    31   15  139 1    
    32   15  140 1    
    33   16   17 1    
    34   17   18 1    
    35   17  141 1    
    36   17  142 1    
    37   18   19 1    
    38   18   67 1    
    39   18  143 1    
    40   19   20 am   BACKBONE|DICT|INTERRES
    41   19  144 1    
    42   20   21 2    
    43   20   22 1    
    44   22   23 1    
    45   22   24 1    
    46   22  145 1    
    47   23  146 1    
    48   23  147 1    
    49   23  148 1    
    50   24   25 am   BACKBONE|DICT|INTERRES
    51   24  149 1    
    52   25   26 2    
    53   25   27 1    
    54   27   28 1    
    55   27   29 1    
    56   27  150 1    
    57   28  151 1    
    58   28  152 1    
    59   28  153 1    
    60   29   30 am   BACKBONE|DICT|INTERRES
    61   29  154 1    
    62   30   31 2    
    63   30   32 1    
    64   32   33 1    
    65   32   34 1    
    66   32  155 1    
    67   33  156 1    
    68   33  157 1    
    69   33  158 1    
    70   34   35 am   BACKBONE|DICT|INTERRES
    71   34  159 1    
    72   35   36 2    
    73   35   37 1    
    74   37   38 1    
    75   37   39 1    
    76   37  160 1    
    77   38  161 1    
    78   38  162 1    
    79   38  163 1    
    80   39   40 am   BACKBONE|DICT|INTERRES
    81   39  164 1    
    82   40   41 2    
    83   40   42 1    
    84   42   43 1    
    85   42   44 1    
    86   42  165 1    
    87   43  166 1    
    88   43  167 1    
    89   43  168 1    
    90   44   45 am   BACKBONE|DICT|INTERRES
    91   44  169 1    
    92   45   46 2    
    93   45   47 1    
    94   47   48 1    
    95   47   49 1    
    96   47  170 1    
    97   48  171 1    
    98   48  172 1    
    99   48  173 1    
   100   49   50 am   BACKBONE|DICT|INTERRES
   101   49  174 1    
   102   50   51 2    
   103   50   52 1    
   104   52   53 1    
   105   52   54 1    
   106   52  175 1    
   107   53  176 1    
   108   53  177 1    
   109   53  178 1    
   110   54   55 am   BACKBONE|DICT|INTERRES
   111   54  179 1    
   112   55   56 2    
   113   55   57 1    
   114   57   58 1    
   115   57   59 1    
   116   57  180 1    
   117   58  181 1    
   118   58  182 1    
   119   58  183 1    
   120   59   60 am   BACKBONE|DICT|INTERRES
   121   59  184 1    
   122   60   61 2    
   123   60   62 1    
   124   62   63 1    
   125   62   64 1    
   126   62  185 1    
   127   63  186 1    
   128   63  187 1    
   129   63  188 1    
   130   64   65 am   BACKBONE|DICT|INTERRES
   131   64  189 1    
   132   65   66 2    
   133   67   68 2    
   134   67   69 am   BACKBONE|DICT|INTERRES
   135   69   70 1    
   136   69  190 1    
   137   70   71 1    
   138   70   72 1    
   139   70  191 1    
   140   71  192 1    
   141   71  193 1    
   142   71  194 1    
   143   72   73 2    
   144   72   74 am   BACKBONE|DICT|INTERRES
   145   74   75 1    
   146   74  195 1    
   147   75   76 1    
   148   75   77 1    
   149   75  196 1    
   150   76  197 1    
   151   76  198 1    
   152   76  199 1    
   153   77   78 2    
   154   77   79 am   BACKBONE|DICT|INTERRES
   155   79   80 1    
   156   79  200 1    
   157   80   81 1    
   158   80   82 1    
   159   80  201 1    
   160   81  202 1    
   161   81  203 1    
   162   81  204 1    
   163   82   83 2    
   164   82   84 am   BACKBONE|DICT|INTERRES
   165   84   85 1    
   166   84  205 1    
   167   85   86 1    
   168   85   87 1    
   169   85  206 1    
   170   86  207 1    
   171   86  208 1    
   172   86  209 1    
   173   87   88 2    
   174   87   89 am   BACKBONE|DICT|INTERRES
   175   89   90 1    
   176   89  210 1    
   177   90   91 1    
   178   90   92 1    
   179   90  211 1    
   180   91  212 1    
   181   91  213 1    
   182   91  214 1    
   183   92   93 2    
   184   92   94 am   BACKBONE|DICT|INTERRES
   185   94   95 1    
   186   94  215 1    
   187   95   96 1    
   188   95   97 1    
   189   95  216 1    
   190   96  217 1    
   191   96  218 1    
   192   96  219 1    
   193   97   98 2    
   194   97   99 am   BACKBONE|DICT|INTERRES
   195   99  100 1    
   196   99  220 1    
   197  100  101 1    
   198  100  102 1    
   199  100  221 1    
   200  101  222 1    
   201  101  223 1    
   202  101  224 1    
   203  102  103 2    
   204  102  104 am   BACKBONE|DICT|INTERRES
   205  104  105 1    
   206  104  225 1    
   207  105  106 1    
   208  105  107 1    
   209  105  226 1    
   210  106  227 1    
   211  106  228 1    
   212  106  229 1    
   213  107  108 2    
   214  107  109 am   BACKBONE|DICT|INTERRES
   215  109  110 1    
   216  109  230 1    
   217  110  111 1    
   218  110  112 1    
   219  110  231 1    
   220  111  232 1    
   221  111  233 1    
   222  111  234 1    
   223  112  113 2    
   224  112  114 am   BACKBONE|DICT|INTERRES
   225  114  115 1    
   226  114  235 1    
   227  115  116 1    
   228  115  117 1    
   229  115  236 1    
   230  116  237 1    
   231  116  238 1    
   232  116  239 1    
   233  117  118 2    
   234  117  119 am   BACKBONE|DICT|INTERRES
   235  119  120 1    
   236  119  240 1    
   237  120  121 1    
   238  120  124 1    
   239  120  241 1    
   240  121  122 am   BACKBONE|DICT|INTERRES
   241  121  123 2    
   242  122  242 1    
   243  122  243 1    
   244  124  125 1    
   245  124  244 1    
   246  124  245 1    
   247  125  126 1    
   248  126  246 1    
   249  126  247 1    
@<TRIPOS>SUBSTRUCTURE
     1 UNK         1 GROUP             0       ****    0 ROOT    
