@<TRIPOS>MOLECULE
3R540
247   249    1
SMALL
USER_CHARGES


@<TRIPOS>ATOM
      1 CA         -5.5901   -8.0348  -46.9048 C.3       0 UNK        -0.1800 
      2 C          -4.6322   -8.9802  -47.6163 C.2       0 UNK         0.5000 
      3 O          -4.0506   -8.6094  -48.6366 O.2       0 UNK        -0.5000 
      4 N          -4.4746  -10.1999  -47.0888 N.am      1 UNK        -0.5000 
      5 CA         -3.5621  -11.2265  -47.6014 C.3       1 UNK         0.1400 
      6 C6         -3.8402  -12.6102  -46.9683 C.3       23 UNK        -0.0398 
      7 S7         -5.4322  -13.3151  -47.5159 S.3       23 UNK        -0.2404 
      8 C8         -4.9673  -14.1397  -49.0761 C.3       23 UNK        -0.0205 
      9 C9         -3.9506  -15.2517  -48.8639 C.ar      23 UNK        -0.0193 
     10 C10        -2.6151  -15.0685  -49.2319 C.ar      23 UNK        -0.1150 
     11 C11        -1.6719  -16.0804  -49.0279 C.ar      23 UNK        -0.0193 
     12 C12        -2.0712  -17.2721  -48.4133 C.ar      23 UNK        -0.1150 
     13 C13        -3.4011  -17.4578  -48.0223 C.ar      23 UNK        -0.0193 
     14 C14        -4.3405  -16.4551  -48.2743 C.ar      23 UNK        -0.1150 
     15 C15        -3.8200  -18.7097  -47.2714 C.3       23 UNK        -0.0205 
     16 S16        -3.9746  -18.3358  -45.4951 S.3       23 UNK        -0.2404 
     17 C17        -4.5500  -19.8934  -44.7372 C.3       23 UNK        -0.0398 
     18 CA         -3.9294  -21.1960  -45.2955 C.3       11 UNK         0.1400 
     19 N          -2.4583  -21.1738  -45.3368 N.am      11 UNK        -0.5000 
     20 C          -1.6910  -22.1640  -45.8185 C.2       10 UNK         0.5000 
     21 O          -2.1445  -23.2096  -46.2795 O.2       10 UNK        -0.5000 
     22 CA         -0.1699  -21.9918  -45.7267 C.3       10 UNK         0.1400 
     23 CB          0.3565  -21.0894  -46.8548 C.3       10 UNK        -0.1800 
     24 N           0.2029  -21.4765  -44.4106 N.am      10 UNK        -0.5000 
     25 C           0.2070  -22.2342  -43.3013 C.2       9 UNK         0.5000 
     26 O           0.0573  -23.4560  -43.3128 O.2       9 UNK        -0.5000 
     27 CA          0.3510  -21.5163  -41.9463 C.3       9 UNK         0.1400 
     28 CB          1.7978  -21.5765  -41.4363 C.3       9 UNK        -0.1800 
     29 N          -0.1080  -20.1269  -41.9925 N.am      9 UNK        -0.5000 
     30 C          -1.4013  -19.7762  -42.0577 C.2       8 UNK         0.5000 
     31 O          -2.3240  -20.5919  -42.0542 O.2       8 UNK        -0.5000 
     32 CA         -1.7270  -18.2749  -42.1926 C.3       8 UNK         0.1400 
     33 CB         -1.9586  -17.6518  -40.8085 C.3       8 UNK        -0.1800 
     34 N          -0.7105  -17.4967  -42.9052 N.am      8 UNK        -0.5000 
     35 C          -0.3003  -17.7239  -44.1605 C.2       7 UNK         0.5000 
     36 O          -0.7306  -18.6479  -44.8524 O.2       7 UNK        -0.5000 
     37 CA          0.8154  -16.8162  -44.7262 C.3       7 UNK         0.1400 
     38 CB          1.2975  -15.7201  -43.7505 C.3       7 UNK        -0.1800 
     39 N           1.9627  -17.5958  -45.2015 N.am      7 UNK        -0.5000 
     40 C           2.6463  -18.5288  -44.5156 C.2       6 UNK         0.5000 
     41 O           2.3995  -18.8265  -43.3460 O.2       6 UNK        -0.5000 
     42 CA          3.7775  -19.2650  -45.2601 C.3       6 UNK         0.1400 
     43 CB          3.9150  -20.7390  -44.8362 C.3       6 UNK        -0.1800 
     44 N           3.5781  -19.1850  -46.7050 N.am      6 UNK        -0.5000 
     45 C           4.5417  -18.9667  -47.6036 C.2       5 UNK         0.5000 
     46 O           5.7443  -18.9544  -47.3361 O.2       5 UNK        -0.5000 
     47 CA          4.0894  -18.6426  -49.0412 C.3       5 UNK         0.1400 
     48 CB          2.6789  -19.1696  -49.4008 C.3       5 UNK        -0.1800 
     49 N           4.1953  -17.2002  -49.2870 N.am      5 UNK        -0.5000 
     50 C           3.5560  -16.2227  -48.6268 C.2       4 UNK         0.5000 
     51 O           2.6964  -16.4270  -47.7650 O.2       4 UNK        -0.5000 
     52 CA          3.9551  -14.7816  -49.0100 C.3       4 UNK         0.1400 
     53 CB          3.4796  -14.4342  -50.4308 C.3       4 UNK        -0.1800 
     54 N           3.4238  -13.7686  -48.0988 N.am      4 UNK        -0.5000 
     55 C           3.7126  -13.6267  -46.7980 C.2       3 UNK         0.5000 
     56 O           4.5482  -14.3130  -46.2076 O.2       3 UNK        -0.5000 
     57 CA          2.9666  -12.5089  -46.0314 C.3       3 UNK         0.1400 
     58 CB          3.9556  -11.5812  -45.3054 C.3       3 UNK        -0.1800 
     59 N           2.1039  -11.6875  -46.8889 N.am      3 UNK        -0.5000 
     60 C           0.8725  -12.0219  -47.2928 C.2       2 UNK         0.5000 
     61 O           0.3013  -13.0637  -46.9644 O.2       2 UNK        -0.5000 
     62 CA          0.2139  -11.0547  -48.2953 C.3       2 UNK         0.1400 
     63 CB          0.7789  -11.2931  -49.7062 C.3       2 UNK        -0.1800 
     64 N          -1.2374  -11.2159  -48.3465 N.am      2 UNK        -0.5000 
     65 C          -2.0865  -10.8331  -47.3856 C.2       1 UNK         0.5000 
     66 O          -1.7472  -10.2287  -46.3644 O.2       1 UNK        -0.5000 
     67 C          -4.4760  -22.4176  -44.5268 C.2       11 UNK         0.5000 
     68 O          -5.3945  -23.0786  -45.0128 O.2       11 UNK        -0.5000 
     69 N          -3.8436  -22.7369  -43.3884 N.am      12 UNK        -0.5000 
     70 CA         -4.1110  -23.9190  -42.5645 C.3       12 UNK         0.1400 
     71 CB         -3.2796  -23.8178  -41.2767 C.3       12 UNK        -0.1800 
     72 C          -3.8391  -25.2650  -43.2721 C.2       12 UNK         0.5000 
     73 O          -4.4096  -26.2799  -42.8721 O.2       12 UNK        -0.5000 
     74 N          -3.0016  -25.2510  -44.3167 N.am      13 UNK        -0.5000 
     75 CA         -2.6643  -26.3917  -45.1679 C.3       13 UNK         0.1400 
     76 CB         -1.1405  -26.4028  -45.3899 C.3       13 UNK        -0.1800 
     77 C          -3.4465  -26.3479  -46.4982 C.2       13 UNK         0.5000 
     78 O          -2.9302  -26.7917  -47.5252 O.2       13 UNK        -0.5000 
     79 N          -4.6685  -25.7921  -46.4676 N.am      14 UNK        -0.5000 
     80 CA         -5.5887  -25.6067  -47.5968 C.3       14 UNK         0.1400 
     81 CB         -6.0881  -26.9671  -48.1277 C.3       14 UNK        -0.1800 
     82 C          -4.9799  -24.7160  -48.6977 C.2       14 UNK         0.5000 
     83 O          -4.9892  -25.0805  -49.8752 O.2       14 UNK        -0.5000 
     84 N          -4.4092  -23.5811  -48.2683 N.am      15 UNK        -0.5000 
     85 CA         -3.6340  -22.6294  -49.0717 C.3       15 UNK         0.1400 
     86 CB         -4.5380  -21.8944  -50.0821 C.3       15 UNK        -0.1800 
     87 C          -2.4049  -23.2984  -49.7180 C.2       15 UNK         0.5000 
     88 O          -2.1581  -23.1124  -50.9077 O.2       15 UNK        -0.5000 
     89 N          -1.6815  -24.0940  -48.9176 N.am      16 UNK        -0.5000 
     90 CA         -0.5432  -24.9407  -49.2892 C.3       16 UNK         0.1400 
     91 CB          0.6952  -24.0705  -49.5896 C.3       16 UNK        -0.1800 
     92 C          -0.8954  -25.9165  -50.4320 C.2       16 UNK         0.5000 
     93 O          -0.1672  -26.0015  -51.4202 O.2       16 UNK        -0.5000 
     94 N          -2.0467  -26.5905  -50.2932 N.am      17 UNK        -0.5000 
     95 CA         -2.7102  -27.4210  -51.3055 C.3       17 UNK         0.1400 
     96 CB         -1.9149  -28.7192  -51.5541 C.3       17 UNK        -0.1800 
     97 C          -3.0136  -26.6314  -52.6000 C.2       17 UNK         0.5000 
     98 O          -2.7143  -27.0946  -53.7022 O.2       17 UNK        -0.5000 
     99 N          -3.5860  -25.4331  -52.4193 N.am      18 UNK        -0.5000 
    100 CA        -3.9461  -24.4350  -53.4325 C.3       18 UNK         0.1400 
    101 CB        -5.0513  -24.9769  -54.3627 C.3       18 UNK        -0.1800 
    102 C         -2.7543  -23.8295  -54.2116 C.2       18 UNK         0.5000 
    103 O         -2.9635  -23.2644  -55.2867 O.2       18 UNK        -0.5000 
    104 N         -1.5341  -23.9250  -53.6655 N.am      19 UNK        -0.5000 
    105 CA        -0.3299  -23.3035  -54.2219 C.3       19 UNK         0.1400 
    106 CB         0.9069  -24.1070  -53.7952 C.3       19 UNK        -0.1800 
    107 C         -0.1752  -21.8266  -53.8082 C.2       19 UNK         0.5000 
    108 O          0.4765  -21.0718  -54.5319 O.2       19 UNK        -0.5000 
    109 N         -0.7553  -21.4428  -52.6621 N.am      20 UNK        -0.5000 
    110 CA        -0.7912  -20.0749  -52.1487 C.3       20 UNK         0.1400 
    111 CB        -0.6556  -20.1025  -50.6117 C.3       20 UNK        -0.1800 
    112 C         -2.0588  -19.3629  -52.6662 C.2       20 UNK         0.5000 
    113 O         -2.2427  -19.2882  -53.8822 O.2       20 UNK        -0.5000 
    114 N         -2.8970  -18.8393  -51.7536 N.am      21 UNK        -0.5000 
    115 CA        -4.0876  -18.0151  -52.0209 C.3       21 UNK         0.1400 
    116 CB        -5.1945  -18.8385  -52.7119 C.3       21 UNK        -0.1800 
    117 C         -3.7021  -16.7324  -52.7873 C.2       21 UNK         0.5000 
    118 O         -4.2332  -16.4418  -53.8599 O.2       21 UNK        -0.5000 
    119 N         -2.7100  -16.0399  -52.2214 N.am      22 UNK        -0.5000 
    120 CA        -1.8793  -14.9950  -52.8359 C.3       22 UNK         0.1400 
    121 C         -2.5967  -13.6581  -53.1891 C.2       22 UNK         0.5000 
    122 N         -3.8564  -13.4578  -52.8247 N.am      22 UNK        -0.7600 
    123 O         -1.9933  -12.7826  -53.8029 O.2       22 UNK        -0.5000 
    124 C124       -0.5934  -14.7244  -51.9982 C.3       23 UNK        -0.0398 
    125 S125        0.1228  -16.2020  -51.1794 S.3       23 UNK        -0.2404 
    126 C126       -0.2139  -15.8673  -49.4157 C.3       23 UNK        -0.0205 
    127 H127       -6.0421   -8.4993  -46.0280 H         1 UNK         0.0600 
    128 H128       -6.3908   -7.7331  -47.5801 H         1 UNK         0.0600 
    129 H129       -5.0607   -7.1391  -46.5799 H         1 UNK         0.0600 
    130 H130       -4.9729  -10.4418  -46.2446 H         1 UNK         0.3000 
    131 H131       -3.7279  -11.3023  -48.6784 H         1 UNK         0.0600 
    132 H132       -3.0407  -13.3181  -47.1881 H         1 UNK         0.0800 
    133 H133       -3.8587  -12.5309  -45.8801 H         1 UNK         0.0800 
    134 H134       -5.8651  -14.5583  -49.5329 H         1 UNK         0.0800 
    135 H135       -4.5881  -13.3967  -49.7791 H         1 UNK         0.0800 
    136 H136       -2.3128  -14.1288  -49.6675 H         1 UNK         0.1150 
    137 H137       -1.3399  -18.0401  -48.2036 H         1 UNK         0.1150 
    138 H138       -5.3671  -16.5910  -47.9635 H         1 UNK         0.1150 
    139 H139       -4.7715  -19.0771  -47.6585 H         1 UNK         0.0800 
    140 H140       -3.0831  -19.4974  -47.4271 H         1 UNK         0.0800 
    141 H141       -5.6354  -19.9242  -44.8480 H         1 UNK         0.0800 
    142 H142       -4.3649  -19.8137  -43.6650 H         1 UNK         0.0800 
    143 H143       -4.2737  -21.3060  -46.3241 H         1 UNK         0.0600 
    144 H144       -2.0088  -20.3270  -45.0042 H         1 UNK         0.3000 
    145 H145        0.2825  -22.9770  -45.8608 H         1 UNK         0.0600 
    146 H146        1.4448  -21.0668  -46.8605 H         1 UNK         0.0600 
    147 H147        0.0392  -21.4640  -47.8283 H         1 UNK         0.0600 
    148 H148       -0.0043  -20.0655  -46.7779 H         1 UNK         0.0600 
    149 H149        0.2652  -20.4701  -44.3163 H         1 UNK         0.3000 
    150 H150       -0.2717  -22.0538  -41.2277 H         1 UNK         0.0600 
    151 H151        2.1249  -22.6104  -41.3198 H         1 UNK         0.0600 
    152 H152        1.8948  -21.0933  -40.4641 H         1 UNK         0.0600 
    153 H153        2.4909  -21.0933  -42.1221 H         1 UNK         0.0600 
    154 H154        0.6064  -19.4129  -42.0700 H         1 UNK         0.3000 
    155 H155       -2.6556  -18.1939  -42.7594 H         1 UNK         0.0600 
    156 H156       -2.7305  -18.1939  -40.2603 H         1 UNK         0.0600 
    157 H157       -2.2886  -16.6161  -40.8916 H         1 UNK         0.0600 
    158 H158       -1.0517  -17.6693  -40.2027 H         1 UNK         0.0600 
    159 H159       -0.2828  -16.7398  -42.3925 H         1 UNK         0.3000 
    160 H160        0.3937  -16.3221  -45.6032 H         1 UNK         0.0600 
    161 H161        1.7106  -16.1389  -42.8321 H         1 UNK         0.0600 
    162 H162        0.4854  -15.0437  -43.4810 H         1 UNK         0.0600 
    163 H163        2.0782  -15.1145  -44.2095 H         1 UNK         0.0600 
    164 H164        2.2700  -17.3580  -46.1415 H         1 UNK         0.3000 
    165 H165        4.6980  -18.7437  -44.9895 H         1 UNK         0.0600 
    166 H166        4.7037  -21.2388  -45.3985 H         1 UNK         0.0600 
    167 H167        4.1758  -20.8190  -43.7808 H         1 UNK         0.0600 
    168 H168        2.9903  -21.2937  -44.9923 H         1 UNK         0.0600 
    169 H169        2.6185  -19.1461  -47.0166 H         1 UNK         0.3000 
    170 H170        4.8018  -19.1299  -49.7086 H         1 UNK         0.0600 
    171 H171        1.8870  -18.7035  -48.8147 H         1 UNK         0.0600 
    172 H172        2.4537  -18.9836  -50.4511 H         1 UNK         0.0600 
    173 H173        2.6139  -20.2473  -49.2455 H         1 UNK         0.0600 
    174 H174        4.8953  -16.9352  -49.9654 H         1 UNK         0.3000 
    175 H175        5.0447  -14.7205  -48.9788 H         1 UNK         0.0600 
    176 H176        2.3919  -14.4147  -50.4949 H         1 UNK         0.0600 
    177 H177        3.8471  -13.4553  -50.7396 H         1 UNK         0.0600 
    178 H178        3.8381  -15.1571  -51.1644 H         1 UNK         0.0600 
    179 H179        2.7072  -13.1695  -48.4752 H         1 UNK         0.3000 
    180 H180        2.3464  -12.9954  -45.2766 H         1 UNK         0.0600 
    181 H181        4.6243  -11.0795  -46.0059 H         1 UNK         0.0600 
    182 H182        4.5752  -12.1388  -44.6018 H         1 UNK         0.0600 
    183 H183        3.4311  -10.8155  -44.7335 H         1 UNK         0.0600 
    184 H184        2.5088  -10.8236  -47.2216 H         1 UNK         0.3000 
    185 H185        0.4380  -10.0296  -47.9924 H         1 UNK         0.0600 
    186 H186        0.6093  -12.3167  -50.0416 H         1 UNK         0.0600 
    187 H187        0.3213  -10.6222  -50.4336 H         1 UNK         0.0600 
    188 H188        1.8541  -11.1130  -49.7373 H         1 UNK         0.0600 
    189 H189       -1.5966  -11.7174  -49.1439 H         1 UNK         0.3000 
    190 H190       -3.1296  -22.1023  -43.0416 H         1 UNK         0.3000 
    191 H191       -5.1685  -23.9014  -42.2935 H         1 UNK         0.0600 
    192 H192       -2.2102  -23.8119  -41.4911 H         1 UNK         0.0600 
    193 H193       -3.5153  -22.9077  -40.7246 H         1 UNK         0.0600 
    194 H194       -3.4779  -24.6607  -40.6135 H         1 UNK         0.0600 
    195 H195       -2.6150  -24.3638  -44.6160 H         1 UNK         0.3000 
    196 H196       -2.9360  -27.3250  -44.6713 H         1 UNK         0.0600 
    197 H197       -0.6063  -26.4348  -44.4401 H         1 UNK         0.0600 
    198 H198       -0.8040  -25.5170  -45.9285 H         1 UNK         0.0600 
    199 H199       -0.8308  -27.2765  -45.9645 H         1 UNK         0.0600 
    200 H200       -4.9812  -25.4036  -45.5878 H         1 UNK         0.3000 
    201 H201       -6.4526  -25.0661  -47.2073 H         1 UNK         0.0600 
    202 H202       -6.8550  -26.8290  -48.8907 H         1 UNK         0.0600 
    203 H203       -6.5290  -27.5635  -47.3291 H         1 UNK         0.0600 
    204 H204       -5.2840  -27.5506  -48.5770 H         1 UNK         0.0600 
    205 H205       -4.3996  -23.4236  -47.2697 H         1 UNK         0.3000 
    206 H206       -3.2389  -21.8773  -48.3902 H         1 UNK         0.0600 
    207 H207       -5.3424  -21.3627  -49.5741 H         1 UNK         0.0600 
    208 H208       -4.9913  -22.5776  -50.7994 H         1 UNK         0.0600 
    209 H209       -3.9720  -21.1577  -50.6503 H         1 UNK         0.0600 
    210 H210       -1.9617  -24.1378  -47.9424 H         1 UNK         0.3000 
    211 H211       -0.3131  -25.5589  -48.4206 H         1 UNK         0.0600 
    212 H212        0.9759  -23.4762  -48.7212 H         1 UNK         0.0600 
    213 H213        1.5567  -24.6878  -49.8464 H         1 UNK         0.0600 
    214 H214        0.5210  -23.3875  -50.4213 H         1 UNK         0.0600 
    215 H215       -2.5479  -26.4855  -49.4146 H         1 UNK         0.3000 
    216 H216       -3.6767  -27.7012  -50.8840 H         1 UNK         0.0600 
    217 H217       -2.4610  -29.3890  -52.2193 H         1 UNK         0.0600 
    218 H218       -0.9461  -28.5213  -52.0134 H         1 UNK         0.0600 
    219 H219       -1.7409  -29.2579  -50.6227 H         1 UNK         0.0600 
    220 H220       -3.8205  -25.1720  -51.4654 H         1 UNK         0.3000 
    221 H221       -4.3755  -23.6019  -52.8757 H         1 UNK         0.0600 
    222 H222       -4.6813  -25.7720  -55.0103 H         1 UNK         0.0600 
    223 H223       -5.8896  -25.3726  -53.7892 H         1 UNK         0.0600 
    224 H224       -5.4452  -24.1892  -55.0058 H         1 UNK         0.0600 
    225 H225       -1.4439  -24.3719  -52.7614 H         1 UNK         0.3000 
    226 H226       -0.3856  -23.3384  -55.3119 H         1 UNK         0.0600 
    227 H227        0.8070  -25.1598  -54.0602 H         1 UNK         0.0600 
    228 H228        1.8042  -23.7300  -54.2873 H         1 UNK         0.0600 
    229 H229        1.0758  -24.0448  -52.7203 H         1 UNK         0.0600 
    230 H230       -1.2888  -22.1301  -52.1322 H         1 UNK         0.3000 
    231 H231        0.0647  -19.5185  -52.5362 H         1 UNK         0.0600 
    232 H232       -0.5114  -19.0972  -50.2167 H         1 UNK         0.0600 
    233 H233        0.2127  -20.6880  -50.3099 H         1 UNK         0.0600 
    234 H234       -1.5269  -20.5345  -50.1220 H         1 UNK         0.0600 
    235 H235       -2.6507  -18.9416  -50.7805 H         1 UNK         0.3000 
    236 H236       -4.4736  -17.6955  -51.0518 H         1 UNK         0.0600 
    237 H237       -5.4527  -19.7210  -52.1273 H         1 UNK         0.0600 
    238 H238       -6.1037  -18.2470  -52.8247 H         1 UNK         0.0600 
    239 H239       -4.8978  -19.1713  -53.7067 H         1 UNK         0.0600 
    240 H240       -2.3561  -16.3709  -51.3351 H         1 UNK         0.3000 
    241 H241       -1.5549  -15.4088  -53.7924 H         1 UNK         0.0600 
    242 H242       -4.3121  -12.5921  -53.0661 H         1 UNK         0.3800 
    243 H243       -4.3762  -14.1952  -52.3780 H         1 UNK         0.3800 
    244 H244        0.1767  -14.3041  -52.6469 H         1 UNK         0.0800 
    245 H245       -0.7722  -13.9586  -51.2448 H         1 UNK         0.0800 
    246 H246        0.1048  -14.8570  -49.1553 H         1 UNK         0.0800 
    247 H247        0.4080  -16.5371  -48.8239 H         1 UNK         0.0800 
@<TRIPOS>BOND
     1    1    2 1    
     2    1  127 1    
     3    1  128 1    
     4    1  129 1    
     5    2    3 2    
     6    2    4 am   BACKBONE|DICT|INTERRES
     7    4    5 1    
     8    4  130 1    
     9    5    6 1    
    10    5   65 1    
    11    5  131 1    
    12    6    7 1    
    13    6  132 1    
    14    6  133 1    
    15    7    8 1    
    16    8    9 1    
    17    8  134 1    
    18    8  135 1    
    19    9   10 ar   
    20    9   14 ar   
    21   10   11 ar   
    22   10  136 1    
    23   11   12 ar   
    24   11  126 1    
    25   12   13 ar   
    26   12  137 1    
    27   13   14 ar   
    28   13   15 1    
    29   14  138 1    
    30   15   16 1    
    31   15  139 1    
    32   15  140 1    
    33   16   17 1    
    34   17   18 1    
    35   17  141 1    
    36   17  142 1    
    37   18   19 1    
    38   18   67 1    
    39   18  143 1    
    40   19   20 am   BACKBONE|DICT|INTERRES
    41   19  144 1    
    42   20   21 2    
    43   20   22 1    
    44   22   23 1    
    45   22   24 1    
    46   22  145 1    
    47   23  146 1    
    48   23  147 1    
    49   23  148 1    
    50   24   25 am   BACKBONE|DICT|INTERRES
    51   24  149 1    
    52   25   26 2    
    53   25   27 1    
    54   27   28 1    
    55   27   29 1    
    56   27  150 1    
    57   28  151 1    
    58   28  152 1    
    59   28  153 1    
    60   29   30 am   BACKBONE|DICT|INTERRES
    61   29  154 1    
    62   30   31 2    
    63   30   32 1    
    64   32   33 1    
    65   32   34 1    
    66   32  155 1    
    67   33  156 1    
    68   33  157 1    
    69   33  158 1    
    70   34   35 am   BACKBONE|DICT|INTERRES
    71   34  159 1    
    72   35   36 2    
    73   35   37 1    
    74   37   38 1    
    75   37   39 1    
    76   37  160 1    
    77   38  161 1    
    78   38  162 1    
    79   38  163 1    
    80   39   40 am   BACKBONE|DICT|INTERRES
    81   39  164 1    
    82   40   41 2    
    83   40   42 1    
    84   42   43 1    
    85   42   44 1    
    86   42  165 1    
    87   43  166 1    
    88   43  167 1    
    89   43  168 1    
    90   44   45 am   BACKBONE|DICT|INTERRES
    91   44  169 1    
    92   45   46 2    
    93   45   47 1    
    94   47   48 1    
    95   47   49 1    
    96   47  170 1    
    97   48  171 1    
    98   48  172 1    
    99   48  173 1    
   100   49   50 am   BACKBONE|DICT|INTERRES
   101   49  174 1    
   102   50   51 2    
   103   50   52 1    
   104   52   53 1    
   105   52   54 1    
   106   52  175 1    
   107   53  176 1    
   108   53  177 1    
   109   53  178 1    
   110   54   55 am   BACKBONE|DICT|INTERRES
   111   54  179 1    
   112   55   56 2    
   113   55   57 1    
   114   57   58 1    
   115   57   59 1    
   116   57  180 1    
   117   58  181 1    
   118   58  182 1    
   119   58  183 1    
   120   59   60 am   BACKBONE|DICT|INTERRES
   121   59  184 1    
   122   60   61 2    
   123   60   62 1    
   124   62   63 1    
   125   62   64 1    
   126   62  185 1    
   127   63  186 1    
   128   63  187 1    
   129   63  188 1    
   130   64   65 am   BACKBONE|DICT|INTERRES
   131   64  189 1    
   132   65   66 2    
   133   67   68 2    
   134   67   69 am   BACKBONE|DICT|INTERRES
   135   69   70 1    
   136   69  190 1    
   137   70   71 1    
   138   70   72 1    
   139   70  191 1    
   140   71  192 1    
   141   71  193 1    
   142   71  194 1    
   143   72   73 2    
   144   72   74 am   BACKBONE|DICT|INTERRES
   145   74   75 1    
   146   74  195 1    
   147   75   76 1    
   148   75   77 1    
   149   75  196 1    
   150   76  197 1    
   151   76  198 1    
   152   76  199 1    
   153   77   78 2    
   154   77   79 am   BACKBONE|DICT|INTERRES
   155   79   80 1    
   156   79  200 1    
   157   80   81 1    
   158   80   82 1    
   159   80  201 1    
   160   81  202 1    
   161   81  203 1    
   162   81  204 1    
   163   82   83 2    
   164   82   84 am   BACKBONE|DICT|INTERRES
   165   84   85 1    
   166   84  205 1    
   167   85   86 1    
   168   85   87 1    
   169   85  206 1    
   170   86  207 1    
   171   86  208 1    
   172   86  209 1    
   173   87   88 2    
   174   87   89 am   BACKBONE|DICT|INTERRES
   175   89   90 1    
   176   89  210 1    
   177   90   91 1    
   178   90   92 1    
   179   90  211 1    
   180   91  212 1    
   181   91  213 1    
   182   91  214 1    
   183   92   93 2    
   184   92   94 am   BACKBONE|DICT|INTERRES
   185   94   95 1    
   186   94  215 1    
   187   95   96 1    
   188   95   97 1    
   189   95  216 1    
   190   96  217 1    
   191   96  218 1    
   192   96  219 1    
   193   97   98 2    
   194   97   99 am   BACKBONE|DICT|INTERRES
   195   99  100 1    
   196   99  220 1    
   197  100  101 1    
   198  100  102 1    
   199  100  221 1    
   200  101  222 1    
   201  101  223 1    
   202  101  224 1    
   203  102  103 2    
   204  102  104 am   BACKBONE|DICT|INTERRES
   205  104  105 1    
   206  104  225 1    
   207  105  106 1    
   208  105  107 1    
   209  105  226 1    
   210  106  227 1    
   211  106  228 1    
   212  106  229 1    
   213  107  108 2    
   214  107  109 am   BACKBONE|DICT|INTERRES
   215  109  110 1    
   216  109  230 1    
   217  110  111 1    
   218  110  112 1    
   219  110  231 1    
   220  111  232 1    
   221  111  233 1    
   222  111  234 1    
   223  112  113 2    
   224  112  114 am   BACKBONE|DICT|INTERRES
   225  114  115 1    
   226  114  235 1    
   227  115  116 1    
   228  115  117 1    
   229  115  236 1    
   230  116  237 1    
   231  116  238 1    
   232  116  239 1    
   233  117  118 2    
   234  117  119 am   BACKBONE|DICT|INTERRES
   235  119  120 1    
   236  119  240 1    
   237  120  121 1    
   238  120  124 1    
   239  120  241 1    
   240  121  122 am   BACKBONE|DICT|INTERRES
   241  121  123 2    
   242  122  242 1    
   243  122  243 1    
   244  124  125 1    
   245  124  244 1    
   246  124  245 1    
   247  125  126 1    
   248  126  246 1    
   249  126  247 1    
@<TRIPOS>SUBSTRUCTURE
     1 UNK         1 GROUP             0       ****    0 ROOT    
