@<TRIPOS>MOLECULE
3R540
247   249    1
SMALL
USER_CHARGES


@<TRIPOS>ATOM
      1 CA         -0.1165  -17.6373  -41.2212 C.3       0 UNK        -0.1800 
      2 C          -1.5215  -17.4757  -41.7808 C.2       0 UNK         0.5000 
      3 O          -2.4815  -17.8933  -41.1332 O.2       0 UNK        -0.5000 
      4 N          -1.6489  -16.8654  -42.9640 N.am      1 UNK        -0.5000 
      5 CA         -2.9283  -16.5022  -43.5685 C.3       1 UNK         0.1400 
      6 C6         -3.4171  -17.5455  -44.6099 C.3       23 UNK        -0.0398 
      7 S7         -2.6624  -17.4655  -46.2760 S.3       23 UNK        -0.2404 
      8 C8         -1.4631  -18.8275  -46.2043 C.3       23 UNK        -0.0205 
      9 C9         -0.8214  -19.0944  -47.5548 C.ar      23 UNK        -0.0193 
     10 C10        -1.6150  -19.4612  -48.6447 C.ar      23 UNK        -0.1150 
     11 C11        -1.0402  -19.7130  -49.8924 C.ar      23 UNK        -0.0193 
     12 C12         0.3442  -19.5969  -50.0431 C.ar      23 UNK        -0.1150 
     13 C13         1.1542  -19.2467  -48.9592 C.ar      23 UNK        -0.0193 
     14 C14         0.5627  -18.9912  -47.7166 C.ar      23 UNK        -0.1150 
     15 C15         2.6631  -19.1360  -49.1549 C.3       23 UNK        -0.0205 
     16 S16         3.6296  -19.9963  -47.8712 S.3       23 UNK        -0.2404 
     17 C17         2.9260  -21.6785  -47.9531 C.3       23 UNK        -0.0398 
     18 CA          3.9410  -22.7754  -47.5523 C.3       11 UNK         0.1400 
     19 N           4.4293  -22.5855  -46.1831 N.am      11 UNK        -0.5000 
     20 C           5.5025  -23.1907  -45.6575 C.2       10 UNK         0.5000 
     21 O           6.2432  -23.9473  -46.2862 O.2       10 UNK        -0.5000 
     22 CA          5.7661  -22.9297  -44.1658 C.3       10 UNK         0.1400 
     23 CB          6.5285  -21.6108  -43.9695 C.3       10 UNK        -0.1800 
     24 N           4.5146  -22.8957  -43.4068 N.am      10 UNK        -0.5000 
     25 C           3.8395  -23.9887  -43.0234 C.2       9 UNK         0.5000 
     26 O           4.2297  -25.1381  -43.2287 O.2       9 UNK        -0.5000 
     27 CA          2.4973  -23.7709  -42.3001 C.3       9 UNK         0.1400 
     28 CB          2.7101  -23.7173  -40.7798 C.3       9 UNK        -0.1800 
     29 N           1.7963  -22.5598  -42.7263 N.am      9 UNK        -0.5000 
     30 C           1.2107  -22.3969  -43.9203 C.2       8 UNK         0.5000 
     31 O           1.2062  -23.2479  -44.8089 O.2       8 UNK        -0.5000 
     32 CA          0.5394  -21.0353  -44.1732 C.3       8 UNK         0.1400 
     33 CB         -0.8611  -21.0311  -43.5370 C.3       8 UNK        -0.1800 
     34 N           1.2951  -19.8798  -43.6757 N.am      8 UNK        -0.5000 
     35 C           2.5870  -19.6128  -43.9105 C.2       7 UNK         0.5000 
     36 O           3.3346  -20.3492  -44.5555 O.2       7 UNK        -0.5000 
     37 CA          3.1381  -18.3140  -43.2960 C.3       7 UNK         0.1400 
     38 CB          4.5601  -18.5088  -42.7442 C.3       7 UNK        -0.1800 
     39 N           3.1534  -17.2203  -44.2637 N.am      7 UNK        -0.5000 
     40 C           2.0824  -16.5518  -44.7081 C.2       6 UNK         0.5000 
     41 O           0.9243  -16.7848  -44.3524 O.2       6 UNK        -0.5000 
     42 CA          2.3708  -15.4259  -45.7110 C.3       6 UNK         0.1400 
     43 CB          2.7180  -15.9855  -47.1014 C.3       6 UNK        -0.1800 
     44 N           1.2179  -14.5394  -45.8275 N.am      6 UNK        -0.5000 
     45 C           1.2729  -13.2445  -46.1604 C.2       5 UNK         0.5000 
     46 O           2.3256  -12.6209  -46.3130 O.2       5 UNK        -0.5000 
     47 CA         -0.0866  -12.5574  -46.4055 C.3       5 UNK         0.1400 
     48 CB          0.0347  -11.1014  -46.9022 C.3       5 UNK        -0.1800 
     49 N          -0.9305  -13.3555  -47.3037 N.am      5 UNK        -0.5000 
     50 C          -0.6631  -13.7021  -48.5744 C.2       4 UNK         0.5000 
     51 O           0.3092  -13.2931  -49.2094 O.2       4 UNK        -0.5000 
     52 CA         -1.6302  -14.6824  -49.2619 C.3       4 UNK         0.1400 
     53 CB         -0.9794  -16.0665  -49.3770 C.3       4 UNK        -0.1800 
     54 N          -2.8960  -14.8132  -48.5383 N.am      4 UNK        -0.5000 
     55 C          -4.0732  -14.3532  -48.9796 C.2       3 UNK         0.5000 
     56 O          -4.2449  -13.8640  -50.0968 O.2       3 UNK        -0.5000 
     57 CA         -5.2589  -14.4334  -47.9997 C.3       3 UNK         0.1400 
     58 CB         -5.9643  -15.7943  -48.0992 C.3       3 UNK        -0.1800 
     59 N          -4.8736  -14.1950  -46.6070 N.am      3 UNK        -0.5000 
     60 C          -4.4090  -13.0344  -46.1179 C.2       2 UNK         0.5000 
     61 O          -4.2378  -12.0255  -46.8014 O.2       2 UNK        -0.5000 
     62 CA         -4.0785  -12.9874  -44.6125 C.3       2 UNK         0.1400 
     63 CB         -5.1721  -12.2271  -43.8466 C.3       2 UNK        -0.1800 
     64 N          -3.9303  -14.3209  -44.0255 N.am      2 UNK        -0.5000 
     65 C          -2.8298  -15.0753  -44.1322 C.2       1 UNK         0.5000 
     66 O          -1.7917  -14.7003  -44.6832 O.2       1 UNK        -0.5000 
     67 C           3.3126  -24.1716  -47.7641 C.2       11 UNK         0.5000 
     68 O           3.2510  -24.6320  -48.9046 O.2       11 UNK        -0.5000 
     69 N           2.8384  -24.7958  -46.6730 N.am      12 UNK        -0.5000 
     70 CA          2.0217  -26.0145  -46.6171 C.3       12 UNK         0.1400 
     71 CB          2.8114  -27.2425  -47.1152 C.3       12 UNK        -0.1800 
     72 C           0.6694  -25.8146  -47.3347 C.2       12 UNK         0.5000 
     73 O           0.2249  -26.6764  -48.0959 O.2       12 UNK        -0.5000 
     74 N           0.0691  -24.6425  -47.1023 N.am      13 UNK        -0.5000 
     75 CA         -1.1318  -24.1599  -47.7728 C.3       13 UNK         0.1400 
     76 CB         -1.0001  -22.6413  -47.9416 C.3       13 UNK        -0.1800 
     77 C          -2.4097  -24.4950  -46.9875 C.2       13 UNK         0.5000 
     78 O          -2.3531  -24.8200  -45.7993 O.2       13 UNK        -0.5000 
     79 N          -3.5524  -24.3604  -47.6726 N.am      14 UNK        -0.5000 
     80 CA         -4.8957  -24.5684  -47.1251 C.3       14 UNK         0.1400 
     81 CB         -5.8613  -24.8245  -48.2942 C.3       14 UNK        -0.1800 
     82 C          -5.4079  -23.3953  -46.2630 C.2       14 UNK         0.5000 
     83 O          -6.4451  -23.5398  -45.6162 O.2       14 UNK        -0.5000 
     84 N          -4.7160  -22.2457  -46.3066 N.am      15 UNK        -0.5000 
     85 CA         -4.9762  -20.9755  -45.6072 C.3       15 UNK         0.1400 
     86 CB         -4.9707  -21.1582  -44.0778 C.3       15 UNK        -0.1800 
     87 C          -6.2278  -20.2072  -46.0788 C.2       15 UNK         0.5000 
     88 O          -6.2158  -18.9771  -46.0678 O.2       15 UNK        -0.5000 
     89 N          -7.2672  -20.9247  -46.5197 N.am      16 UNK        -0.5000 
     90 CA         -8.4329  -20.3678  -47.2094 C.3       16 UNK         0.1400 
     91 CB         -9.5655  -21.4056  -47.1866 C.3       16 UNK        -0.1800 
     92 C          -8.1082  -19.9527  -48.6595 C.2       16 UNK         0.5000 
     93 O          -8.7921  -19.0939  -49.2175 O.2       16 UNK        -0.5000 
     94 N          -7.0752  -20.5774  -49.2399 N.am      17 UNK        -0.5000 
     95 CA         -6.5283  -20.2727  -50.5573 C.3       17 UNK         0.1400 
     96 CB         -5.6120  -21.4337  -50.9787 C.3       17 UNK        -0.1800 
     97 C          -5.7447  -18.9483  -50.5437 C.2       17 UNK         0.5000 
     98 O          -4.9831  -18.7036  -49.6070 O.2       17 UNK        -0.5000 
     99 N          -5.9106  -18.1468  -51.6011 N.am      18 UNK        -0.5000 
    100 CA        -5.1018  -16.9576  -51.8699 C.3       18 UNK         0.1400 
    101 CB        -5.9352  -15.9729  -52.7041 C.3       18 UNK        -0.1800 
    102 C         -3.8134  -17.3413  -52.6165 C.2       18 UNK         0.5000 
    103 O         -3.7427  -18.4311  -53.1899 O.2       18 UNK        -0.5000 
    104 N         -2.8311  -16.4280  -52.6368 N.am      19 UNK        -0.5000 
    105 CA        -1.5039  -16.6071  -53.2476 C.3       19 UNK         0.1400 
    106 CB        -0.7206  -15.2880  -53.1642 C.3       19 UNK        -0.1800 
    107 C         -1.5289  -17.1103  -54.7049 C.2       19 UNK         0.5000 
    108 O         -0.7156  -17.9584  -55.0742 O.2       19 UNK        -0.5000 
    109 N         -2.4958  -16.6119  -55.4863 N.am      20 UNK        -0.5000 
    110 CA        -2.7300  -16.9882  -56.8804 C.3       20 UNK         0.1400 
    111 CB        -3.7519  -16.0153  -57.4888 C.3       20 UNK        -0.1800 
    112 C         -3.1966  -18.4459  -57.0724 C.2       20 UNK         0.5000 
    113 O         -2.9930  -18.9967  -58.1551 O.2       20 UNK        -0.5000 
    114 N         -3.8119  -19.0445  -56.0421 N.am      21 UNK        -0.5000 
    115 CA        -4.2547  -20.4381  -56.0562 C.3       21 UNK         0.1400 
    116 CB        -5.4336  -20.6203  -55.0883 C.3       21 UNK        -0.1800 
    117 C         -3.1047  -21.4036  -55.7214 C.2       21 UNK         0.5000 
    118 O         -3.0285  -22.4743  -56.3263 O.2       21 UNK        -0.5000 
    119 N         -2.2264  -21.0121  -54.7868 N.am      22 UNK        -0.5000 
    120 CA        -1.0070  -21.7694  -54.4512 C.3       22 UNK         0.1400 
    121 C          0.1083  -21.6233  -55.5235 C.2       22 UNK         0.5000 
    122 N          0.2969  -20.4497  -56.1151 N.am      22 UNK        -0.7600 
    123 O          0.8078  -22.5865  -55.8242 O.2       22 UNK        -0.5000 
    124 C124       -0.4443  -21.4277  -53.0494 C.3       23 UNK        -0.0398 
    125 S125       -1.6345  -21.7544  -51.7020 S.3       23 UNK        -0.2404 
    126 C126       -1.9258  -20.0725  -51.0752 C.3       23 UNK        -0.0205 
    127 H127        0.5876  -16.9707  -41.7172 H         1 UNK         0.0600 
    128 H128        0.2221  -18.6664  -41.3323 H         1 UNK         0.0600 
    129 H129       -0.1081  -17.3924  -40.1590 H         1 UNK         0.0600 
    130 H130       -0.8269  -16.5544  -43.4779 H         1 UNK         0.3000 
    131 H131       -3.6813  -16.4621  -42.7783 H         1 UNK         0.0600 
    132 H132       -3.3056  -18.5510  -44.2049 H         1 UNK         0.0800 
    133 H133       -4.4904  -17.4163  -44.7525 H         1 UNK         0.0800 
    134 H134       -0.7073  -18.5835  -45.4580 H         1 UNK         0.0800 
    135 H135       -1.9563  -19.7406  -45.8775 H         1 UNK         0.0800 
    136 H136       -2.6862  -19.5365  -48.5199 H         1 UNK         0.1150 
    137 H137        0.7947  -19.7821  -51.0062 H         1 UNK         0.1150 
    138 H138        1.1821  -18.7163  -46.8747 H         1 UNK         0.1150 
    139 H139        2.9550  -19.5367  -50.1268 H         1 UNK         0.0800 
    140 H140        2.9416  -18.0824  -49.1640 H         1 UNK         0.0800 
    141 H141        2.0488  -21.7107  -47.3043 H         1 UNK         0.0800 
    142 H142        2.5646  -21.8519  -48.9687 H         1 UNK         0.0800 
    143 H143        4.7978  -22.7052  -48.2258 H         1 UNK         0.0600 
    144 H144        3.9251  -21.9104  -45.6152 H         1 UNK         0.3000 
    145 H145        6.3903  -23.7399  -43.7825 H         1 UNK         0.0600 
    146 H146        6.6889  -21.3977  -42.9126 H         1 UNK         0.0600 
    147 H147        5.9948  -20.7676  -44.4072 H         1 UNK         0.0600 
    148 H148        7.5085  -21.6564  -44.4459 H         1 UNK         0.0600 
    149 H149        4.0918  -21.9867  -43.2746 H         1 UNK         0.3000 
    150 H150        1.8595  -24.6287  -42.5247 H         1 UNK         0.0600 
    151 H151        3.2088  -24.6196  -40.4231 H         1 UNK         0.0600 
    152 H152        1.7598  -23.6426  -40.2507 H         1 UNK         0.0600 
    153 H153        3.3256  -22.8652  -40.4887 H         1 UNK         0.0600 
    154 H154        1.7531  -21.8017  -42.0617 H         1 UNK         0.3000 
    155 H155        0.4384  -20.9127  -45.2528 H         1 UNK         0.0600 
    156 H156       -1.4995  -21.7841  -44.0016 H         1 UNK         0.0600 
    157 H157       -1.3576  -20.0685  -43.6446 H         1 UNK         0.0600 
    158 H158       -0.8192  -21.2516  -42.4695 H         1 UNK         0.0600 
    159 H159        0.7594  -19.1843  -43.1793 H         1 UNK         0.3000 
    160 H160        2.5031  -18.0313  -42.4564 H         1 UNK         0.0600 
    161 H161        5.2828  -18.6830  -43.5416 H         1 UNK         0.0600 
    162 H162        4.6063  -19.3609  -42.0646 H         1 UNK         0.0600 
    163 H163        4.8874  -17.6314  -42.1863 H         1 UNK         0.0600 
    164 H164        4.0596  -16.9841  -44.6404 H         1 UNK         0.3000 
    165 H165        3.2237  -14.8624  -45.3270 H         1 UNK         0.0600 
    166 H166        3.0560  -15.1935  -47.7698 H         1 UNK         0.0600 
    167 H167        3.5155  -16.7276  -47.0493 H         1 UNK         0.0600 
    168 H168        1.8526  -16.4580  -47.5653 H         1 UNK         0.0600 
    169 H169        0.3203  -14.9680  -45.6272 H         1 UNK         0.3000 
    170 H170       -0.5934  -12.5236  -45.4410 H         1 UNK         0.0600 
    171 H171        0.5606  -10.4853  -46.1722 H         1 UNK         0.0600 
    172 H172        0.5839  -11.0324  -47.8414 H         1 UNK         0.0600 
    173 H173       -0.9485  -10.6561  -47.0549 H         1 UNK         0.0600 
    174 H174       -1.7347  -13.7725  -46.8595 H         1 UNK         0.3000 
    175 H175       -1.8044  -14.3029  -50.2697 H         1 UNK         0.0600 
    176 H176       -0.7113  -16.4556  -48.3957 H         1 UNK         0.0600 
    177 H177       -1.6497  -16.7810  -49.8544 H         1 UNK         0.0600 
    178 H178       -0.0644  -16.0295  -49.9690 H         1 UNK         0.0600 
    179 H179       -2.8614  -15.2736  -47.6392 H         1 UNK         0.3000 
    180 H180       -5.9741  -13.6588  -48.2842 H         1 UNK         0.0600 
    181 H181       -6.3218  -15.9783  -49.1126 H         1 UNK         0.0600 
    182 H182       -6.8313  -15.8418  -47.4403 H         1 UNK         0.0600 
    183 H183       -5.2982  -16.6158  -47.8315 H         1 UNK         0.0600 
    184 H184       -4.9884  -14.9698  -45.9718 H         1 UNK         0.3000 
    185 H185       -3.1399  -12.4407  -44.4974 H         1 UNK         0.0600 
    186 H186       -5.2904  -11.2149  -44.2358 H         1 UNK         0.0600 
    187 H187       -6.1399  -12.7240  -43.9251 H         1 UNK         0.0600 
    188 H188       -4.9238  -12.1391  -42.7887 H         1 UNK         0.0600 
    189 H189       -4.7389  -14.6882  -43.5440 H         1 UNK         0.3000 
    190 H190        2.8924  -24.2857  -45.8009 H         1 UNK         0.3000 
    191 H191        1.7885  -26.1772  -45.5638 H         1 UNK         0.0600 
    192 H192        2.2478  -28.1608  -46.9467 H         1 UNK         0.0600 
    193 H193        3.7590  -27.3412  -46.5856 H         1 UNK         0.0600 
    194 H194        3.0273  -27.1847  -48.1822 H         1 UNK         0.0600 
    195 H195        0.4588  -24.0425  -46.3806 H         1 UNK         0.3000 
    196 H196       -1.2051  -24.6126  -48.7641 H         1 UNK         0.0600 
    197 H197       -0.9328  -22.1301  -46.9808 H         1 UNK         0.0600 
    198 H198       -0.1141  -22.3834  -48.5220 H         1 UNK         0.0600 
    199 H199       -1.8587  -22.2341  -48.4753 H         1 UNK         0.0600 
    200 H200       -3.5064  -24.0976  -48.6469 H         1 UNK         0.3000 
    201 H201       -4.8817  -25.4572  -46.4907 H         1 UNK         0.0600 
    202 H202       -6.8710  -25.0266  -47.9337 H         1 UNK         0.0600 
    203 H203       -5.5506  -25.6898  -48.8800 H         1 UNK         0.0600 
    204 H204       -5.9189  -23.9673  -48.9660 H         1 UNK         0.0600 
    205 H205       -3.9011  -22.2404  -46.9016 H         1 UNK         0.3000 
    206 H206       -4.1330  -20.3351  -45.8604 H         1 UNK         0.0600 
    207 H207       -4.0427  -21.6182  -43.7390 H         1 UNK         0.0600 
    208 H208       -5.0621  -20.1976  -43.5698 H         1 UNK         0.0600 
    209 H209       -5.7981  -21.7811  -43.7377 H         1 UNK         0.0600 
    210 H210       -7.2237  -21.9325  -46.4074 H         1 UNK         0.3000 
    211 H211       -8.7686  -19.4778  -46.6729 H         1 UNK         0.0600 
    212 H212       -9.2805  -22.3238  -47.7019 H         1 UNK         0.0600 
    213 H213      -10.4605  -21.0180  -47.6750 H         1 UNK         0.0600 
    214 H214       -9.8405  -21.6661  -46.1643 H         1 UNK         0.0600 
    215 H215       -6.5517  -21.2308  -48.6797 H         1 UNK         0.3000 
    216 H216       -7.3514  -20.1969  -51.2711 H         1 UNK         0.0600 
    217 H217       -6.1756  -22.3597  -51.0934 H         1 UNK         0.0600 
    218 H218       -4.8226  -21.6100  -50.2467 H         1 UNK         0.0600 
    219 H219       -5.1252  -21.2293  -51.9318 H         1 UNK         0.0600 
    220 H220       -6.5159  -18.4466  -52.3508 H         1 UNK         0.3000 
    221 H221       -4.8238  -16.4815  -50.9291 H         1 UNK         0.0600 
    222 H222       -5.3856  -15.0485  -52.8865 H         1 UNK         0.0600 
    223 H223       -6.2064  -16.3926  -53.6739 H         1 UNK         0.0600 
    224 H224       -6.8554  -15.7016  -52.1862 H         1 UNK         0.0600 
    225 H225       -2.9875  -15.5479  -52.1667 H         1 UNK         0.3000 
    226 H226       -0.9670  -17.3501  -52.6563 H         1 UNK         0.0600 
    227 H227       -0.5465  -14.9901  -52.1320 H         1 UNK         0.0600 
    228 H228        0.2586  -15.3841  -53.6355 H         1 UNK         0.0600 
    229 H229       -1.2466  -14.4743  -53.6649 H         1 UNK         0.0600 
    230 H230       -3.1283  -15.9335  -55.0886 H         1 UNK         0.3000 
    231 H231       -1.7873  -16.8752  -57.4199 H         1 UNK         0.0600 
    232 H232       -3.9322  -16.2438  -58.5401 H         1 UNK         0.0600 
    233 H233       -3.3963  -14.9860  -57.4384 H         1 UNK         0.0600 
    234 H234       -4.7115  -16.0661  -56.9726 H         1 UNK         0.0600 
    235 H235       -3.8915  -18.5570  -55.1558 H         1 UNK         0.3000 
    236 H236       -4.6145  -20.6857  -57.0573 H         1 UNK         0.0600 
    237 H237       -6.2659  -19.9686  -55.3539 H         1 UNK         0.0600 
    238 H238       -5.8017  -21.6466  -55.1118 H         1 UNK         0.0600 
    239 H239       -5.1504  -20.3990  -54.0613 H         1 UNK         0.0600 
    240 H240       -2.3632  -20.1246  -54.3239 H         1 UNK         0.3000 
    241 H241       -1.2756  -22.8278  -54.4285 H         1 UNK         0.0600 
    242 H242       -0.2132  -19.6222  -55.8168 H         1 UNK         0.3800 
    243 H243        1.0170  -20.3606  -56.8138 H         1 UNK         0.3800 
    244 H244       -0.1149  -20.3884  -53.0266 H         1 UNK         0.0800 
    245 H245        0.4440  -22.0273  -52.8429 H         1 UNK         0.0800 
    246 H246       -2.9760  -19.9916  -50.8008 H         1 UNK         0.0800 
    247 H247       -1.7668  -19.3477  -51.8687 H         1 UNK         0.0800 
@<TRIPOS>BOND
     1    1    2 1    
     2    1  127 1    
     3    1  128 1    
     4    1  129 1    
     5    2    3 2    
     6    2    4 am   BACKBONE|DICT|INTERRES
     7    4    5 1    
     8    4  130 1    
     9    5    6 1    
    10    5   65 1    
    11    5  131 1    
    12    6    7 1    
    13    6  132 1    
    14    6  133 1    
    15    7    8 1    
    16    8    9 1    
    17    8  134 1    
    18    8  135 1    
    19    9   10 ar   
    20    9   14 ar   
    21   10   11 ar   
    22   10  136 1    
    23   11   12 ar   
    24   11  126 1    
    25   12   13 ar   
    26   12  137 1    
    27   13   14 ar   
    28   13   15 1    
    29   14  138 1    
    30   15   16 1    
    31   15  139 1    
    32   15  140 1    
    33   16   17 1    
    34   17   18 1    
    35   17  141 1    
    36   17  142 1    
    37   18   19 1    
    38   18   67 1    
    39   18  143 1    
    40   19   20 am   BACKBONE|DICT|INTERRES
    41   19  144 1    
    42   20   21 2    
    43   20   22 1    
    44   22   23 1    
    45   22   24 1    
    46   22  145 1    
    47   23  146 1    
    48   23  147 1    
    49   23  148 1    
    50   24   25 am   BACKBONE|DICT|INTERRES
    51   24  149 1    
    52   25   26 2    
    53   25   27 1    
    54   27   28 1    
    55   27   29 1    
    56   27  150 1    
    57   28  151 1    
    58   28  152 1    
    59   28  153 1    
    60   29   30 am   BACKBONE|DICT|INTERRES
    61   29  154 1    
    62   30   31 2    
    63   30   32 1    
    64   32   33 1    
    65   32   34 1    
    66   32  155 1    
    67   33  156 1    
    68   33  157 1    
    69   33  158 1    
    70   34   35 am   BACKBONE|DICT|INTERRES
    71   34  159 1    
    72   35   36 2    
    73   35   37 1    
    74   37   38 1    
    75   37   39 1    
    76   37  160 1    
    77   38  161 1    
    78   38  162 1    
    79   38  163 1    
    80   39   40 am   BACKBONE|DICT|INTERRES
    81   39  164 1    
    82   40   41 2    
    83   40   42 1    
    84   42   43 1    
    85   42   44 1    
    86   42  165 1    
    87   43  166 1    
    88   43  167 1    
    89   43  168 1    
    90   44   45 am   BACKBONE|DICT|INTERRES
    91   44  169 1    
    92   45   46 2    
    93   45   47 1    
    94   47   48 1    
    95   47   49 1    
    96   47  170 1    
    97   48  171 1    
    98   48  172 1    
    99   48  173 1    
   100   49   50 am   BACKBONE|DICT|INTERRES
   101   49  174 1    
   102   50   51 2    
   103   50   52 1    
   104   52   53 1    
   105   52   54 1    
   106   52  175 1    
   107   53  176 1    
   108   53  177 1    
   109   53  178 1    
   110   54   55 am   BACKBONE|DICT|INTERRES
   111   54  179 1    
   112   55   56 2    
   113   55   57 1    
   114   57   58 1    
   115   57   59 1    
   116   57  180 1    
   117   58  181 1    
   118   58  182 1    
   119   58  183 1    
   120   59   60 am   BACKBONE|DICT|INTERRES
   121   59  184 1    
   122   60   61 2    
   123   60   62 1    
   124   62   63 1    
   125   62   64 1    
   126   62  185 1    
   127   63  186 1    
   128   63  187 1    
   129   63  188 1    
   130   64   65 am   BACKBONE|DICT|INTERRES
   131   64  189 1    
   132   65   66 2    
   133   67   68 2    
   134   67   69 am   BACKBONE|DICT|INTERRES
   135   69   70 1    
   136   69  190 1    
   137   70   71 1    
   138   70   72 1    
   139   70  191 1    
   140   71  192 1    
   141   71  193 1    
   142   71  194 1    
   143   72   73 2    
   144   72   74 am   BACKBONE|DICT|INTERRES
   145   74   75 1    
   146   74  195 1    
   147   75   76 1    
   148   75   77 1    
   149   75  196 1    
   150   76  197 1    
   151   76  198 1    
   152   76  199 1    
   153   77   78 2    
   154   77   79 am   BACKBONE|DICT|INTERRES
   155   79   80 1    
   156   79  200 1    
   157   80   81 1    
   158   80   82 1    
   159   80  201 1    
   160   81  202 1    
   161   81  203 1    
   162   81  204 1    
   163   82   83 2    
   164   82   84 am   BACKBONE|DICT|INTERRES
   165   84   85 1    
   166   84  205 1    
   167   85   86 1    
   168   85   87 1    
   169   85  206 1    
   170   86  207 1    
   171   86  208 1    
   172   86  209 1    
   173   87   88 2    
   174   87   89 am   BACKBONE|DICT|INTERRES
   175   89   90 1    
   176   89  210 1    
   177   90   91 1    
   178   90   92 1    
   179   90  211 1    
   180   91  212 1    
   181   91  213 1    
   182   91  214 1    
   183   92   93 2    
   184   92   94 am   BACKBONE|DICT|INTERRES
   185   94   95 1    
   186   94  215 1    
   187   95   96 1    
   188   95   97 1    
   189   95  216 1    
   190   96  217 1    
   191   96  218 1    
   192   96  219 1    
   193   97   98 2    
   194   97   99 am   BACKBONE|DICT|INTERRES
   195   99  100 1    
   196   99  220 1    
   197  100  101 1    
   198  100  102 1    
   199  100  221 1    
   200  101  222 1    
   201  101  223 1    
   202  101  224 1    
   203  102  103 2    
   204  102  104 am   BACKBONE|DICT|INTERRES
   205  104  105 1    
   206  104  225 1    
   207  105  106 1    
   208  105  107 1    
   209  105  226 1    
   210  106  227 1    
   211  106  228 1    
   212  106  229 1    
   213  107  108 2    
   214  107  109 am   BACKBONE|DICT|INTERRES
   215  109  110 1    
   216  109  230 1    
   217  110  111 1    
   218  110  112 1    
   219  110  231 1    
   220  111  232 1    
   221  111  233 1    
   222  111  234 1    
   223  112  113 2    
   224  112  114 am   BACKBONE|DICT|INTERRES
   225  114  115 1    
   226  114  235 1    
   227  115  116 1    
   228  115  117 1    
   229  115  236 1    
   230  116  237 1    
   231  116  238 1    
   232  116  239 1    
   233  117  118 2    
   234  117  119 am   BACKBONE|DICT|INTERRES
   235  119  120 1    
   236  119  240 1    
   237  120  121 1    
   238  120  124 1    
   239  120  241 1    
   240  121  122 am   BACKBONE|DICT|INTERRES
   241  121  123 2    
   242  122  242 1    
   243  122  243 1    
   244  124  125 1    
   245  124  244 1    
   246  124  245 1    
   247  125  126 1    
   248  126  246 1    
   249  126  247 1    
@<TRIPOS>SUBSTRUCTURE
     1 UNK         1 GROUP             0       ****    0 ROOT    
