@<TRIPOS>MOLECULE
3R540
247   249    1
SMALL
USER_CHARGES


@<TRIPOS>ATOM
      1 CA          3.9969  -10.1483  -52.2901 C.3       0 UNK        -0.1800 
      2 C           3.8155  -10.3326  -50.7902 C.2       0 UNK         0.5000 
      3 O           3.4342   -9.3883  -50.0985 O.2       0 UNK        -0.5000 
      4 N           4.0891  -11.5431  -50.2871 N.am      1 UNK        -0.5000 
      5 CA          3.9454  -11.9273  -48.8764 C.3       1 UNK         0.1400 
      6 C6          4.7445  -13.2146  -48.5445 C.3       23 UNK        -0.0398 
      7 S7          4.4065  -14.6262  -49.6584 S.3       23 UNK        -0.2404 
      8 C8          3.3840  -15.6621  -48.5729 C.3       23 UNK        -0.0205 
      9 C9          2.6813  -16.7764  -49.3279 C.ar      23 UNK        -0.0193 
     10 C10         1.6852  -16.4684  -50.2586 C.ar      23 UNK        -0.1150 
     11 C11         0.9633  -17.4854  -50.8877 C.ar      23 UNK        -0.0193 
     12 C12         1.2423  -18.8206  -50.5773 C.ar      23 UNK        -0.1150 
     13 C13         2.2415  -19.1427  -49.6522 C.ar      23 UNK        -0.0193 
     14 C14         2.9696  -18.1138  -49.0451 C.ar      23 UNK        -0.1150 
     15 C15         2.5217  -20.5980  -49.2979 C.3       23 UNK        -0.0205 
     16 S16         2.3547  -20.9045  -47.5094 S.3       23 UNK        -0.2404 
     17 C17         2.4933  -22.7228  -47.4247 C.3       23 UNK        -0.0398 
     18 CA          1.3378  -23.4075  -46.6544 C.3       11 UNK         0.1400 
     19 N           1.2082  -22.9179  -45.2784 N.am      11 UNK        -0.5000 
     20 C           0.4772  -23.5052  -44.3211 C.2       10 UNK         0.5000 
     21 O          -0.1615  -24.5411  -44.5095 O.2       10 UNK        -0.5000 
     22 CA          0.3821  -22.8011  -42.9532 C.3       10 UNK         0.1400 
     23 CB          0.4969  -23.7893  -41.7756 C.3       10 UNK        -0.1800 
     24 N           1.2975  -21.6674  -42.7960 N.am      10 UNK        -0.5000 
     25 C           2.6345  -21.6720  -42.6966 C.2       9 UNK         0.5000 
     26 O           3.3260  -22.6903  -42.7117 O.2       9 UNK        -0.5000 
     27 CA          3.3189  -20.2946  -42.5885 C.3       9 UNK         0.1400 
     28 CB          3.9257  -19.9007  -43.9445 C.3       9 UNK        -0.1800 
     29 N           2.4081  -19.2321  -42.1543 N.am      9 UNK        -0.5000 
     30 C           1.9213  -19.0940  -40.9133 C.2       8 UNK         0.5000 
     31 O           2.2535  -19.8058  -39.9649 O.2       8 UNK        -0.5000 
     32 CA          0.8548  -18.0008  -40.7085 C.3       8 UNK         0.1400 
     33 CB          1.5117  -16.6249  -40.5239 C.3       8 UNK        -0.1800 
     34 N          -0.1168  -17.9423  -41.8049 N.am      8 UNK        -0.5000 
     35 C          -1.0024  -18.9104  -42.0866 C.2       7 UNK         0.5000 
     36 O          -1.1083  -19.9499  -41.4368 O.2       7 UNK        -0.5000 
     37 CA         -1.8992  -18.7044  -43.3194 C.3       7 UNK         0.1400 
     38 CB         -3.1052  -17.8178  -42.9771 C.3       7 UNK        -0.1800 
     39 N          -1.1699  -18.1203  -44.4409 N.am      7 UNK        -0.5000 
     40 C          -0.2309  -18.7529  -45.1570 C.2       6 UNK         0.5000 
     41 O           0.0649  -19.9396  -45.0058 O.2       6 UNK        -0.5000 
     42 CA          0.5067  -17.9031  -46.2084 C.3       6 UNK         0.1400 
     43 CB         -0.3284  -17.8191  -47.4914 C.3       6 UNK        -0.1800 
     44 N           0.8108  -16.5508  -45.7345 N.am      6 UNK        -0.5000 
     45 C           1.6120  -16.2753  -44.6953 C.2       5 UNK         0.5000 
     46 O           2.2077  -17.1332  -44.0471 O.2       5 UNK        -0.5000 
     47 CA          1.7326  -14.8028  -44.2720 C.3       5 UNK         0.1400 
     48 CB          2.8707  -14.1061  -45.0251 C.3       5 UNK        -0.1800 
     49 N           0.4817  -14.0740  -44.4725 N.am      5 UNK        -0.5000 
     50 C          -0.6002  -14.2330  -43.6974 C.2       4 UNK         0.5000 
     51 O          -0.6347  -14.9775  -42.7165 O.2       4 UNK        -0.5000 
     52 CA         -1.8691  -13.4731  -44.1246 C.3       4 UNK         0.1400 
     53 CB         -1.7782  -11.9907  -43.7320 C.3       4 UNK        -0.1800 
     54 N          -2.1287  -13.5820  -45.5613 N.am      4 UNK        -0.5000 
     55 C          -2.4011  -14.7311  -46.1950 C.2       3 UNK         0.5000 
     56 O          -2.5012  -15.8154  -45.6228 O.2       3 UNK        -0.5000 
     57 CA         -2.5602  -14.6731  -47.7259 C.3       3 UNK         0.1400 
     58 CB         -4.0417  -14.5326  -48.1059 C.3       3 UNK        -0.1800 
     59 N          -1.7940  -13.6116  -48.3843 N.am      3 UNK        -0.5000 
     60 C          -0.4610  -13.4731  -48.3543 C.2       2 UNK         0.5000 
     61 O           0.2802  -14.1962  -47.6849 O.2       2 UNK        -0.5000 
     62 CA          0.0994  -12.3423  -49.2434 C.3       2 UNK         0.1400 
     63 CB         -0.4409  -10.9605  -48.8155 C.3       2 UNK        -0.1800 
     64 N           1.5626  -12.3140  -49.3597 N.am      2 UNK        -0.5000 
     65 C           2.4682  -12.0026  -48.4186 C.2       1 UNK         0.5000 
     66 O           2.1879  -11.7280  -47.2513 O.2       1 UNK        -0.5000 
     67 C          -0.0039  -23.3442  -47.4142 C.2       11 UNK         0.5000 
     68 O          -0.2925  -24.2359  -48.2118 O.2       11 UNK        -0.5000 
     69 N          -0.8264  -22.3339  -47.0925 N.am      12 UNK        -0.5000 
     70 CA         -2.1926  -22.1631  -47.5864 C.3       12 UNK         0.1400 
     71 CB         -2.7425  -20.8372  -47.0433 C.3       12 UNK        -0.1800 
     72 C          -3.1277  -23.3201  -47.1887 C.2       12 UNK         0.5000 
     73 O          -3.9643  -23.7356  -47.9942 O.2       12 UNK        -0.5000 
     74 N          -2.9553  -23.8120  -45.9546 N.am      13 UNK        -0.5000 
     75 CA         -3.7008  -24.9321  -45.3886 C.3       13 UNK         0.1400 
     76 CB         -3.6648  -24.8472  -43.8548 C.3       13 UNK        -0.1800 
     77 C          -3.1536  -26.2824  -45.8764 C.2       13 UNK         0.5000 
     78 O          -3.9447  -27.1693  -46.1935 O.2       13 UNK        -0.5000 
     79 N          -1.8205  -26.4065  -45.9614 N.am      14 UNK        -0.5000 
     80 CA         -1.1202  -27.6021  -46.4392 C.3       14 UNK         0.1400 
     81 CB          0.3890  -27.4445  -46.2040 C.3       14 UNK        -0.1800 
     82 C          -1.4083  -27.9163  -47.9187 C.2       14 UNK         0.5000 
     83 O          -1.6032  -29.0817  -48.2655 O.2       14 UNK        -0.5000 
     84 N          -1.4690  -26.8702  -48.7550 N.am      15 UNK        -0.5000 
     85 CA         -1.8773  -26.9571  -50.1591 C.3       15 UNK         0.1400 
     86 CB         -1.4139  -25.6867  -50.8899 C.3       15 UNK        -0.1800 
     87 C          -3.3987  -27.1379  -50.3343 C.2       15 UNK         0.5000 
     88 O          -3.8358  -27.5299  -51.4164 O.2       15 UNK        -0.5000 
     89 N          -4.1701  -26.8136  -49.2841 N.am      16 UNK        -0.5000 
     90 CA         -5.6364  -26.7847  -49.2091 C.3       16 UNK         0.1400 
     91 CB         -6.2249  -28.2009  -49.3724 C.3       16 UNK        -0.1800 
     92 C          -6.2769  -25.7535  -50.1642 C.2       16 UNK         0.5000 
     93 O          -7.4486  -25.8851  -50.5219 O.2       16 UNK        -0.5000 
     94 N          -5.4926  -24.7427  -50.5573 N.am      17 UNK        -0.5000 
     95 CA         -5.8798  -23.6880  -51.4902 C.3       17 UNK         0.1400 
     96 CB         -4.6450  -23.2970  -52.3186 C.3       17 UNK        -0.1800 
     97 C          -6.4437  -22.4511  -50.7734 C.2       17 UNK         0.5000 
     98 O          -7.0819  -21.6233  -51.4239 O.2       17 UNK        -0.5000 
     99 N          -6.1487  -22.3069  -49.4698 N.am      18 UNK        -0.5000 
    100 CA        -6.5046  -21.1718  -48.6038 C.3       18 UNK         0.1400 
    101 CB        -8.0312  -21.1106  -48.3913 C.3       18 UNK        -0.1800 
    102 C         -5.9226  -19.8204  -49.0845 C.2       18 UNK         0.5000 
    103 O         -6.4305  -18.7639  -48.7078 O.2       18 UNK        -0.5000 
    104 N         -4.8760  -19.8921  -49.9240 N.am      19 UNK        -0.5000 
    105 CA        -4.2104  -18.7992  -50.6395 C.3       19 UNK         0.1400 
    106 CB        -3.4594  -17.8773  -49.6586 C.3       19 UNK        -0.1800 
    107 C         -5.1305  -18.0218  -51.6077 C.2       19 UNK         0.5000 
    108 O         -4.7982  -16.8934  -51.9731 O.2       19 UNK        -0.5000 
    109 N         -6.2471  -18.6324  -52.0364 N.am      20 UNK        -0.5000 
    110 CA        -7.2366  -18.0573  -52.9505 C.3       20 UNK         0.1400 
    111 CB        -8.4571  -18.9898  -53.0201 C.3       20 UNK        -0.1800 
    112 C         -6.6330  -17.7985  -54.3446 C.2       20 UNK         0.5000 
    113 O         -6.5024  -18.7321  -55.1374 O.2       20 UNK        -0.5000 
    114 N         -6.2223  -16.5425  -54.5762 N.am      21 UNK        -0.5000 
    115 CA        -5.4506  -16.0450  -55.7243 C.3       21 UNK         0.1400 
    116 CB        -6.2368  -16.2104  -57.0419 C.3       21 UNK        -0.1800 
    117 C         -4.0170  -16.6219  -55.8074 C.2       21 UNK         0.5000 
    118 O         -3.3839  -16.5281  -56.8606 O.2       21 UNK        -0.5000 
    119 N         -3.5225  -17.1782  -54.6917 N.am      22 UNK        -0.5000 
    120 CA        -2.2235  -17.8520  -54.5441 C.3       22 UNK         0.1400 
    121 C         -2.0219  -19.0695  -55.5054 C.2       22 UNK         0.5000 
    122 N         -0.7912  -19.4688  -55.7957 N.am      22 UNK        -0.7600 
    123 O         -2.9776  -19.7010  -55.9497 O.2       22 UNK        -0.5000 
    124 C124       -1.0549  -16.8235  -54.5219 C.3       23 UNK        -0.0398 
    125 S125        0.4102  -17.3893  -53.5895 S.3       23 UNK        -0.2404 
    126 C126       -0.1402  -17.1404  -51.8740 C.3       23 UNK        -0.0205 
    127 H127        3.0524   -9.8557  -52.7489 H         1 UNK         0.0600 
    128 H128        4.7295   -9.3654  -52.4862 H         1 UNK         0.0600 
    129 H129        4.3402  -11.0637  -52.7728 H         1 UNK         0.0600 
    130 H130        4.4055  -12.2799  -50.9025 H         1 UNK         0.3000 
    131 H131        4.3942  -11.1254  -48.2858 H         1 UNK         0.0600 
    132 H132        4.5954  -13.5083  -47.5044 H         1 UNK         0.0800 
    133 H133        5.8099  -12.9955  -48.6257 H         1 UNK         0.0800 
    134 H134        2.6214  -15.0452  -48.1047 H         1 UNK         0.0800 
    135 H135        4.0001  -16.0615  -47.7658 H         1 UNK         0.0800 
    136 H136        1.4571  -15.4334  -50.4703 H         1 UNK         0.1150 
    137 H137        0.6737  -19.6069  -51.0536 H         1 UNK         0.1150 
    138 H138        3.7323  -18.3578  -48.3190 H         1 UNK         0.1150 
    139 H139        1.8404  -21.2585  -49.8366 H         1 UNK         0.0800 
    140 H140        3.5319  -20.8572  -49.6175 H         1 UNK         0.0800 
    141 H141        3.4395  -22.9565  -46.9348 H         1 UNK         0.0800 
    142 H142        2.5760  -23.1400  -48.4298 H         1 UNK         0.0800 
    143 H143        1.5988  -24.4644  -46.5827 H         1 UNK         0.0600 
    144 H144        1.6423  -22.0289  -45.0735 H         1 UNK         0.3000 
    145 H145       -0.6194  -22.3705  -42.9174 H         1 UNK         0.0600 
    146 H146        0.4125  -23.2728  -40.8193 H         1 UNK         0.0600 
    147 H147       -0.2990  -24.5341  -41.8120 H         1 UNK         0.0600 
    148 H148        1.4447  -24.3276  -41.7862 H         1 UNK         0.0600 
    149 H149        0.8484  -20.7616  -42.8117 H         1 UNK         0.3000 
    150 H150        4.1266  -20.3806  -41.8590 H         1 UNK         0.0600 
    151 H151        4.6188  -20.6624  -44.3039 H         1 UNK         0.0600 
    152 H152        4.4800  -18.9649  -43.8711 H         1 UNK         0.0600 
    153 H153        3.1548  -19.7717  -44.7054 H         1 UNK         0.0600 
    154 H154        2.1443  -18.5494  -42.8622 H         1 UNK         0.3000 
    155 H155        0.3083  -18.2378  -39.7933 H         1 UNK         0.0600 
    156 H156        2.0952  -16.3364  -41.3976 H         1 UNK         0.0600 
    157 H157        2.1867  -16.6283  -39.6673 H         1 UNK         0.0600 
    158 H158        0.7653  -15.8502  -40.3473 H         1 UNK         0.0600 
    159 H159       -0.1203  -17.0995  -42.3667 H         1 UNK         0.3000 
    160 H160       -2.2731  -19.6827  -43.6286 H         1 UNK         0.0600 
    161 H161       -3.7820  -17.7308  -43.8274 H         1 UNK         0.0600 
    162 H162       -2.7975  -16.8108  -42.6926 H         1 UNK         0.0600 
    163 H163       -3.6760  -18.2360  -42.1471 H         1 UNK         0.0600 
    164 H164       -1.4150  -17.1678  -44.6949 H         1 UNK         0.3000 
    165 H165        1.4584  -18.3826  -46.4384 H         1 UNK         0.0600 
    166 H166        0.0263  -17.0307  -48.1517 H         1 UNK         0.0600 
    167 H167       -0.2764  -18.7575  -48.0431 H         1 UNK         0.0600 
    168 H168       -1.3779  -17.6209  -47.2780 H         1 UNK         0.0600 
    169 H169        0.3953  -15.7793  -46.2438 H         1 UNK         0.3000 
    170 H170        1.9778  -14.7804  -43.2085 H         1 UNK         0.0600 
    171 H171        3.8143  -14.6369  -44.8929 H         1 UNK         0.0600 
    172 H172        2.6635  -14.0597  -46.0912 H         1 UNK         0.0600 
    173 H173        3.0146  -13.0860  -44.6687 H         1 UNK         0.0600 
    174 H174        0.4203  -13.4936  -45.2983 H         1 UNK         0.3000 
    175 H175       -2.7154  -13.9157  -43.5948 H         1 UNK         0.0600 
    176 H176       -2.7076  -11.4664  -43.9552 H         1 UNK         0.0600 
    177 H177       -1.5935  -11.8815  -42.6625 H         1 UNK         0.0600 
    178 H178       -0.9704  -11.4812  -44.2588 H         1 UNK         0.0600 
    179 H179       -2.0587  -12.7365  -46.1075 H         1 UNK         0.3000 
    180 H180       -2.1999  -15.6214  -48.1251 H         1 UNK         0.0600 
    181 H181       -4.4481  -13.5702  -47.7926 H         1 UNK         0.0600 
    182 H182       -4.6429  -15.3112  -47.6340 H         1 UNK         0.0600 
    183 H183       -4.1837  -14.6252  -49.1830 H         1 UNK         0.0600 
    184 H184       -2.3308  -12.9742  -48.9541 H         1 UNK         0.3000 
    185 H185       -0.2632  -12.5405  -50.2531 H         1 UNK         0.0600 
    186 H186       -0.2155  -10.7402  -47.7716 H         1 UNK         0.0600 
    187 H187       -0.0112  -10.1646  -49.4242 H         1 UNK         0.0600 
    188 H188       -1.5232  -10.9013  -48.9321 H         1 UNK         0.0600 
    189 H189        1.9236  -12.5369  -50.2757 H         1 UNK         0.3000 
    190 H190       -0.4918  -21.6444  -46.4297 H         1 UNK         0.3000 
    191 H191       -2.1606  -22.1140  -48.6766 H         1 UNK         0.0600 
    192 H192       -2.1601  -19.9950  -47.4076 H         1 UNK         0.0600 
    193 H193       -2.7236  -20.8070  -45.9532 H         1 UNK         0.0600 
    194 H194       -3.7721  -20.6756  -47.3538 H         1 UNK         0.0600 
    195 H195       -2.2127  -23.4331  -45.3864 H         1 UNK         0.3000 
    196 H196       -4.7430  -24.8563  -45.7070 H         1 UNK         0.0600 
    197 H197       -4.2412  -25.6577  -43.4071 H         1 UNK         0.0600 
    198 H198       -4.0952  -23.9097  -43.5023 H         1 UNK         0.0600 
    199 H199       -2.6482  -24.9158  -43.4664 H         1 UNK         0.0600 
    200 H200       -1.2374  -25.6491  -45.6156 H         1 UNK         0.3000 
    201 H201       -1.4695  -28.4487  -45.8445 H         1 UNK         0.0600 
    202 H202        0.6083  -27.2393  -45.1560 H         1 UNK         0.0600 
    203 H203        0.8040  -26.6329  -46.8006 H         1 UNK         0.0600 
    204 H204        0.9224  -28.3560  -46.4765 H         1 UNK         0.0600 
    205 H205       -1.2254  -25.9454  -48.4106 H         1 UNK         0.3000 
    206 H206       -1.3841  -27.8170  -50.6171 H         1 UNK         0.0600 
    207 H207       -0.3329  -25.5644  -50.8206 H         1 UNK         0.0600 
    208 H208       -1.6692  -25.7272  -51.9496 H         1 UNK         0.0600 
    209 H209       -1.8786  -24.7915  -50.4740 H         1 UNK         0.0600 
    210 H210       -3.6980  -26.5290  -48.4370 H         1 UNK         0.3000 
    211 H211       -5.8765  -26.4441  -48.2010 H         1 UNK         0.0600 
    212 H212       -6.0905  -28.5826  -50.3848 H         1 UNK         0.0600 
    213 H213       -7.2946  -28.2074  -49.1607 H         1 UNK         0.0600 
    214 H214       -5.7552  -28.9027  -48.6830 H         1 UNK         0.0600 
    215 H215       -4.5602  -24.6952  -50.1714 H         1 UNK         0.3000 
    216 H216       -6.6481  -24.0578  -52.1725 H         1 UNK         0.0600 
    217 H217       -4.8889  -22.5205  -53.0452 H         1 UNK         0.0600 
    218 H218       -4.2602  -24.1517  -52.8756 H         1 UNK         0.0600 
    219 H219       -3.8381  -22.9184  -51.6898 H         1 UNK         0.0600 
    220 H220       -5.5795  -23.0234  -49.0299 H         1 UNK         0.3000 
    221 H221       -6.0480  -21.3747  -47.6345 H         1 UNK         0.0600 
    222 H222       -8.5575  -20.8331  -49.3050 H         1 UNK         0.0600 
    223 H223       -8.4214  -22.0724  -48.0583 H         1 UNK         0.0600 
    224 H224       -8.2920  -20.3754  -47.6292 H         1 UNK         0.0600 
    225 H225       -4.5575  -20.8190  -50.1643 H         1 UNK         0.3000 
    226 H226       -3.4599  -19.2715  -51.2747 H         1 UNK         0.0600 
    227 H227       -2.7348  -18.4433  -49.0773 H         1 UNK         0.0600 
    228 H228       -2.9079  -17.0965  -50.1830 H         1 UNK         0.0600 
    229 H229       -4.1392  -17.3863  -48.9632 H         1 UNK         0.0600 
    230 H230       -6.4366  -19.5769  -51.7211 H         1 UNK         0.3000 
    231 H231       -7.5704  -17.1059  -52.5310 H         1 UNK         0.0600 
    232 H232       -8.9084  -19.1221  -52.0365 H         1 UNK         0.0600 
    233 H233       -8.1906  -19.9775  -53.3987 H         1 UNK         0.0600 
    234 H234       -9.2237  -18.5808  -53.6793 H         1 UNK         0.0600 
    235 H235       -6.3353  -15.8750  -53.8247 H         1 UNK         0.3000 
    236 H236       -5.3263  -14.9746  -55.5545 H         1 UNK         0.0600 
    237 H237       -5.7443  -15.6826  -57.8594 H         1 UNK         0.0600 
    238 H238       -6.3211  -17.2566  -57.3367 H         1 UNK         0.0600 
    239 H239       -7.2439  -15.8026  -56.9552 H         1 UNK         0.0600 
    240 H240       -4.1075  -17.1643  -53.8641 H         1 UNK         0.3000 
    241 H241       -2.2855  -18.3064  -53.5561 H         1 UNK         0.0600 
    242 H242       -0.6582  -20.2658  -56.3984 H         1 UNK         0.3800 
    243 H243        0.0101  -18.9944  -55.4052 H         1 UNK         0.3800 
    244 H244       -0.7542  -16.5633  -55.5381 H         1 UNK         0.0800 
    245 H245       -1.3849  -15.8876  -54.0684 H         1 UNK         0.0800 
    246 H246       -1.0095  -17.7656  -51.6699 H         1 UNK         0.0800 
    247 H247       -0.4630  -16.1067  -51.7394 H         1 UNK         0.0800 
@<TRIPOS>BOND
     1    1    2 1    
     2    1  127 1    
     3    1  128 1    
     4    1  129 1    
     5    2    3 2    
     6    2    4 am   BACKBONE|DICT|INTERRES
     7    4    5 1    
     8    4  130 1    
     9    5    6 1    
    10    5   65 1    
    11    5  131 1    
    12    6    7 1    
    13    6  132 1    
    14    6  133 1    
    15    7    8 1    
    16    8    9 1    
    17    8  134 1    
    18    8  135 1    
    19    9   10 ar   
    20    9   14 ar   
    21   10   11 ar   
    22   10  136 1    
    23   11   12 ar   
    24   11  126 1    
    25   12   13 ar   
    26   12  137 1    
    27   13   14 ar   
    28   13   15 1    
    29   14  138 1    
    30   15   16 1    
    31   15  139 1    
    32   15  140 1    
    33   16   17 1    
    34   17   18 1    
    35   17  141 1    
    36   17  142 1    
    37   18   19 1    
    38   18   67 1    
    39   18  143 1    
    40   19   20 am   BACKBONE|DICT|INTERRES
    41   19  144 1    
    42   20   21 2    
    43   20   22 1    
    44   22   23 1    
    45   22   24 1    
    46   22  145 1    
    47   23  146 1    
    48   23  147 1    
    49   23  148 1    
    50   24   25 am   BACKBONE|DICT|INTERRES
    51   24  149 1    
    52   25   26 2    
    53   25   27 1    
    54   27   28 1    
    55   27   29 1    
    56   27  150 1    
    57   28  151 1    
    58   28  152 1    
    59   28  153 1    
    60   29   30 am   BACKBONE|DICT|INTERRES
    61   29  154 1    
    62   30   31 2    
    63   30   32 1    
    64   32   33 1    
    65   32   34 1    
    66   32  155 1    
    67   33  156 1    
    68   33  157 1    
    69   33  158 1    
    70   34   35 am   BACKBONE|DICT|INTERRES
    71   34  159 1    
    72   35   36 2    
    73   35   37 1    
    74   37   38 1    
    75   37   39 1    
    76   37  160 1    
    77   38  161 1    
    78   38  162 1    
    79   38  163 1    
    80   39   40 am   BACKBONE|DICT|INTERRES
    81   39  164 1    
    82   40   41 2    
    83   40   42 1    
    84   42   43 1    
    85   42   44 1    
    86   42  165 1    
    87   43  166 1    
    88   43  167 1    
    89   43  168 1    
    90   44   45 am   BACKBONE|DICT|INTERRES
    91   44  169 1    
    92   45   46 2    
    93   45   47 1    
    94   47   48 1    
    95   47   49 1    
    96   47  170 1    
    97   48  171 1    
    98   48  172 1    
    99   48  173 1    
   100   49   50 am   BACKBONE|DICT|INTERRES
   101   49  174 1    
   102   50   51 2    
   103   50   52 1    
   104   52   53 1    
   105   52   54 1    
   106   52  175 1    
   107   53  176 1    
   108   53  177 1    
   109   53  178 1    
   110   54   55 am   BACKBONE|DICT|INTERRES
   111   54  179 1    
   112   55   56 2    
   113   55   57 1    
   114   57   58 1    
   115   57   59 1    
   116   57  180 1    
   117   58  181 1    
   118   58  182 1    
   119   58  183 1    
   120   59   60 am   BACKBONE|DICT|INTERRES
   121   59  184 1    
   122   60   61 2    
   123   60   62 1    
   124   62   63 1    
   125   62   64 1    
   126   62  185 1    
   127   63  186 1    
   128   63  187 1    
   129   63  188 1    
   130   64   65 am   BACKBONE|DICT|INTERRES
   131   64  189 1    
   132   65   66 2    
   133   67   68 2    
   134   67   69 am   BACKBONE|DICT|INTERRES
   135   69   70 1    
   136   69  190 1    
   137   70   71 1    
   138   70   72 1    
   139   70  191 1    
   140   71  192 1    
   141   71  193 1    
   142   71  194 1    
   143   72   73 2    
   144   72   74 am   BACKBONE|DICT|INTERRES
   145   74   75 1    
   146   74  195 1    
   147   75   76 1    
   148   75   77 1    
   149   75  196 1    
   150   76  197 1    
   151   76  198 1    
   152   76  199 1    
   153   77   78 2    
   154   77   79 am   BACKBONE|DICT|INTERRES
   155   79   80 1    
   156   79  200 1    
   157   80   81 1    
   158   80   82 1    
   159   80  201 1    
   160   81  202 1    
   161   81  203 1    
   162   81  204 1    
   163   82   83 2    
   164   82   84 am   BACKBONE|DICT|INTERRES
   165   84   85 1    
   166   84  205 1    
   167   85   86 1    
   168   85   87 1    
   169   85  206 1    
   170   86  207 1    
   171   86  208 1    
   172   86  209 1    
   173   87   88 2    
   174   87   89 am   BACKBONE|DICT|INTERRES
   175   89   90 1    
   176   89  210 1    
   177   90   91 1    
   178   90   92 1    
   179   90  211 1    
   180   91  212 1    
   181   91  213 1    
   182   91  214 1    
   183   92   93 2    
   184   92   94 am   BACKBONE|DICT|INTERRES
   185   94   95 1    
   186   94  215 1    
   187   95   96 1    
   188   95   97 1    
   189   95  216 1    
   190   96  217 1    
   191   96  218 1    
   192   96  219 1    
   193   97   98 2    
   194   97   99 am   BACKBONE|DICT|INTERRES
   195   99  100 1    
   196   99  220 1    
   197  100  101 1    
   198  100  102 1    
   199  100  221 1    
   200  101  222 1    
   201  101  223 1    
   202  101  224 1    
   203  102  103 2    
   204  102  104 am   BACKBONE|DICT|INTERRES
   205  104  105 1    
   206  104  225 1    
   207  105  106 1    
   208  105  107 1    
   209  105  226 1    
   210  106  227 1    
   211  106  228 1    
   212  106  229 1    
   213  107  108 2    
   214  107  109 am   BACKBONE|DICT|INTERRES
   215  109  110 1    
   216  109  230 1    
   217  110  111 1    
   218  110  112 1    
   219  110  231 1    
   220  111  232 1    
   221  111  233 1    
   222  111  234 1    
   223  112  113 2    
   224  112  114 am   BACKBONE|DICT|INTERRES
   225  114  115 1    
   226  114  235 1    
   227  115  116 1    
   228  115  117 1    
   229  115  236 1    
   230  116  237 1    
   231  116  238 1    
   232  116  239 1    
   233  117  118 2    
   234  117  119 am   BACKBONE|DICT|INTERRES
   235  119  120 1    
   236  119  240 1    
   237  120  121 1    
   238  120  124 1    
   239  120  241 1    
   240  121  122 am   BACKBONE|DICT|INTERRES
   241  121  123 2    
   242  122  242 1    
   243  122  243 1    
   244  124  125 1    
   245  124  244 1    
   246  124  245 1    
   247  125  126 1    
   248  126  246 1    
   249  126  247 1    
@<TRIPOS>SUBSTRUCTURE
     1 UNK         1 GROUP             0       ****    0 ROOT    
