@<TRIPOS>MOLECULE
3R540
247   249    1
SMALL
USER_CHARGES


@<TRIPOS>ATOM
      1 CA         -6.7353  -18.2032  -44.4503 C.3       0 UNK        -0.1800 
      2 C          -6.4971  -16.7117  -44.6400 C.2       0 UNK         0.5000 
      3 O          -7.2851  -15.8963  -44.1600 O.2       0 UNK        -0.5000 
      4 N          -5.4209  -16.3552  -45.3467 N.am      1 UNK        -0.5000 
      5 CA         -4.9952  -14.9810  -45.6092 C.3       1 UNK         0.1400 
      6 C6         -4.0020  -14.9044  -46.7933 C.3       23 UNK        -0.0398 
      7 S7         -4.7389  -15.4774  -48.3617 S.3       23 UNK        -0.2404 
      8 C8         -3.4979  -14.9147  -49.5685 C.3       23 UNK        -0.0205 
      9 C9         -2.2245  -15.7449  -49.5059 C.ar      23 UNK        -0.0193 
     10 C10        -2.0941  -16.9030  -50.2799 C.ar      23 UNK        -0.1150 
     11 C11        -0.9206  -17.6617  -50.2280 C.ar      23 UNK        -0.0193 
     12 C12         0.1259  -17.2534  -49.3957 C.ar      23 UNK        -0.1150 
     13 C13        -0.0074  -16.1165  -48.5926 C.ar      23 UNK        -0.0193 
     14 C14        -1.1763  -15.3557  -48.6677 C.ar      23 UNK        -0.1150 
     15 C15         1.0890  -15.7303  -47.6117 C.3       23 UNK        -0.0205 
     16 S16         1.3976  -17.0246  -46.3627 S.3       23 UNK        -0.2404 
     17 C17        -0.2525  -17.3187  -45.6259 C.3       23 UNK        -0.0398 
     18 CA         -1.0373  -18.4597  -46.3197 C.3       11 UNK         0.1400 
     19 N          -0.2277  -19.6617  -46.5536 N.am      11 UNK        -0.5000 
     20 C          -0.5864  -20.6656  -47.3648 C.2       10 UNK         0.5000 
     21 O          -1.6335  -20.6809  -48.0039 O.2       10 UNK        -0.5000 
     22 CA          0.3414  -21.8884  -47.4163 C.3       10 UNK         0.1400 
     23 CB          1.4825  -21.6767  -48.4235 C.3       10 UNK        -0.1800 
     24 N           0.8801  -22.1952  -46.0923 N.am      10 UNK        -0.5000 
     25 C           0.1442  -22.7018  -45.0921 C.2       9 UNK         0.5000 
     26 O          -1.0416  -23.0119  -45.2105 O.2       9 UNK        -0.5000 
     27 CA          0.8322  -22.8416  -43.7209 C.3       9 UNK         0.1400 
     28 CB          1.6017  -24.1677  -43.6363 C.3       9 UNK        -0.1800 
     29 N           1.7388  -21.7305  -43.4219 N.am      9 UNK        -0.5000 
     30 C           1.3458  -20.4610  -43.2460 C.2       8 UNK         0.5000 
     31 O           0.1695  -20.1045  -43.2699 O.2       8 UNK        -0.5000 
     32 CA          2.4437  -19.3984  -43.0584 C.3       8 UNK         0.1400 
     33 CB          2.7420  -19.1876  -41.5673 C.3       8 UNK        -0.1800 
     34 N           3.6972  -19.6720  -43.7655 N.am      8 UNK        -0.5000 
     35 C           3.8298  -19.8744  -45.0830 C.2       7 UNK         0.5000 
     36 O           2.8725  -20.0165  -45.8444 O.2       7 UNK        -0.5000 
     37 CA          5.2720  -19.8937  -45.6331 C.3       7 UNK         0.1400 
     38 CB          5.3128  -20.0107  -47.1676 C.3       7 UNK        -0.1800 
     39 N           6.0007  -18.6874  -45.2341 N.am      7 UNK        -0.5000 
     40 C           6.5965  -18.4896  -44.0499 C.2       6 UNK         0.5000 
     41 O           6.6667  -19.3517  -43.1733 O.2       6 UNK        -0.5000 
     42 CA          7.1488  -17.0757  -43.7763 C.3       6 UNK         0.1400 
     43 CB          8.6123  -16.9709  -44.2311 C.3       6 UNK        -0.1800 
     44 N           6.3659  -16.0114  -44.4151 N.am      6 UNK        -0.5000 
     45 C           5.0828  -15.7357  -44.1394 C.2       5 UNK         0.5000 
     46 O           4.4347  -16.3295  -43.2734 O.2       5 UNK        -0.5000 
     47 CA          4.4185  -14.6269  -44.9799 C.3       5 UNK         0.1400 
     48 CB          4.6627  -14.8307  -46.4875 C.3       5 UNK        -0.1800 
     49 N           2.9774  -14.6425  -44.7503 N.am      5 UNK        -0.5000 
     50 C           2.2804  -13.7574  -44.0348 C.2       4 UNK         0.5000 
     51 O           2.7553  -12.7345  -43.5346 O.2       4 UNK        -0.5000 
     52 CA          0.7985  -14.1110  -43.8174 C.3       4 UNK         0.1400 
     53 CB          0.6070  -14.8970  -42.5117 C.3       4 UNK        -0.1800 
     54 N          -0.0612  -12.9323  -43.8017 N.am      4 UNK        -0.5000 
     55 C          -0.3742  -12.2029  -44.8784 C.2       3 UNK         0.5000 
     56 O           0.0207  -12.4638  -46.0162 O.2       3 UNK        -0.5000 
     57 CA         -1.3397  -11.0242  -44.6400 C.3       3 UNK         0.1400 
     58 CB         -1.5384  -10.1560  -45.8957 C.3       3 UNK        -0.1800 
     59 N          -2.6458  -11.5117  -44.1972 N.am      3 UNK        -0.5000 
     60 C          -2.9570  -11.8856  -42.9487 C.2       2 UNK         0.5000 
     61 O          -2.1794  -11.7976  -41.9972 O.2       2 UNK        -0.5000 
     62 CA         -4.3591  -12.4878  -42.7369 C.3       2 UNK         0.1400 
     63 CB         -5.3657  -11.3903  -42.3601 C.3       2 UNK        -0.1800 
     64 N          -4.8538  -13.2143  -43.9108 N.am      2 UNK        -0.5000 
     65 C          -4.3612  -14.3854  -44.3378 C.2       1 UNK         0.5000 
     66 O          -3.4353  -14.9826  -43.7837 O.2       1 UNK        -0.5000 
     67 C          -2.3504  -18.7820  -45.5767 C.2       11 UNK         0.5000 
     68 O          -3.3876  -18.2018  -45.8917 O.2       11 UNK        -0.5000 
     69 N          -2.3008  -19.7547  -44.6566 N.am      12 UNK        -0.5000 
     70 CA         -3.4551  -20.3510  -43.9803 C.3       12 UNK         0.1400 
     71 CB         -2.9611  -21.1071  -42.7365 C.3       12 UNK        -0.1800 
     72 C          -4.2997  -21.2787  -44.8842 C.2       12 UNK         0.5000 
     73 O          -5.3378  -21.7645  -44.4340 O.2       12 UNK        -0.5000 
     74 N          -3.8521  -21.5045  -46.1278 N.am      13 UNK        -0.5000 
     75 CA         -4.4759  -22.3067  -47.1794 C.3       13 UNK         0.1400 
     76 CB         -5.8351  -21.7133  -47.6050 C.3       13 UNK        -0.1800 
     77 C          -4.5372  -23.8118  -46.8583 C.2       13 UNK         0.5000 
     78 O          -5.4776  -24.4884  -47.2822 O.2       13 UNK        -0.5000 
     79 N          -3.5202  -24.3303  -46.1511 N.am      14 UNK        -0.5000 
     80 CA         -3.3425  -25.7626  -45.9006 C.3       14 UNK         0.1400 
     81 CB         -2.1466  -25.9848  -44.9628 C.3       14 UNK        -0.1800 
     82 C          -3.1464  -26.5301  -47.2210 C.2       14 UNK         0.5000 
     83 O          -2.4283  -26.0501  -48.1004 O.2       14 UNK        -0.5000 
     84 N          -3.8239  -27.6794  -47.3475 N.am      15 UNK        -0.5000 
     85 CA         -3.9085  -28.5138  -48.5552 C.3       15 UNK         0.1400 
     86 CB         -2.5395  -29.1466  -48.8842 C.3       15 UNK        -0.1800 
     87 C          -4.5398  -27.7812  -49.7639 C.2       15 UNK         0.5000 
     88 O          -4.2157  -28.0950  -50.9104 O.2       15 UNK        -0.5000 
     89 N          -5.4345  -26.8214  -49.4764 N.am      16 UNK        -0.5000 
     90 CA         -6.1555  -25.9575  -50.4178 C.3       16 UNK         0.1400 
     91 CB         -7.1195  -26.7803  -51.2986 C.3       16 UNK        -0.1800 
     92 C          -5.2276  -25.0314  -51.2336 C.2       16 UNK         0.5000 
     93 O          -5.4952  -24.7648  -52.4075 O.2       16 UNK        -0.5000 
     94 N          -4.1531  -24.5464  -50.5959 N.am      17 UNK        -0.5000 
     95 CA         -3.1902  -23.5986  -51.1575 C.3       17 UNK         0.1400 
     96 CB         -1.9088  -23.6194  -50.3051 C.3       17 UNK        -0.1800 
     97 C          -3.7841  -22.1803  -51.2858 C.2       17 UNK         0.5000 
     98 O          -3.4869  -21.3051  -50.4754 O.2       17 UNK        -0.5000 
     99 N          -4.6323  -21.9796  -52.2995 N.am      18 UNK        -0.5000 
    100 CA        -5.1561  -20.6750  -52.7054 C.3       18 UNK         0.1400 
    101 CB        -6.2573  -20.9019  -53.7532 C.3       18 UNK        -0.1800 
    102 C         -4.0501  -19.7713  -53.2854 C.2       18 UNK         0.5000 
    103 O         -3.0077  -20.2735  -53.7113 O.2       18 UNK        -0.5000 
    104 N         -4.3156  -18.4600  -53.3616 N.am      19 UNK        -0.5000 
    105 CA        -3.4071  -17.4596  -53.9392 C.3       19 UNK         0.1400 
    106 CB        -4.0375  -16.0656  -53.8081 C.3       19 UNK        -0.1800 
    107 C         -3.0295  -17.7474  -55.4066 C.2       19 UNK         0.5000 
    108 O         -1.8756  -17.5642  -55.7958 O.2       19 UNK        -0.5000 
    109 N         -4.0046  -18.2483  -56.1768 N.am      20 UNK        -0.5000 
    110 CA        -3.8322  -18.6867  -57.5617 C.3       20 UNK         0.1400 
    111 CB        -5.2187  -18.8467  -58.2044 C.3       20 UNK        -0.1800 
    112 C         -3.0238  -19.9933  -57.6968 C.2       20 UNK         0.5000 
    113 O         -2.4650  -20.2413  -58.7660 O.2       20 UNK        -0.5000 
    114 N         -2.9803  -20.8052  -56.6309 N.am      21 UNK        -0.5000 
    115 CA        -2.2241  -22.0535  -56.5770 C.3       21 UNK         0.1400 
    116 CB        -2.9302  -23.0538  -55.6457 C.3       21 UNK        -0.1800 
    117 C         -0.7763  -21.8040  -56.1265 C.2       21 UNK         0.5000 
    118 O          0.1432  -22.3439  -56.7438 O.2       21 UNK        -0.5000 
    119 N         -0.5935  -20.9991  -55.0689 N.am      22 UNK        -0.5000 
    120 CA         0.7323  -20.6542  -54.5315 C.3       22 UNK         0.1400 
    121 C          1.5290  -19.6233  -55.3847 C.2       22 UNK         0.5000 
    122 N          0.8803  -18.7578  -56.1554 N.am      22 UNK        -0.7600 
    123 O          2.7570  -19.6240  -55.3606 O.2       22 UNK        -0.5000 
    124 C124        0.6889  -20.2926  -53.0225 C.3       23 UNK        -0.0398 
    125 S125        0.0363  -18.6322  -52.6269 S.3       23 UNK        -0.2404 
    126 C126       -0.7870  -18.9418  -51.0372 C.3       23 UNK        -0.0205 
    127 H127       -7.7775  -18.4484  -44.6546 H         1 UNK         0.0600 
    128 H128       -6.5093  -18.4941  -43.4247 H         1 UNK         0.0600 
    129 H129       -6.1142  -18.7960  -45.1222 H         1 UNK         0.0600 
    130 H130       -4.7681  -17.0725  -45.6609 H         1 UNK         0.3000 
    131 H131       -5.8785  -14.3937  -45.8700 H         1 UNK         0.0600 
    132 H132       -3.1162  -15.5069  -46.5860 H         1 UNK         0.0800 
    133 H133       -3.6557  -13.8787  -46.9331 H         1 UNK         0.0800 
    134 H134       -3.9292  -14.9779  -50.5676 H         1 UNK         0.0800 
    135 H135       -3.2740  -13.8595  -49.4045 H         1 UNK         0.0800 
    136 H136       -2.9097  -17.2195  -50.9142 H         1 UNK         0.1150 
    137 H137        1.0280  -17.8464  -49.3368 H         1 UNK         0.1150 
    138 H138       -1.2793  -14.4697  -48.0566 H         1 UNK         0.1150 
    139 H139        2.0106  -15.5478  -48.1654 H         1 UNK         0.0800 
    140 H140        0.8468  -14.7954  -47.1056 H         1 UNK         0.0800 
    141 H141       -0.8335  -16.3956  -45.6556 H         1 UNK         0.0800 
    142 H142       -0.1016  -17.5502  -44.5702 H         1 UNK         0.0800 
    143 H143       -1.3488  -18.0975  -47.2987 H         1 UNK         0.0600 
    144 H144        0.6753  -19.7023  -46.0960 H         1 UNK         0.3000 
    145 H145       -0.2465  -22.7460  -47.7505 H         1 UNK         0.0600 
    146 H146        2.0647  -20.7824  -48.2007 H         1 UNK         0.0600 
    147 H147        2.1634  -22.5277  -48.4349 H         1 UNK         0.0600 
    148 H148        1.0877  -21.5632  -49.4337 H         1 UNK         0.0600 
    149 H149        1.8152  -21.8592  -45.8978 H         1 UNK         0.3000 
    150 H150        0.0507  -22.8532  -42.9584 H         1 UNK         0.0600 
    151 H151        0.9426  -25.0138  -43.8356 H         1 UNK         0.0600 
    152 H152        2.0261  -24.3148  -42.6430 H         1 UNK         0.0600 
    153 H153        2.4167  -24.2085  -44.3601 H         1 UNK         0.0600 
    154 H154        2.7267  -21.9356  -43.3951 H         1 UNK         0.3000 
    155 H155        2.0539  -18.4604  -43.4589 H         1 UNK         0.0600 
    156 H156        3.1831  -20.0770  -41.1158 H         1 UNK         0.0600 
    157 H157        1.8309  -18.9537  -41.0149 H         1 UNK         0.0600 
    158 H158        3.4323  -18.3567  -41.4186 H         1 UNK         0.0600 
    159 H159        4.5487  -19.5670  -43.2269 H         1 UNK         0.3000 
    160 H160        5.7692  -20.7718  -45.2163 H         1 UNK         0.0600 
    161 H161        4.8128  -19.1689  -47.6489 H         1 UNK         0.0600 
    162 H162        4.8175  -20.9225  -47.5042 H         1 UNK         0.0600 
    163 H163        6.3389  -20.0461  -47.5336 H         1 UNK         0.0600 
    164 H164        5.9574  -17.9098  -45.8756 H         1 UNK         0.3000 
    165 H165        7.1141  -16.9135  -42.6969 H         1 UNK         0.0600 
    166 H166        9.0398  -16.0037  -43.9660 H         1 UNK         0.0600 
    167 H167        9.2251  -17.7369  -43.7539 H         1 UNK         0.0600 
    168 H168        8.7095  -17.0978  -45.3100 H         1 UNK         0.0600 
    169 H169        6.8381  -15.4747  -45.1282 H         1 UNK         0.3000 
    170 H170        4.8467  -13.6697  -44.6764 H         1 UNK         0.0600 
    171 H171        5.7150  -14.7071  -46.7443 H         1 UNK         0.0600 
    172 H172        4.3550  -15.8245  -46.8159 H         1 UNK         0.0600 
    173 H173        4.1059  -14.1007  -47.0757 H         1 UNK         0.0600 
    174 H174        2.5082  -15.4803  -45.0694 H         1 UNK         0.3000 
    175 H175        0.4692  -14.7412  -44.6424 H         1 UNK         0.0600 
    176 H176        0.8892  -14.3040  -41.6409 H         1 UNK         0.0600 
    177 H177       -0.4315  -15.2059  -42.3874 H         1 UNK         0.0600 
    178 H178        1.2180  -15.8010  -42.5064 H         1 UNK         0.0600 
    179 H179       -0.4500  -12.6564  -42.9080 H         1 UNK         0.3000 
    180 H180       -0.9054  -10.3925  -43.8621 H         1 UNK         0.0600 
    181 H181       -2.1855   -9.3040  -45.6865 H         1 UNK         0.0600 
    182 H182       -1.9847  -10.7229  -46.7138 H         1 UNK         0.0600 
    183 H183       -0.5863   -9.7596  -46.2507 H         1 UNK         0.0600 
    184 H184       -3.3405  -11.6428  -44.9167 H         1 UNK         0.3000 
    185 H185       -4.2936  -13.1903  -41.9031 H         1 UNK         0.0600 
    186 H186       -5.0362  -10.8463  -41.4738 H         1 UNK         0.0600 
    187 H187       -5.4905  -10.6634  -43.1637 H         1 UNK         0.0600 
    188 H188       -6.3446  -11.8136  -42.1342 H         1 UNK         0.0600 
    189 H189       -5.6293  -12.7955  -44.4044 H         1 UNK         0.3000 
    190 H190       -1.3915  -20.1253  -44.3952 H         1 UNK         0.3000 
    191 H191       -4.1071  -19.5418  -43.6468 H         1 UNK         0.0600 
    192 H192       -3.7965  -21.5131  -42.1649 H         1 UNK         0.0600 
    193 H193       -2.4026  -20.4494  -42.0703 H         1 UNK         0.0600 
    194 H194       -2.3125  -21.9406  -43.0059 H         1 UNK         0.0600 
    195 H195       -2.9837  -21.0630  -46.4051 H         1 UNK         0.3000 
    196 H196       -3.8119  -22.2247  -48.0377 H         1 UNK         0.0600 
    197 H197       -6.5879  -21.8176  -46.8235 H         1 UNK         0.0600 
    198 H198       -5.7417  -20.6541  -47.8456 H         1 UNK         0.0600 
    199 H199       -6.2158  -22.2129  -48.4967 H         1 UNK         0.0600 
    200 H200       -2.7571  -23.7261  -45.8587 H         1 UNK         0.3000 
    201 H201       -4.2440  -26.1258  -45.4029 H         1 UNK         0.0600 
    202 H202       -1.2077  -25.6911  -45.4336 H         1 UNK         0.0600 
    203 H203       -2.0580  -27.0363  -44.6878 H         1 UNK         0.0600 
    204 H204       -2.2535  -25.4134  -44.0405 H         1 UNK         0.0600 
    205 H205       -4.3913  -27.9893  -46.5702 H         1 UNK         0.3000 
    206 H206       -4.5927  -29.3280  -48.3124 H         1 UNK         0.0600 
    207 H207       -2.1207  -29.6544  -48.0156 H         1 UNK         0.0600 
    208 H208       -2.6322  -29.8885  -49.6781 H         1 UNK         0.0600 
    209 H209       -1.8170  -28.4015  -49.2184 H         1 UNK         0.0600 
    210 H210       -5.6002  -26.6148  -48.5000 H         1 UNK         0.3000 
    211 H211       -6.7661  -25.2937  -49.8040 H         1 UNK         0.0600 
    212 H212       -7.7631  -26.1269  -51.8886 H         1 UNK         0.0600 
    213 H213       -7.7694  -27.4097  -50.6907 H         1 UNK         0.0600 
    214 H214       -6.5836  -27.4247  -51.9959 H         1 UNK         0.0600 
    215 H215       -3.9853  -24.8461  -49.6453 H         1 UNK         0.3000 
    216 H216       -2.9192  -23.9322  -52.1615 H         1 UNK         0.0600 
    217 H217       -2.1123  -23.3744  -49.2626 H         1 UNK         0.0600 
    218 H218       -1.1790  -22.8980  -50.6750 H         1 UNK         0.0600 
    219 H219       -1.4366  -24.6016  -50.3290 H         1 UNK         0.0600 
    220 H220       -4.8826  -22.7759  -52.8728 H         1 UNK         0.3000 
    221 H221       -5.5864  -20.1843  -51.8300 H         1 UNK         0.0600 
    222 H222       -7.0528  -21.5336  -53.3571 H         1 UNK         0.0600 
    223 H223       -5.8654  -21.3822  -54.6511 H         1 UNK         0.0600 
    224 H224       -6.7154  -19.9601  -54.0572 H         1 UNK         0.0600 
    225 H225       -5.1970  -18.1160  -53.0089 H         1 UNK         0.3000 
    226 H226       -2.4875  -17.4697  -53.3545 H         1 UNK         0.0600 
    227 H227       -4.9712  -15.9903  -54.3668 H         1 UNK         0.0600 
    228 H228       -4.2501  -15.8249  -52.7673 H         1 UNK         0.0600 
    229 H229       -3.3638  -15.2962  -54.1875 H         1 UNK         0.0600 
    230 H230       -4.9218  -18.3681  -55.7734 H         1 UNK         0.3000 
    231 H231       -3.2914  -17.9078  -58.1034 H         1 UNK         0.0600 
    232 H232       -5.8135  -19.6057  -57.6945 H         1 UNK         0.0600 
    233 H233       -5.1330  -19.1447  -59.2502 H         1 UNK         0.0600 
    234 H234       -5.7758  -17.9099  -58.1801 H         1 UNK         0.0600 
    235 H235       -3.3910  -20.4946  -55.7604 H         1 UNK         0.3000 
    236 H236       -2.1950  -22.5002  -57.5733 H         1 UNK         0.0600 
    237 H237       -3.9603  -23.2252  -55.9582 H         1 UNK         0.0600 
    238 H238       -2.4217  -24.0184  -55.6590 H         1 UNK         0.0600 
    239 H239       -2.9467  -22.7123  -54.6115 H         1 UNK         0.0600 
    240 H240       -1.4008  -20.6051  -54.5913 H         1 UNK         0.3000 
    241 H241        1.3231  -21.5714  -54.5819 H         1 UNK         0.0600 
    242 H242        1.4061  -18.1002  -56.7082 H         1 UNK         0.3800 
    243 H243       -0.1277  -18.6697  -56.1032 H         1 UNK         0.3800 
    244 H244        0.1041  -21.0441  -52.4899 H         1 UNK         0.0800 
    245 H245        1.6949  -20.3539  -52.6043 H         1 UNK         0.0800 
    246 H246       -1.7670  -19.3848  -51.2170 H         1 UNK         0.0800 
    247 H247       -0.2215  -19.6746  -50.4605 H         1 UNK         0.0800 
@<TRIPOS>BOND
     1    1    2 1    
     2    1  127 1    
     3    1  128 1    
     4    1  129 1    
     5    2    3 2    
     6    2    4 am   BACKBONE|DICT|INTERRES
     7    4    5 1    
     8    4  130 1    
     9    5    6 1    
    10    5   65 1    
    11    5  131 1    
    12    6    7 1    
    13    6  132 1    
    14    6  133 1    
    15    7    8 1    
    16    8    9 1    
    17    8  134 1    
    18    8  135 1    
    19    9   10 ar   
    20    9   14 ar   
    21   10   11 ar   
    22   10  136 1    
    23   11   12 ar   
    24   11  126 1    
    25   12   13 ar   
    26   12  137 1    
    27   13   14 ar   
    28   13   15 1    
    29   14  138 1    
    30   15   16 1    
    31   15  139 1    
    32   15  140 1    
    33   16   17 1    
    34   17   18 1    
    35   17  141 1    
    36   17  142 1    
    37   18   19 1    
    38   18   67 1    
    39   18  143 1    
    40   19   20 am   BACKBONE|DICT|INTERRES
    41   19  144 1    
    42   20   21 2    
    43   20   22 1    
    44   22   23 1    
    45   22   24 1    
    46   22  145 1    
    47   23  146 1    
    48   23  147 1    
    49   23  148 1    
    50   24   25 am   BACKBONE|DICT|INTERRES
    51   24  149 1    
    52   25   26 2    
    53   25   27 1    
    54   27   28 1    
    55   27   29 1    
    56   27  150 1    
    57   28  151 1    
    58   28  152 1    
    59   28  153 1    
    60   29   30 am   BACKBONE|DICT|INTERRES
    61   29  154 1    
    62   30   31 2    
    63   30   32 1    
    64   32   33 1    
    65   32   34 1    
    66   32  155 1    
    67   33  156 1    
    68   33  157 1    
    69   33  158 1    
    70   34   35 am   BACKBONE|DICT|INTERRES
    71   34  159 1    
    72   35   36 2    
    73   35   37 1    
    74   37   38 1    
    75   37   39 1    
    76   37  160 1    
    77   38  161 1    
    78   38  162 1    
    79   38  163 1    
    80   39   40 am   BACKBONE|DICT|INTERRES
    81   39  164 1    
    82   40   41 2    
    83   40   42 1    
    84   42   43 1    
    85   42   44 1    
    86   42  165 1    
    87   43  166 1    
    88   43  167 1    
    89   43  168 1    
    90   44   45 am   BACKBONE|DICT|INTERRES
    91   44  169 1    
    92   45   46 2    
    93   45   47 1    
    94   47   48 1    
    95   47   49 1    
    96   47  170 1    
    97   48  171 1    
    98   48  172 1    
    99   48  173 1    
   100   49   50 am   BACKBONE|DICT|INTERRES
   101   49  174 1    
   102   50   51 2    
   103   50   52 1    
   104   52   53 1    
   105   52   54 1    
   106   52  175 1    
   107   53  176 1    
   108   53  177 1    
   109   53  178 1    
   110   54   55 am   BACKBONE|DICT|INTERRES
   111   54  179 1    
   112   55   56 2    
   113   55   57 1    
   114   57   58 1    
   115   57   59 1    
   116   57  180 1    
   117   58  181 1    
   118   58  182 1    
   119   58  183 1    
   120   59   60 am   BACKBONE|DICT|INTERRES
   121   59  184 1    
   122   60   61 2    
   123   60   62 1    
   124   62   63 1    
   125   62   64 1    
   126   62  185 1    
   127   63  186 1    
   128   63  187 1    
   129   63  188 1    
   130   64   65 am   BACKBONE|DICT|INTERRES
   131   64  189 1    
   132   65   66 2    
   133   67   68 2    
   134   67   69 am   BACKBONE|DICT|INTERRES
   135   69   70 1    
   136   69  190 1    
   137   70   71 1    
   138   70   72 1    
   139   70  191 1    
   140   71  192 1    
   141   71  193 1    
   142   71  194 1    
   143   72   73 2    
   144   72   74 am   BACKBONE|DICT|INTERRES
   145   74   75 1    
   146   74  195 1    
   147   75   76 1    
   148   75   77 1    
   149   75  196 1    
   150   76  197 1    
   151   76  198 1    
   152   76  199 1    
   153   77   78 2    
   154   77   79 am   BACKBONE|DICT|INTERRES
   155   79   80 1    
   156   79  200 1    
   157   80   81 1    
   158   80   82 1    
   159   80  201 1    
   160   81  202 1    
   161   81  203 1    
   162   81  204 1    
   163   82   83 2    
   164   82   84 am   BACKBONE|DICT|INTERRES
   165   84   85 1    
   166   84  205 1    
   167   85   86 1    
   168   85   87 1    
   169   85  206 1    
   170   86  207 1    
   171   86  208 1    
   172   86  209 1    
   173   87   88 2    
   174   87   89 am   BACKBONE|DICT|INTERRES
   175   89   90 1    
   176   89  210 1    
   177   90   91 1    
   178   90   92 1    
   179   90  211 1    
   180   91  212 1    
   181   91  213 1    
   182   91  214 1    
   183   92   93 2    
   184   92   94 am   BACKBONE|DICT|INTERRES
   185   94   95 1    
   186   94  215 1    
   187   95   96 1    
   188   95   97 1    
   189   95  216 1    
   190   96  217 1    
   191   96  218 1    
   192   96  219 1    
   193   97   98 2    
   194   97   99 am   BACKBONE|DICT|INTERRES
   195   99  100 1    
   196   99  220 1    
   197  100  101 1    
   198  100  102 1    
   199  100  221 1    
   200  101  222 1    
   201  101  223 1    
   202  101  224 1    
   203  102  103 2    
   204  102  104 am   BACKBONE|DICT|INTERRES
   205  104  105 1    
   206  104  225 1    
   207  105  106 1    
   208  105  107 1    
   209  105  226 1    
   210  106  227 1    
   211  106  228 1    
   212  106  229 1    
   213  107  108 2    
   214  107  109 am   BACKBONE|DICT|INTERRES
   215  109  110 1    
   216  109  230 1    
   217  110  111 1    
   218  110  112 1    
   219  110  231 1    
   220  111  232 1    
   221  111  233 1    
   222  111  234 1    
   223  112  113 2    
   224  112  114 am   BACKBONE|DICT|INTERRES
   225  114  115 1    
   226  114  235 1    
   227  115  116 1    
   228  115  117 1    
   229  115  236 1    
   230  116  237 1    
   231  116  238 1    
   232  116  239 1    
   233  117  118 2    
   234  117  119 am   BACKBONE|DICT|INTERRES
   235  119  120 1    
   236  119  240 1    
   237  120  121 1    
   238  120  124 1    
   239  120  241 1    
   240  121  122 am   BACKBONE|DICT|INTERRES
   241  121  123 2    
   242  122  242 1    
   243  122  243 1    
   244  124  125 1    
   245  124  244 1    
   246  124  245 1    
   247  125  126 1    
   248  126  246 1    
   249  126  247 1    
@<TRIPOS>SUBSTRUCTURE
     1 UNK         1 GROUP             0       ****    0 ROOT    
