@<TRIPOS>MOLECULE
3R540
247   249    1
SMALL
USER_CHARGES


@<TRIPOS>ATOM
      1 CA         -3.0962  -10.2429  -46.7422 C.3       0 UNK        -0.1800 
      2 C          -2.6582  -11.6929  -46.6025 C.2       0 UNK         0.5000 
      3 O          -1.4834  -12.0054  -46.7954 O.2       0 UNK        -0.5000 
      4 N          -3.5983  -12.5769  -46.2464 N.am      1 UNK        -0.5000 
      5 CA         -3.4228  -14.0344  -46.1551 C.3       1 UNK         0.1400 
      6 C6         -4.7678  -14.7584  -45.9053 C.3       23 UNK        -0.0398 
      7 S7         -6.0678  -14.3919  -47.1392 S.3       23 UNK        -0.2404 
      8 C8         -5.3094  -14.9041  -48.7231 C.3       23 UNK        -0.0205 
      9 C9         -4.6310  -16.2692  -48.6750 C.ar      23 UNK        -0.0193 
     10 C10        -3.3372  -16.4229  -49.1842 C.ar      23 UNK        -0.1150 
     11 C11        -2.6939  -17.6623  -49.1275 C.ar      23 UNK        -0.0193 
     12 C12        -3.3507  -18.7538  -48.5558 C.ar      23 UNK        -0.1150 
     13 C13        -4.6317  -18.6058  -48.0192 C.ar      23 UNK        -0.0193 
     14 C14        -5.2790  -17.3720  -48.1093 C.ar      23 UNK        -0.1150 
     15 C15        -5.2981  -19.7646  -47.3001 C.3       23 UNK        -0.0205 
     16 S16        -5.0268  -19.6837  -45.4937 S.3       23 UNK        -0.2404 
     17 C17        -3.2030  -19.7403  -45.3253 C.3       23 UNK        -0.0398 
     18 CA         -2.6002  -21.1039  -45.7403 C.3       11 UNK         0.1400 
     19 N          -1.2093  -20.9945  -46.1942 N.am      11 UNK        -0.5000 
     20 C          -0.5834  -21.9449  -46.9040 C.2       10 UNK         0.5000 
     21 O          -1.1247  -22.9883  -47.2590 O.2       10 UNK        -0.5000 
     22 CA          0.9063  -21.7372  -47.2250 C.3       10 UNK         0.1400 
     23 CB          1.0998  -20.8068  -48.4294 C.3       10 UNK        -0.1800 
     24 N           1.6589  -21.2356  -46.0778 N.am      10 UNK        -0.5000 
     25 C           1.8434  -21.9237  -44.9430 C.2       9 UNK         0.5000 
     26 O           1.4563  -23.0803  -44.7779 O.2       9 UNK        -0.5000 
     27 CA          2.5408  -21.1877  -43.7857 C.3       9 UNK         0.1400 
     28 CB          4.0666  -21.2506  -43.9477 C.3       9 UNK        -0.1800 
     29 N           2.1149  -19.7928  -43.6578 N.am      9 UNK        -0.5000 
     30 C           0.8689  -19.3969  -43.3581 C.2       8 UNK         0.5000 
     31 O          -0.0577  -20.1731  -43.1267 O.2       8 UNK        -0.5000 
     32 CA          0.5994  -17.8802  -43.3725 C.3       8 UNK         0.1400 
     33 CB          1.1568  -17.2084  -42.1083 C.3       8 UNK        -0.1800 
     34 N           1.1498  -17.2284  -44.5601 N.am      8 UNK        -0.5000 
     35 C           0.7789  -17.5092  -45.8186 C.2       7 UNK         0.5000 
     36 O          -0.0799  -18.3395  -46.1176 O.2       7 UNK        -0.5000 
     37 CA          1.5555  -16.7900  -46.9333 C.3       7 UNK         0.1400 
     38 CB          1.0403  -15.3556  -47.1337 C.3       7 UNK        -0.1800 
     39 N           2.9945  -16.7748  -46.6640 N.am      7 UNK        -0.5000 
     40 C           3.7728  -17.8678  -46.6746 C.2       6 UNK         0.5000 
     41 O           3.3644  -18.9955  -46.9462 O.2       6 UNK        -0.5000 
     42 CA          5.2458  -17.6770  -46.2709 C.3       6 UNK         0.1400 
     43 CB          6.0722  -17.1633  -47.4593 C.3       6 UNK        -0.1800 
     44 N           5.4047  -16.7653  -45.1385 N.am      6 UNK        -0.5000 
     45 C           4.9513  -17.0035  -43.8993 C.2       5 UNK         0.5000 
     46 O           4.3848  -18.0423  -43.5654 O.2       5 UNK        -0.5000 
     47 CA          5.1120  -15.8665  -42.8742 C.3       5 UNK         0.1400 
     48 CB          6.4628  -15.9766  -42.1522 C.3       5 UNK        -0.1800 
     49 N           4.9858  -14.5352  -43.4730 N.am      5 UNK        -0.5000 
     50 C           3.8774  -14.0744  -44.0653 C.2       4 UNK         0.5000 
     51 O           2.8337  -14.7267  -44.1782 O.2       4 UNK        -0.5000 
     52 CA          3.9693  -12.6730  -44.6795 C.3       4 UNK         0.1400 
     53 CB          4.4612  -12.7539  -46.1335 C.3       4 UNK        -0.1800 
     54 N           2.6369  -12.0902  -44.6581 N.am      4 UNK        -0.5000 
     55 C           2.3161  -10.8733  -44.2082 C.2       3 UNK         0.5000 
     56 O           3.1431  -10.0248  -43.8714 O.2       3 UNK        -0.5000 
     57 CA          0.8117  -10.5535  -44.1016 C.3       3 UNK         0.1400 
     58 CB          0.3704   -9.6567  -45.2678 C.3       3 UNK        -0.1800 
     59 N          -0.0294  -11.7568  -44.0632 N.am      3 UNK        -0.5000 
     60 C          -0.1211  -12.5777  -43.0031 C.2       2 UNK         0.5000 
     61 O           0.4535  -12.3635  -41.9350 O.2       2 UNK        -0.5000 
     62 CA         -0.9885  -13.8403  -43.1630 C.3       2 UNK         0.1400 
     63 CB         -1.6161  -14.3151  -41.8397 C.3       2 UNK        -0.1800 
     64 N          -2.0407  -13.6257  -44.1535 N.am      2 UNK        -0.5000 
     65 C          -2.3788  -14.4940  -45.1132 C.2       1 UNK         0.5000 
     66 O          -1.8993  -15.6222  -45.2059 O.2       1 UNK        -0.5000 
     67 C          -2.7917  -22.1847  -44.6542 C.2       11 UNK         0.5000 
     68 O          -3.8244  -22.8544  -44.6486 O.2       11 UNK        -0.5000 
     69 N          -1.7821  -22.4033  -43.7987 N.am      12 UNK        -0.5000 
     70 CA         -1.7420  -23.5171  -42.8430 C.3       12 UNK         0.1400 
     71 CB         -0.5649  -23.3278  -41.8750 C.3       12 UNK        -0.1800 
     72 C          -1.6779  -24.8992  -43.5302 C.2       12 UNK         0.5000 
     73 O          -2.1752  -25.8781  -42.9736 O.2       12 UNK        -0.5000 
     74 N          -1.1170  -24.9402  -44.7458 N.am      13 UNK        -0.5000 
     75 CA         -1.1074  -26.0870  -45.6557 C.3       13 UNK         0.1400 
     76 CB          0.2568  -26.1289  -46.3661 C.3       13 UNK        -0.1800 
     77 C          -2.2723  -26.0363  -46.6725 C.2       13 UNK         0.5000 
     78 O          -2.2373  -26.7578  -47.6708 O.2       13 UNK        -0.5000 
     79 N          -3.2686  -25.1727  -46.4247 N.am      14 UNK        -0.5000 
     80 CA         -4.4623  -24.8559  -47.2167 C.3       14 UNK         0.1400 
     81 CB         -5.3420  -26.0987  -47.4499 C.3       14 UNK        -0.1800 
     82 C          -4.1857  -24.1179  -48.5391 C.2       14 UNK         0.5000 
     83 O          -4.9055  -23.1683  -48.8519 O.2       14 UNK        -0.5000 
     84 N          -3.1981  -24.5872  -49.3160 N.am      15 UNK        -0.5000 
     85 CA         -2.8089  -24.1070  -50.6512 C.3       15 UNK         0.1400 
     86 CB         -2.1320  -22.7228  -50.5581 C.3       15 UNK        -0.1800 
     87 C          -3.9748  -24.1224  -51.6647 C.2       15 UNK         0.5000 
     88 O          -4.0435  -23.2576  -52.5403 O.2       15 UNK        -0.5000 
     89 N          -4.9006  -25.0786  -51.4885 N.am      16 UNK        -0.5000 
     90 CA         -6.1771  -25.2147  -52.1987 C.3       16 UNK         0.1400 
     91 CB         -5.9322  -25.6269  -53.6655 C.3       16 UNK        -0.1800 
     92 C          -7.0804  -23.9666  -52.0579 C.2       16 UNK         0.5000 
     93 O          -7.7672  -23.5962  -53.0087 O.2       16 UNK        -0.5000 
     94 N          -7.0328  -23.3179  -50.8825 N.am      17 UNK        -0.5000 
     95 CA         -7.6554  -22.0277  -50.5591 C.3       17 UNK         0.1400 
     96 CB         -9.1955  -22.1160  -50.6011 C.3       17 UNK        -0.1800 
     97 C          -7.0765  -20.8889  -51.4250 C.2       17 UNK         0.5000 
     98 O          -7.8223  -20.0832  -51.9829 O.2       17 UNK        -0.5000 
     99 N          -5.7405  -20.8897  -51.5384 N.am      18 UNK        -0.5000 
    100 CA        -4.8825  -20.0083  -52.3390 C.3       18 UNK         0.1400 
    101 CB        -5.1185  -18.5221  -52.0035 C.3       18 UNK        -0.1800 
    102 C         -4.9322  -20.2669  -53.8604 C.2       18 UNK         0.5000 
    103 O         -4.2136  -19.5919  -54.5993 O.2       18 UNK        -0.5000 
    104 N         -5.7190  -21.2513  -54.3236 N.am      19 UNK        -0.5000 
    105 CA        -5.8275  -21.6261  -55.7386 C.3       19 UNK         0.1400 
    106 CB        -7.0449  -22.5361  -55.9514 C.3       19 UNK        -0.1800 
    107 C         -4.5502  -22.2778  -56.3063 C.2       19 UNK         0.5000 
    108 O         -4.3592  -22.2600  -57.5226 O.2       19 UNK        -0.5000 
    109 N         -3.6746  -22.7929  -55.4296 N.am      20 UNK        -0.5000 
    110 CA        -2.3299  -23.2679  -55.7717 C.3       20 UNK         0.1400 
    111 CB        -1.8645  -24.2680  -54.7003 C.3       20 UNK        -0.1800 
    112 C         -1.3047  -22.1214  -55.9351 C.2       20 UNK         0.5000 
    113 O         -0.1201  -22.3999  -56.1258 O.2       20 UNK        -0.5000 
    114 N         -1.7589  -20.8619  -55.8257 N.am      21 UNK        -0.5000 
    115 CA        -0.9926  -19.6142  -55.9239 C.3       21 UNK         0.1400 
    116 CB        -0.3436  -19.4627  -57.3159 C.3       21 UNK        -0.1800 
    117 C          0.0072  -19.4166  -54.7663 C.2       21 UNK         0.5000 
    118 O          0.9784  -18.6732  -54.9156 O.2       21 UNK        -0.5000 
    119 N         -0.2639  -20.0733  -53.6292 N.am      22 UNK        -0.5000 
    120 CA         0.5006  -19.9981  -52.3712 C.3       22 UNK         0.1400 
    121 C          1.9392  -20.5969  -52.4502 C.2       22 UNK         0.5000 
    122 N          2.2531  -21.4284  -53.4371 N.am      22 UNK        -0.7600 
    123 O          2.7766  -20.3329  -51.5926 O.2       22 UNK        -0.5000 
    124 C124        0.4622  -18.5805  -51.7308 C.3       23 UNK        -0.0398 
    125 S125       -1.2509  -18.0043  -51.4538 S.3       23 UNK        -0.2404 
    126 C126       -1.2772  -17.8195  -49.6484 C.3       23 UNK        -0.0205 
    127 H127       -4.1427  -10.1728  -47.0396 H         1 UNK         0.0600 
    128 H128       -2.4963   -9.7355  -47.4978 H         1 UNK         0.0600 
    129 H129       -2.9724   -9.7182  -45.7955 H         1 UNK         0.0600 
    130 H130       -4.5435  -12.2516  -46.0985 H         1 UNK         0.3000 
    131 H131       -3.0321  -14.3614  -47.1196 H         1 UNK         0.0600 
    132 H132       -4.6218  -15.8396  -45.8729 H         1 UNK         0.0800 
    133 H133       -5.1620  -14.4866  -44.9245 H         1 UNK         0.0800 
    134 H134       -6.0835  -14.9265  -49.4910 H         1 UNK         0.0800 
    135 H135       -4.5998  -14.1336  -49.0286 H         1 UNK         0.0800 
    136 H136       -2.8235  -15.5782  -49.6212 H         1 UNK         0.1150 
    137 H137       -2.8493  -19.7093  -48.4929 H         1 UNK         0.1150 
    138 H138       -6.2721  -17.2592  -47.6979 H         1 UNK         0.1150 
    139 H139       -6.3717  -19.7430  -47.4925 H         1 UNK         0.0800 
    140 H140       -4.9480  -20.7163  -47.6990 H         1 UNK         0.0800 
    141 H141       -2.9341  -19.4946  -44.2964 H         1 UNK         0.0800 
    142 H142       -2.7811  -18.9321  -45.9227 H         1 UNK         0.0800 
    143 H143       -3.1532  -21.4611  -46.6096 H         1 UNK         0.0600 
    144 H144       -0.7149  -20.1337  -45.9711 H         1 UNK         0.3000 
    145 H145        1.3171  -22.7130  -47.4928 H         1 UNK         0.0600 
    146 H146        2.1299  -20.8382  -48.7848 H         1 UNK         0.0600 
    147 H147        0.4592  -21.0950  -49.2629 H         1 UNK         0.0600 
    148 H148        0.8743  -19.7735  -48.1745 H         1 UNK         0.0600 
    149 H149        2.0582  -20.3066  -46.1659 H         1 UNK         0.3000 
    150 H150        2.2764  -21.7015  -42.8594 H         1 UNK         0.0600 
    151 H151        4.4087  -22.2823  -44.0378 H         1 UNK         0.0600 
    152 H152        4.5721  -20.8147  -43.0859 H         1 UNK         0.0600 
    153 H153        4.3986  -20.7139  -44.8371 H         1 UNK         0.0600 
    154 H154        2.8360  -19.0883  -43.7921 H         1 UNK         0.3000 
    155 H155       -0.4825  -17.7311  -43.3895 H         1 UNK         0.0600 
    156 H156        0.6967  -17.6263  -41.2122 H         1 UNK         0.0600 
    157 H157        0.9600  -16.1368  -42.1061 H         1 UNK         0.0600 
    158 H158        2.2339  -17.3473  -42.0179 H         1 UNK         0.0600 
    159 H159        1.8560  -16.5162  -44.4097 H         1 UNK         0.3000 
    160 H160        1.3927  -17.3389  -47.8630 H         1 UNK         0.0600 
    161 H161        1.1524  -14.7514  -46.2336 H         1 UNK         0.0600 
    162 H162       -0.0202  -15.3583  -47.3895 H         1 UNK         0.0600 
    163 H163        1.5688  -14.8541  -47.9443 H         1 UNK         0.0600 
    164 H164        3.3938  -15.8960  -46.3717 H         1 UNK         0.3000 
    165 H165        5.6391  -18.6525  -45.9769 H         1 UNK         0.0600 
    166 H166        7.1308  -17.1028  -47.2063 H         1 UNK         0.0600 
    167 H167        5.9817  -17.8334  -48.3154 H         1 UNK         0.0600 
    168 H168        5.7463  -16.1734  -47.7812 H         1 UNK         0.0600 
    169 H169        5.8629  -15.8851  -45.3207 H         1 UNK         0.3000 
    170 H170        4.3182  -15.9761  -42.1325 H         1 UNK         0.0600 
    171 H171        6.5736  -16.9536  -41.6796 H         1 UNK         0.0600 
    172 H172        7.2999  -15.8475  -42.8394 H         1 UNK         0.0600 
    173 H173        6.5529  -15.2257  -41.3670 H         1 UNK         0.0600 
    174 H174        5.8024  -13.9424  -43.4270 H         1 UNK         0.3000 
    175 H175        4.6645  -12.0735  -44.0880 H         1 UNK         0.0600 
    176 H176        3.7980  -13.3608  -46.7515 H         1 UNK         0.0600 
    177 H177        4.5185  -11.7621  -46.5825 H         1 UNK         0.0600 
    178 H178        5.4581  -13.1927  -46.1883 H         1 UNK         0.0600 
    179 H179        1.8902  -12.7454  -44.8437 H         1 UNK         0.3000 
    180 H180        0.6616   -9.9975  -43.1737 H         1 UNK         0.0600 
    181 H181        0.4752  -10.1629  -46.2280 H         1 UNK         0.0600 
    182 H182        0.9702   -8.7467  -45.3104 H         1 UNK         0.0600 
    183 H183       -0.6691   -9.3510  -45.1568 H         1 UNK         0.0600 
    184 H184       -0.5048  -12.0009  -44.9256 H         1 UNK         0.3000 
    185 H185       -0.3055  -14.6167  -43.5140 H         1 UNK         0.0600 
    186 H186       -0.8508  -14.5277  -41.0924 H         1 UNK         0.0600 
    187 H187       -2.2870  -13.5634  -41.4227 H         1 UNK         0.0600 
    188 H188       -2.1871  -15.2324  -41.9842 H         1 UNK         0.0600 
    189 H189       -2.4903  -12.7208  -44.1418 H         1 UNK         0.3000 
    190 H190       -0.9892  -21.7680  -43.7975 H         1 UNK         0.3000 
    191 H191       -2.6642  -23.4855  -42.2590 H         1 UNK         0.0600 
    192 H192        0.3938  -23.3667  -42.3905 H         1 UNK         0.0600 
    193 H193       -0.6288  -22.3704  -41.3575 H         1 UNK         0.0600 
    194 H194       -0.5579  -24.1091  -41.1142 H         1 UNK         0.0600 
    195 H195       -0.7189  -24.0860  -45.1163 H         1 UNK         0.3000 
    196 H196       -1.2192  -27.0108  -45.0850 H         1 UNK         0.0600 
    197 H197        1.0746  -26.1609  -45.6458 H         1 UNK         0.0600 
    198 H198        0.4065  -25.2547  -47.0004 H         1 UNK         0.0600 
    199 H199        0.3469  -27.0137  -46.9973 H         1 UNK         0.0600 
    200 H200       -3.1700  -24.5900  -45.6020 H         1 UNK         0.3000 
    201 H201       -5.0437  -24.1673  -46.6023 H         1 UNK         0.0600 
    202 H202       -6.2770  -25.8252  -47.9405 H         1 UNK         0.0600 
    203 H203       -5.6000  -26.5798  -46.5065 H         1 UNK         0.0600 
    204 H204       -4.8503  -26.8396  -48.0803 H         1 UNK         0.0600 
    205 H205       -2.6781  -25.3823  -48.9549 H         1 UNK         0.3000 
    206 H206       -2.0700  -24.8125  -51.0327 H         1 UNK         0.0600 
    207 H207       -1.2521  -22.7645  -49.9182 H         1 UNK         0.0600 
    208 H208       -2.8045  -21.9648  -50.1556 H         1 UNK         0.0600 
    209 H209       -1.7972  -22.3791  -51.5369 H         1 UNK         0.0600 
    210 H210       -4.7453  -25.7391  -50.7404 H         1 UNK         0.3000 
    211 H211       -6.7161  -26.0296  -51.7137 H         1 UNK         0.0600 
    212 H212       -5.3406  -26.5404  -53.7220 H         1 UNK         0.0600 
    213 H213       -6.8723  -25.8192  -54.1837 H         1 UNK         0.0600 
    214 H214       -5.4017  -24.8545  -54.2213 H         1 UNK         0.0600 
    215 H215       -6.3861  -23.6560  -50.1786 H         1 UNK         0.3000 
    216 H216       -7.3704  -21.8010  -49.5304 H         1 UNK         0.0600 
    217 H217       -9.6463  -21.1953  -50.2292 H         1 UNK         0.0600 
    218 H218       -9.5701  -22.2743  -51.6126 H         1 UNK         0.0600 
    219 H219       -9.5603  -22.9311  -49.9764 H         1 UNK         0.0600 
    220 H220       -5.2464  -21.6396  -51.0735 H         1 UNK         0.3000 
    221 H221       -3.8630  -20.2482  -52.0332 H         1 UNK         0.0600 
    222 H222       -6.0690  -18.1602  -52.3952 H         1 UNK         0.0600 
    223 H223       -5.1132  -18.3538  -50.9280 H         1 UNK         0.0600 
    224 H224       -4.3332  -17.8976  -52.4308 H         1 UNK         0.0600 
    225 H225       -6.2633  -21.7919  -53.6650 H         1 UNK         0.3000 
    226 H226       -5.9992  -20.7091  -56.3061 H         1 UNK         0.0600 
    227 H227       -7.9500  -22.0945  -55.5338 H         1 UNK         0.0600 
    228 H228       -7.2239  -22.7013  -57.0144 H         1 UNK         0.0600 
    229 H229       -6.9038  -23.5136  -55.4930 H         1 UNK         0.0600 
    230 H230       -3.9134  -22.7962  -54.4411 H         1 UNK         0.3000 
    231 H231       -2.3784  -23.7973  -56.7253 H         1 UNK         0.0600 
    232 H232       -0.9374  -24.7580  -54.9996 H         1 UNK         0.0600 
    233 H233       -2.6062  -25.0505  -54.5379 H         1 UNK         0.0600 
    234 H234       -1.6774  -23.7753  -53.7461 H         1 UNK         0.0600 
    235 H235       -2.7426  -20.7303  -55.6200 H         1 UNK         0.3000 
    236 H236       -1.7237  -18.8114  -55.8192 H         1 UNK         0.0600 
    237 H237       -1.0750  -19.6122  -58.1102 H         1 UNK         0.0600 
    238 H238        0.0737  -18.4636  -57.4455 H         1 UNK         0.0600 
    239 H239        0.4678  -20.1750  -57.4668 H         1 UNK         0.0600 
    240 H240       -1.0856  -20.6574  -53.6125 H         1 UNK         0.3000 
    241 H241       -0.0202  -20.6639  -51.6832 H         1 UNK         0.0600 
    242 H242        3.1810  -21.8192  -53.4787 H         1 UNK         0.3800 
    243 H243        1.5812  -21.6519  -54.1562 H         1 UNK         0.3800 
    244 H244        0.9992  -18.5749  -50.7810 H         1 UNK         0.0800 
    245 H245        0.9740  -17.8562  -52.3654 H         1 UNK         0.0800 
    246 H246       -0.6756  -16.9566  -49.3605 H         1 UNK         0.0800 
    247 H247       -0.8159  -18.6911  -49.1869 H         1 UNK         0.0800 
@<TRIPOS>BOND
     1    1    2 1    
     2    1  127 1    
     3    1  128 1    
     4    1  129 1    
     5    2    3 2    
     6    2    4 am   BACKBONE|DICT|INTERRES
     7    4    5 1    
     8    4  130 1    
     9    5    6 1    
    10    5   65 1    
    11    5  131 1    
    12    6    7 1    
    13    6  132 1    
    14    6  133 1    
    15    7    8 1    
    16    8    9 1    
    17    8  134 1    
    18    8  135 1    
    19    9   10 ar   
    20    9   14 ar   
    21   10   11 ar   
    22   10  136 1    
    23   11   12 ar   
    24   11  126 1    
    25   12   13 ar   
    26   12  137 1    
    27   13   14 ar   
    28   13   15 1    
    29   14  138 1    
    30   15   16 1    
    31   15  139 1    
    32   15  140 1    
    33   16   17 1    
    34   17   18 1    
    35   17  141 1    
    36   17  142 1    
    37   18   19 1    
    38   18   67 1    
    39   18  143 1    
    40   19   20 am   BACKBONE|DICT|INTERRES
    41   19  144 1    
    42   20   21 2    
    43   20   22 1    
    44   22   23 1    
    45   22   24 1    
    46   22  145 1    
    47   23  146 1    
    48   23  147 1    
    49   23  148 1    
    50   24   25 am   BACKBONE|DICT|INTERRES
    51   24  149 1    
    52   25   26 2    
    53   25   27 1    
    54   27   28 1    
    55   27   29 1    
    56   27  150 1    
    57   28  151 1    
    58   28  152 1    
    59   28  153 1    
    60   29   30 am   BACKBONE|DICT|INTERRES
    61   29  154 1    
    62   30   31 2    
    63   30   32 1    
    64   32   33 1    
    65   32   34 1    
    66   32  155 1    
    67   33  156 1    
    68   33  157 1    
    69   33  158 1    
    70   34   35 am   BACKBONE|DICT|INTERRES
    71   34  159 1    
    72   35   36 2    
    73   35   37 1    
    74   37   38 1    
    75   37   39 1    
    76   37  160 1    
    77   38  161 1    
    78   38  162 1    
    79   38  163 1    
    80   39   40 am   BACKBONE|DICT|INTERRES
    81   39  164 1    
    82   40   41 2    
    83   40   42 1    
    84   42   43 1    
    85   42   44 1    
    86   42  165 1    
    87   43  166 1    
    88   43  167 1    
    89   43  168 1    
    90   44   45 am   BACKBONE|DICT|INTERRES
    91   44  169 1    
    92   45   46 2    
    93   45   47 1    
    94   47   48 1    
    95   47   49 1    
    96   47  170 1    
    97   48  171 1    
    98   48  172 1    
    99   48  173 1    
   100   49   50 am   BACKBONE|DICT|INTERRES
   101   49  174 1    
   102   50   51 2    
   103   50   52 1    
   104   52   53 1    
   105   52   54 1    
   106   52  175 1    
   107   53  176 1    
   108   53  177 1    
   109   53  178 1    
   110   54   55 am   BACKBONE|DICT|INTERRES
   111   54  179 1    
   112   55   56 2    
   113   55   57 1    
   114   57   58 1    
   115   57   59 1    
   116   57  180 1    
   117   58  181 1    
   118   58  182 1    
   119   58  183 1    
   120   59   60 am   BACKBONE|DICT|INTERRES
   121   59  184 1    
   122   60   61 2    
   123   60   62 1    
   124   62   63 1    
   125   62   64 1    
   126   62  185 1    
   127   63  186 1    
   128   63  187 1    
   129   63  188 1    
   130   64   65 am   BACKBONE|DICT|INTERRES
   131   64  189 1    
   132   65   66 2    
   133   67   68 2    
   134   67   69 am   BACKBONE|DICT|INTERRES
   135   69   70 1    
   136   69  190 1    
   137   70   71 1    
   138   70   72 1    
   139   70  191 1    
   140   71  192 1    
   141   71  193 1    
   142   71  194 1    
   143   72   73 2    
   144   72   74 am   BACKBONE|DICT|INTERRES
   145   74   75 1    
   146   74  195 1    
   147   75   76 1    
   148   75   77 1    
   149   75  196 1    
   150   76  197 1    
   151   76  198 1    
   152   76  199 1    
   153   77   78 2    
   154   77   79 am   BACKBONE|DICT|INTERRES
   155   79   80 1    
   156   79  200 1    
   157   80   81 1    
   158   80   82 1    
   159   80  201 1    
   160   81  202 1    
   161   81  203 1    
   162   81  204 1    
   163   82   83 2    
   164   82   84 am   BACKBONE|DICT|INTERRES
   165   84   85 1    
   166   84  205 1    
   167   85   86 1    
   168   85   87 1    
   169   85  206 1    
   170   86  207 1    
   171   86  208 1    
   172   86  209 1    
   173   87   88 2    
   174   87   89 am   BACKBONE|DICT|INTERRES
   175   89   90 1    
   176   89  210 1    
   177   90   91 1    
   178   90   92 1    
   179   90  211 1    
   180   91  212 1    
   181   91  213 1    
   182   91  214 1    
   183   92   93 2    
   184   92   94 am   BACKBONE|DICT|INTERRES
   185   94   95 1    
   186   94  215 1    
   187   95   96 1    
   188   95   97 1    
   189   95  216 1    
   190   96  217 1    
   191   96  218 1    
   192   96  219 1    
   193   97   98 2    
   194   97   99 am   BACKBONE|DICT|INTERRES
   195   99  100 1    
   196   99  220 1    
   197  100  101 1    
   198  100  102 1    
   199  100  221 1    
   200  101  222 1    
   201  101  223 1    
   202  101  224 1    
   203  102  103 2    
   204  102  104 am   BACKBONE|DICT|INTERRES
   205  104  105 1    
   206  104  225 1    
   207  105  106 1    
   208  105  107 1    
   209  105  226 1    
   210  106  227 1    
   211  106  228 1    
   212  106  229 1    
   213  107  108 2    
   214  107  109 am   BACKBONE|DICT|INTERRES
   215  109  110 1    
   216  109  230 1    
   217  110  111 1    
   218  110  112 1    
   219  110  231 1    
   220  111  232 1    
   221  111  233 1    
   222  111  234 1    
   223  112  113 2    
   224  112  114 am   BACKBONE|DICT|INTERRES
   225  114  115 1    
   226  114  235 1    
   227  115  116 1    
   228  115  117 1    
   229  115  236 1    
   230  116  237 1    
   231  116  238 1    
   232  116  239 1    
   233  117  118 2    
   234  117  119 am   BACKBONE|DICT|INTERRES
   235  119  120 1    
   236  119  240 1    
   237  120  121 1    
   238  120  124 1    
   239  120  241 1    
   240  121  122 am   BACKBONE|DICT|INTERRES
   241  121  123 2    
   242  122  242 1    
   243  122  243 1    
   244  124  125 1    
   245  124  244 1    
   246  124  245 1    
   247  125  126 1    
   248  126  246 1    
   249  126  247 1    
@<TRIPOS>SUBSTRUCTURE
     1 UNK         1 GROUP             0       ****    0 ROOT    
