@<TRIPOS>MOLECULE
3R540
247   249    1
SMALL
USER_CHARGES


@<TRIPOS>ATOM
      1 CA         -1.1410   -9.8355  -49.0137 C.3       0 UNK        -0.1800 
      2 C          -0.4318  -11.1533  -48.7371 C.2       0 UNK         0.5000 
      3 O           0.7904  -11.1735  -48.5932 O.2       0 UNK        -0.5000 
      4 N          -1.1934  -12.2525  -48.6590 N.am      1 UNK        -0.5000 
      5 CA         -0.6883  -13.6103  -48.4118 C.3       1 UNK         0.1400 
      6 C6         -1.7415  -14.6966  -48.7535 C.3       23 UNK        -0.0398 
      7 S7         -2.3748  -14.6107  -50.4669 S.3       23 UNK        -0.2404 
      8 C8         -0.9139  -15.0236  -51.4773 C.3       23 UNK        -0.0205 
      9 C9         -0.5355  -16.4955  -51.3981 C.ar      23 UNK        -0.0193 
     10 C10        -0.9732  -17.3879  -52.3811 C.ar      23 UNK        -0.1150 
     11 C11        -0.5773  -18.7268  -52.3455 C.ar      23 UNK        -0.0193 
     12 C12         0.2374  -19.1783  -51.3036 C.ar      23 UNK        -0.1150 
     13 C13         0.6613  -18.3038  -50.2947 C.ar      23 UNK        -0.0193 
     14 C14         0.2866  -16.9594  -50.3665 C.ar      23 UNK        -0.1150 
     15 C15         1.5505  -18.7543  -49.1345 C.3       23 UNK        -0.0205 
     16 S16         1.4558  -20.5290  -48.7153 S.3       23 UNK        -0.2404 
     17 C17        -0.2819  -20.6930  -48.1846 C.3       23 UNK        -0.0398 
     18 CA         -0.4720  -21.9347  -47.2857 C.3       11 UNK         0.1400 
     19 N           0.1448  -21.7806  -45.9675 N.am      11 UNK        -0.5000 
     20 C           0.4089  -22.8074  -45.1489 C.2       10 UNK         0.5000 
     21 O           0.1436  -23.9789  -45.4201 O.2       10 UNK        -0.5000 
     22 CA          1.0360  -22.4674  -43.7870 C.3       10 UNK         0.1400 
     23 CB          2.5202  -22.1038  -43.9446 C.3       10 UNK        -0.1800 
     24 N           0.3345  -21.3827  -43.1024 N.am      10 UNK        -0.5000 
     25 C          -0.9390  -21.4378  -42.6879 C.2       9 UNK         0.5000 
     26 O          -1.6617  -22.4264  -42.8205 O.2       9 UNK        -0.5000 
     27 CA         -1.5174  -20.1509  -42.0697 C.3       9 UNK         0.1400 
     28 CB         -1.0227  -19.9543  -40.6288 C.3       9 UNK        -0.1800 
     29 N          -1.2079  -18.9616  -42.8651 N.am      9 UNK        -0.5000 
     30 C          -1.6320  -18.7693  -44.1222 C.2       8 UNK         0.5000 
     31 O          -2.3508  -19.5561  -44.7314 O.2       8 UNK        -0.5000 
     32 CA         -1.1367  -17.5098  -44.8430 C.3       8 UNK         0.1400 
     33 CB         -2.0204  -16.3045  -44.4910 C.3       8 UNK        -0.1800 
     34 N           0.2715  -17.2332  -44.5581 N.am      8 UNK        -0.5000 
     35 C           1.2751  -18.0182  -44.9781 C.2       7 UNK         0.5000 
     36 O           1.1096  -19.0335  -45.6529 O.2       7 UNK        -0.5000 
     37 CA          2.6945  -17.6468  -44.5164 C.3       7 UNK         0.1400 
     38 CB          3.2673  -16.5180  -45.3810 C.3       7 UNK        -0.1800 
     39 N           2.7510  -17.2694  -43.1029 N.am      7 UNK        -0.5000 
     40 C           2.4464  -18.1030  -42.0970 C.2       6 UNK         0.5000 
     41 O           2.1091  -19.2750  -42.2620 O.2       6 UNK        -0.5000 
     42 CA          2.4924  -17.5398  -40.6670 C.3       6 UNK         0.1400 
     43 CB          3.8922  -17.7263  -40.0639 C.3       6 UNK        -0.1800 
     44 N           2.1118  -16.1330  -40.5550 N.am      6 UNK        -0.5000 
     45 C           0.9535  -15.5789  -40.9307 C.2       5 UNK         0.5000 
     46 O           0.0611  -16.1948  -41.5162 O.2       5 UNK        -0.5000 
     47 CA          0.7620  -14.0797  -40.6155 C.3       5 UNK         0.1400 
     48 CB          0.2408  -13.8782  -39.1811 C.3       5 UNK        -0.1800 
     49 N           1.9374  -13.2366  -40.8843 N.am      5 UNK        -0.5000 
     50 C           3.1525  -13.2503  -40.3101 C.2       4 UNK         0.5000 
     51 O           3.4450  -13.9707  -39.3542 O.2       4 UNK        -0.5000 
     52 CA          4.2316  -12.3366  -40.9382 C.3       4 UNK         0.1400 
     53 CB          5.6609  -12.8792  -40.7283 C.3       4 UNK        -0.1800 
     54 N           3.9939  -12.0456  -42.3587 N.am      4 UNK        -0.5000 
     55 C           3.8960  -12.9310  -43.3618 C.2       3 UNK         0.5000 
     56 O           4.0607  -14.1468  -43.2369 O.2       3 UNK        -0.5000 
     57 CA          3.4248  -12.3593  -44.7122 C.3       3 UNK         0.1400 
     58 CB          4.3163  -12.8237  -45.8745 C.3       3 UNK        -0.1800 
     59 N           2.0389  -12.7492  -44.9743 N.am      3 UNK        -0.5000 
     60 C           0.9818  -12.4007  -44.2294 C.2       2 UNK         0.5000 
     61 O           1.0574  -11.6333  -43.2678 O.2       2 UNK        -0.5000 
     62 CA         -0.3725  -13.0405  -44.5955 C.3       2 UNK         0.1400 
     63 CB         -1.5552  -12.4201  -43.8296 C.3       2 UNK        -0.1800 
     64 N          -0.6734  -12.9928  -46.0270 N.am      2 UNK        -0.5000 
     65 C          -0.1766  -13.8054  -46.9690 C.2       1 UNK         0.5000 
     66 O           0.6564  -14.6803  -46.7349 O.2       1 UNK        -0.5000 
     67 C          -1.9492  -22.3690  -47.2030 C.2       11 UNK         0.5000 
     68 O          -2.4043  -23.0681  -48.1070 O.2       11 UNK        -0.5000 
     69 N          -2.6750  -21.9952  -46.1401 N.am      12 UNK        -0.5000 
     70 CA         -4.0284  -22.4834  -45.8647 C.3       12 UNK         0.1400 
     71 CB         -4.7023  -21.6247  -44.7852 C.3       12 UNK        -0.1800 
     72 C          -4.0335  -23.9670  -45.4654 C.2       12 UNK         0.5000 
     73 O          -4.8591  -24.7221  -45.9778 O.2       12 UNK        -0.5000 
     74 N          -3.0862  -24.3715  -44.6060 N.am      13 UNK        -0.5000 
     75 CA         -2.8831  -25.7632  -44.1912 C.3       13 UNK         0.1400 
     76 CB         -1.8431  -25.8176  -43.0620 C.3       13 UNK        -0.1800 
     77 C          -2.4767  -26.6837  -45.3591 C.2       13 UNK         0.5000 
     78 O          -2.9278  -27.8278  -45.4196 O.2       13 UNK        -0.5000 
     79 N          -1.6692  -26.1518  -46.2862 N.am      14 UNK        -0.5000 
     80 CA         -1.2726  -26.8083  -47.5339 C.3       14 UNK         0.1400 
     81 CB         -0.0172  -26.1052  -48.0750 C.3       14 UNK        -0.1800 
     82 C          -2.3786  -26.8179  -48.6120 C.2       14 UNK         0.5000 
     83 O          -2.2169  -27.5021  -49.6226 O.2       14 UNK        -0.5000 
     84 N          -3.4504  -26.0358  -48.4045 N.am      15 UNK        -0.5000 
     85 CA         -4.5682  -25.7606  -49.3192 C.3       15 UNK         0.1400 
     86 CB         -5.3457  -27.0455  -49.6676 C.3       15 UNK        -0.1800 
     87 C          -4.1693  -24.9531  -50.5748 C.2       15 UNK         0.5000 
     88 O          -4.9700  -24.8182  -51.5010 O.2       15 UNK        -0.5000 
     89 N          -2.9622  -24.3768  -50.5683 N.am      16 UNK        -0.5000 
     90 CA         -2.4341  -23.5051  -51.6114 C.3       16 UNK         0.1400 
     91 CB         -0.9195  -23.3411  -51.4092 C.3       16 UNK        -0.1800 
     92 C          -3.1484  -22.1444  -51.6169 C.2       16 UNK         0.5000 
     93 O          -3.5040  -21.6518  -52.6860 O.2       16 UNK        -0.5000 
     94 N          -3.4004  -21.5839  -50.4248 N.am      17 UNK        -0.5000 
     95 CA         -4.1538  -20.3360  -50.2584 C.3       17 UNK         0.1400 
     96 CB         -3.9199  -19.7572  -48.8550 C.3       17 UNK        -0.1800 
     97 C          -5.6606  -20.5126  -50.5264 C.2       17 UNK         0.5000 
     98 O          -6.3237  -19.5425  -50.8909 O.2       17 UNK        -0.5000 
     99 N          -6.1684  -21.7440  -50.3633 N.am      18 UNK        -0.5000 
    100 CA        -7.5378  -22.1236  -50.7136 C.3       18 UNK         0.1400 
    101 CB        -7.9018  -23.4526  -50.0333 C.3       18 UNK        -0.1800 
    102 C         -7.7314  -22.2037  -52.2394 C.2       18 UNK         0.5000 
    103 O         -8.7676  -21.7661  -52.7408 O.2       18 UNK        -0.5000 
    104 N         -6.7191  -22.7234  -52.9515 N.am      19 UNK        -0.5000 
    105 CA        -6.6389  -22.6964  -54.4137 C.3       19 UNK         0.1400 
    106 CB        -5.5209  -23.6395  -54.8845 C.3       19 UNK        -0.1800 
    107 C         -6.4159  -21.2702  -54.9539 C.2       19 UNK         0.5000 
    108 O         -7.0045  -20.9067  -55.9728 O.2       19 UNK        -0.5000 
    109 N         -5.5804  -20.4941  -54.2477 N.am      20 UNK        -0.5000 
    110 CA        -5.2318  -19.0786  -54.4222 C.3       20 UNK         0.1400 
    111 CB        -6.4761  -18.1758  -54.3357 C.3       20 UNK        -0.1800 
    112 C         -4.4064  -18.7736  -55.6851 C.2       20 UNK         0.5000 
    113 O         -3.4067  -18.0602  -55.5981 O.2       20 UNK        -0.5000 
    114 N         -4.8048  -19.3364  -56.8297 N.am      21 UNK        -0.5000 
    115 CA        -4.1368  -19.2226  -58.1254 C.3       21 UNK         0.1400 
    116 CB        -5.1861  -19.4203  -59.2341 C.3       21 UNK        -0.1800 
    117 C         -2.9525  -20.2063  -58.2392 C.2       21 UNK         0.5000 
    118 O         -2.9028  -21.0134  -59.1694 O.2       21 UNK        -0.5000 
    119 N         -2.0288  -20.1394  -57.2735 N.am      22 UNK        -0.5000 
    120 CA        -0.8310  -20.9901  -57.1901 C.3       22 UNK         0.1400 
    121 C          0.3438  -20.5735  -58.1259 C.2       22 UNK         0.5000 
    122 N          0.2841  -19.4358  -58.8077 N.am      22 UNK        -0.7600 
    123 O          1.3210  -21.3070  -58.2500 O.2       22 UNK        -0.5000 
    124 C124       -0.3752  -21.1960  -55.7226 C.3       23 UNK        -0.0398 
    125 S125        0.1084  -19.6599  -54.8543 S.3       23 UNK        -0.2404 
    126 C126       -1.0215  -19.6903  -53.4316 C.3       23 UNK        -0.0205 
    127 H127       -2.2178   -9.9689  -49.1204 H         1 UNK         0.0600 
    128 H128       -0.7609   -9.3911  -49.9335 H         1 UNK         0.0600 
    129 H129       -0.9641   -9.1356  -48.1970 H         1 UNK         0.0600 
    130 H130       -2.1893  -12.1779  -48.8124 H         1 UNK         0.3000 
    131 H131        0.1798  -13.7604  -49.0547 H         1 UNK         0.0600 
    132 H132       -1.3502  -15.6980  -48.5728 H         1 UNK         0.0800 
    133 H133       -2.6017  -14.6006  -48.0884 H         1 UNK         0.0800 
    134 H134       -0.0653  -14.3999  -51.1973 H         1 UNK         0.0800 
    135 H135       -1.1354  -14.7611  -52.5129 H         1 UNK         0.0800 
    136 H136       -1.6017  -17.0382  -53.1887 H         1 UNK         0.1150 
    137 H137        0.5436  -20.2141  -51.2904 H         1 UNK         0.1150 
    138 H138        0.6422  -16.2692  -49.6147 H         1 UNK         0.1150 
    139 H139        1.3098  -18.1781  -48.2397 H         1 UNK         0.0800 
    140 H140        2.5849  -18.5160  -49.3839 H         1 UNK         0.0800 
    141 H141       -0.8858  -20.7673  -49.0898 H         1 UNK         0.0800 
    142 H142       -0.6020  -19.7873  -47.6668 H         1 UNK         0.0800 
    143 H143        0.0412  -22.7626  -47.7795 H         1 UNK         0.0600 
    144 H144        0.4234  -20.8388  -45.7033 H         1 UNK         0.3000 
    145 H145        0.9684  -23.3578  -43.1586 H         1 UNK         0.0600 
    146 H146        3.0672  -22.9009  -44.4495 H         1 UNK         0.0600 
    147 H147        2.9918  -21.9485  -42.9742 H         1 UNK         0.0600 
    148 H148        2.6521  -21.1919  -44.5284 H         1 UNK         0.0600 
    149 H149        0.8716  -20.5367  -42.9275 H         1 UNK         0.3000 
    150 H150       -2.6040  -20.2565  -42.0418 H         1 UNK         0.0600 
    151 H151        0.0612  -19.8528  -40.5821 H         1 UNK         0.0600 
    152 H152       -1.2981  -20.8054  -40.0048 H         1 UNK         0.0600 
    153 H153       -1.4621  -19.0641  -40.1783 H         1 UNK         0.0600 
    154 H154       -0.6183  -18.2583  -42.4391 H         1 UNK         0.3000 
    155 H155       -1.2352  -17.6906  -45.9159 H         1 UNK         0.0600 
    156 H156       -1.8649  -15.4899  -45.1946 H         1 UNK         0.0600 
    157 H157       -1.8287  -15.9358  -43.4831 H         1 UNK         0.0600 
    158 H158       -3.0785  -16.5643  -44.5475 H         1 UNK         0.0600 
    159 H159        0.4778  -16.4616  -43.9415 H         1 UNK         0.3000 
    160 H160        3.3250  -18.5281  -44.6518 H         1 UNK         0.0600 
    161 H161        2.7095  -15.5925  -45.2426 H         1 UNK         0.0600 
    162 H162        3.2243  -16.7726  -46.4409 H         1 UNK         0.0600 
    163 H163        4.3105  -16.3220  -45.1327 H         1 UNK         0.0600 
    164 H164        3.0360  -16.3218  -42.8901 H         1 UNK         0.3000 
    165 H165        1.7834  -18.1140  -40.0680 H         1 UNK         0.0600 
    166 H166        4.2032  -18.7710  -40.1097 H         1 UNK         0.0600 
    167 H167        4.6395  -17.1356  -40.5956 H         1 UNK         0.0600 
    168 H168        3.9131  -17.4271  -39.0157 H         1 UNK         0.0600 
    169 H169        2.7692  -15.5229  -40.0753 H         1 UNK         0.3000 
    170 H170       -0.0134  -13.7229  -41.2933 H         1 UNK         0.0600 
    171 H171        0.0355  -12.8266  -38.9812 H         1 UNK         0.0600 
    172 H172        0.9520  -14.2296  -38.4333 H         1 UNK         0.0600 
    173 H173       -0.6896  -14.4261  -39.0263 H         1 UNK         0.0600 
    174 H174        1.8164  -12.5979  -41.6643 H         1 UNK         0.3000 
    175 H175        4.1597  -11.3828  -40.4138 H         1 UNK         0.0600 
    176 H176        5.7854  -13.8718  -41.1624 H         1 UNK         0.0600 
    177 H177        5.8999  -12.9553  -39.6669 H         1 UNK         0.0600 
    178 H178        6.4031  -12.2204  -41.1791 H         1 UNK         0.0600 
    179 H179        3.7819  -11.0787  -42.5650 H         1 UNK         0.3000 
    180 H180        3.4679  -11.2689  -44.6732 H         1 UNK         0.0600 
    181 H181        4.2986  -13.9061  -45.9972 H         1 UNK         0.0600 
    182 H182        5.3537  -12.5306  -45.7090 H         1 UNK         0.0600 
    183 H183        3.9980  -12.3766  -46.8165 H         1 UNK         0.0600 
    184 H184        1.8845  -13.4166  -45.7219 H         1 UNK         0.3000 
    185 H185       -0.2913  -14.0831  -44.2873 H         1 UNK         0.0600 
    186 H186       -1.4099  -12.4804  -42.7510 H         1 UNK         0.0600 
    187 H187       -1.6889  -11.3679  -44.0837 H         1 UNK         0.0600 
    188 H188       -2.4860  -12.9409  -44.0554 H         1 UNK         0.0600 
    189 H189       -1.3154  -12.2718  -46.3223 H         1 UNK         0.3000 
    190 H190       -2.2871  -21.3361  -45.4713 H         1 UNK         0.3000 
    191 H191       -4.6194  -22.3916  -46.7781 H         1 UNK         0.0600 
    192 H192       -4.8134  -20.5929  -45.1186 H         1 UNK         0.0600 
    193 H193       -5.7005  -21.9983  -44.5538 H         1 UNK         0.0600 
    194 H194       -4.1296  -21.6185  -43.8575 H         1 UNK         0.0600 
    195 H195       -2.4627  -23.6807  -44.1994 H         1 UNK         0.3000 
    196 H196       -3.8313  -26.1328  -43.7956 H         1 UNK         0.0600 
    197 H197       -1.6935  -26.8414  -42.7174 H         1 UNK         0.0600 
    198 H198       -2.1642  -25.2285  -42.2028 H         1 UNK         0.0600 
    199 H199       -0.8749  -25.4347  -43.3852 H         1 UNK         0.0600 
    200 H200       -1.2727  -25.2340  -46.1083 H         1 UNK         0.3000 
    201 H201       -1.0167  -27.8469  -47.3148 H         1 UNK         0.0600 
    202 H202        0.3593  -26.6054  -48.9681 H         1 UNK         0.0600 
    203 H203        0.7867  -26.1081  -47.3385 H         1 UNK         0.0600 
    204 H204       -0.2229  -25.0689  -48.3428 H         1 UNK         0.0600 
    205 H205       -3.4871  -25.5231  -47.5324 H         1 UNK         0.3000 
    206 H206       -5.2472  -25.1146  -48.7612 H         1 UNK         0.0600 
    207 H207       -5.6237  -27.5938  -48.7676 H         1 UNK         0.0600 
    208 H208       -6.2676  -26.8110  -50.2010 H         1 UNK         0.0600 
    209 H209       -4.7652  -27.7135  -50.3040 H         1 UNK         0.0600 
    210 H210       -2.4223  -24.4396  -49.7148 H         1 UNK         0.3000 
    211 H211       -2.6037  -23.9828  -52.5788 H         1 UNK         0.0600 
    212 H212       -0.4208  -24.3103  -51.3848 H         1 UNK         0.0600 
    213 H213       -0.4722  -22.7732  -52.2244 H         1 UNK         0.0600 
    214 H214       -0.6855  -22.8251  -50.4778 H         1 UNK         0.0600 
    215 H215       -3.1053  -22.0743  -49.5857 H         1 UNK         0.3000 
    216 H216       -3.7772  -19.6107  -50.9835 H         1 UNK         0.0600 
    217 H217       -4.2419  -20.4447  -48.0744 H         1 UNK         0.0600 
    218 H218       -4.4778  -18.8297  -48.7197 H         1 UNK         0.0600 
    219 H219       -2.8704  -19.5197  -48.6919 H         1 UNK         0.0600 
    220 H220       -5.5490  -22.4830  -50.0708 H         1 UNK         0.3000 
    221 H221       -8.2137  -21.3559  -50.3304 H         1 UNK         0.0600 
    222 H222       -7.2991  -24.2809  -50.4036 H         1 UNK         0.0600 
    223 H223       -7.7672  -23.3946  -48.9531 H         1 UNK         0.0600 
    224 H224       -8.9466  -23.7059  -50.2170 H         1 UNK         0.0600 
    225 H225       -5.9321  -23.1297  -52.4606 H         1 UNK         0.3000 
    226 H226       -7.5855  -23.0634  -54.8157 H         1 UNK         0.0600 
    227 H227       -5.6984  -24.6600  -54.5446 H         1 UNK         0.0600 
    228 H228       -5.4639  -23.6633  -55.9734 H         1 UNK         0.0600 
    229 H229       -4.5441  -23.3303  -54.5121 H         1 UNK         0.0600 
    230 H230       -5.0565  -20.9546  -53.5081 H         1 UNK         0.3000 
    231 H231       -4.5960  -18.8342  -53.5696 H         1 UNK         0.0600 
    232 H232       -7.1613  -18.3413  -55.1673 H         1 UNK         0.0600 
    233 H233       -6.1928  -17.1227  -54.3520 H         1 UNK         0.0600 
    234 H234       -7.0242  -18.3509  -53.4098 H         1 UNK         0.0600 
    235 H235       -5.6277  -19.9321  -56.7883 H         1 UNK         0.3000 
    236 H236       -3.7303  -18.2145  -58.2295 H         1 UNK         0.0600 
    237 H237       -5.6380  -20.4120  -59.1878 H         1 UNK         0.0600 
    238 H238       -5.9864  -18.6846  -59.1538 H         1 UNK         0.0600 
    239 H239       -4.7398  -19.3055  -60.2228 H         1 UNK         0.0600 
    240 H240       -2.1368  -19.4379  -56.5496 H         1 UNK         0.3000 
    241 H241       -1.1235  -21.9790  -57.5487 H         1 UNK         0.0600 
    242 H242       -0.5087  -18.8223  -58.7114 H         1 UNK         0.3800 
    243 H243        1.0465  -19.1797  -59.4154 H         1 UNK         0.3800 
    244 H244       -1.1785  -21.6869  -55.1713 H         1 UNK         0.0800 
    245 H245        0.4664  -21.8894  -55.6796 H         1 UNK         0.0800 
    246 H246       -2.0364  -19.4598  -53.7548 H         1 UNK         0.0800 
    247 H247       -1.0477  -20.6987  -53.0252 H         1 UNK         0.0800 
@<TRIPOS>BOND
     1    1    2 1    
     2    1  127 1    
     3    1  128 1    
     4    1  129 1    
     5    2    3 2    
     6    2    4 am   BACKBONE|DICT|INTERRES
     7    4    5 1    
     8    4  130 1    
     9    5    6 1    
    10    5   65 1    
    11    5  131 1    
    12    6    7 1    
    13    6  132 1    
    14    6  133 1    
    15    7    8 1    
    16    8    9 1    
    17    8  134 1    
    18    8  135 1    
    19    9   10 ar   
    20    9   14 ar   
    21   10   11 ar   
    22   10  136 1    
    23   11   12 ar   
    24   11  126 1    
    25   12   13 ar   
    26   12  137 1    
    27   13   14 ar   
    28   13   15 1    
    29   14  138 1    
    30   15   16 1    
    31   15  139 1    
    32   15  140 1    
    33   16   17 1    
    34   17   18 1    
    35   17  141 1    
    36   17  142 1    
    37   18   19 1    
    38   18   67 1    
    39   18  143 1    
    40   19   20 am   BACKBONE|DICT|INTERRES
    41   19  144 1    
    42   20   21 2    
    43   20   22 1    
    44   22   23 1    
    45   22   24 1    
    46   22  145 1    
    47   23  146 1    
    48   23  147 1    
    49   23  148 1    
    50   24   25 am   BACKBONE|DICT|INTERRES
    51   24  149 1    
    52   25   26 2    
    53   25   27 1    
    54   27   28 1    
    55   27   29 1    
    56   27  150 1    
    57   28  151 1    
    58   28  152 1    
    59   28  153 1    
    60   29   30 am   BACKBONE|DICT|INTERRES
    61   29  154 1    
    62   30   31 2    
    63   30   32 1    
    64   32   33 1    
    65   32   34 1    
    66   32  155 1    
    67   33  156 1    
    68   33  157 1    
    69   33  158 1    
    70   34   35 am   BACKBONE|DICT|INTERRES
    71   34  159 1    
    72   35   36 2    
    73   35   37 1    
    74   37   38 1    
    75   37   39 1    
    76   37  160 1    
    77   38  161 1    
    78   38  162 1    
    79   38  163 1    
    80   39   40 am   BACKBONE|DICT|INTERRES
    81   39  164 1    
    82   40   41 2    
    83   40   42 1    
    84   42   43 1    
    85   42   44 1    
    86   42  165 1    
    87   43  166 1    
    88   43  167 1    
    89   43  168 1    
    90   44   45 am   BACKBONE|DICT|INTERRES
    91   44  169 1    
    92   45   46 2    
    93   45   47 1    
    94   47   48 1    
    95   47   49 1    
    96   47  170 1    
    97   48  171 1    
    98   48  172 1    
    99   48  173 1    
   100   49   50 am   BACKBONE|DICT|INTERRES
   101   49  174 1    
   102   50   51 2    
   103   50   52 1    
   104   52   53 1    
   105   52   54 1    
   106   52  175 1    
   107   53  176 1    
   108   53  177 1    
   109   53  178 1    
   110   54   55 am   BACKBONE|DICT|INTERRES
   111   54  179 1    
   112   55   56 2    
   113   55   57 1    
   114   57   58 1    
   115   57   59 1    
   116   57  180 1    
   117   58  181 1    
   118   58  182 1    
   119   58  183 1    
   120   59   60 am   BACKBONE|DICT|INTERRES
   121   59  184 1    
   122   60   61 2    
   123   60   62 1    
   124   62   63 1    
   125   62   64 1    
   126   62  185 1    
   127   63  186 1    
   128   63  187 1    
   129   63  188 1    
   130   64   65 am   BACKBONE|DICT|INTERRES
   131   64  189 1    
   132   65   66 2    
   133   67   68 2    
   134   67   69 am   BACKBONE|DICT|INTERRES
   135   69   70 1    
   136   69  190 1    
   137   70   71 1    
   138   70   72 1    
   139   70  191 1    
   140   71  192 1    
   141   71  193 1    
   142   71  194 1    
   143   72   73 2    
   144   72   74 am   BACKBONE|DICT|INTERRES
   145   74   75 1    
   146   74  195 1    
   147   75   76 1    
   148   75   77 1    
   149   75  196 1    
   150   76  197 1    
   151   76  198 1    
   152   76  199 1    
   153   77   78 2    
   154   77   79 am   BACKBONE|DICT|INTERRES
   155   79   80 1    
   156   79  200 1    
   157   80   81 1    
   158   80   82 1    
   159   80  201 1    
   160   81  202 1    
   161   81  203 1    
   162   81  204 1    
   163   82   83 2    
   164   82   84 am   BACKBONE|DICT|INTERRES
   165   84   85 1    
   166   84  205 1    
   167   85   86 1    
   168   85   87 1    
   169   85  206 1    
   170   86  207 1    
   171   86  208 1    
   172   86  209 1    
   173   87   88 2    
   174   87   89 am   BACKBONE|DICT|INTERRES
   175   89   90 1    
   176   89  210 1    
   177   90   91 1    
   178   90   92 1    
   179   90  211 1    
   180   91  212 1    
   181   91  213 1    
   182   91  214 1    
   183   92   93 2    
   184   92   94 am   BACKBONE|DICT|INTERRES
   185   94   95 1    
   186   94  215 1    
   187   95   96 1    
   188   95   97 1    
   189   95  216 1    
   190   96  217 1    
   191   96  218 1    
   192   96  219 1    
   193   97   98 2    
   194   97   99 am   BACKBONE|DICT|INTERRES
   195   99  100 1    
   196   99  220 1    
   197  100  101 1    
   198  100  102 1    
   199  100  221 1    
   200  101  222 1    
   201  101  223 1    
   202  101  224 1    
   203  102  103 2    
   204  102  104 am   BACKBONE|DICT|INTERRES
   205  104  105 1    
   206  104  225 1    
   207  105  106 1    
   208  105  107 1    
   209  105  226 1    
   210  106  227 1    
   211  106  228 1    
   212  106  229 1    
   213  107  108 2    
   214  107  109 am   BACKBONE|DICT|INTERRES
   215  109  110 1    
   216  109  230 1    
   217  110  111 1    
   218  110  112 1    
   219  110  231 1    
   220  111  232 1    
   221  111  233 1    
   222  111  234 1    
   223  112  113 2    
   224  112  114 am   BACKBONE|DICT|INTERRES
   225  114  115 1    
   226  114  235 1    
   227  115  116 1    
   228  115  117 1    
   229  115  236 1    
   230  116  237 1    
   231  116  238 1    
   232  116  239 1    
   233  117  118 2    
   234  117  119 am   BACKBONE|DICT|INTERRES
   235  119  120 1    
   236  119  240 1    
   237  120  121 1    
   238  120  124 1    
   239  120  241 1    
   240  121  122 am   BACKBONE|DICT|INTERRES
   241  121  123 2    
   242  122  242 1    
   243  122  243 1    
   244  124  125 1    
   245  124  244 1    
   246  124  245 1    
   247  125  126 1    
   248  126  246 1    
   249  126  247 1    
@<TRIPOS>SUBSTRUCTURE
     1 UNK         1 GROUP             0       ****    0 ROOT    
