@<TRIPOS>MOLECULE
3R540
247   249    1
SMALL
USER_CHARGES


@<TRIPOS>ATOM
      1 CA          7.1392  -11.6987  -44.6796 C.3       0 UNK        -0.1800 
      2 C           5.7565  -12.1921  -45.0770 C.2       0 UNK         0.5000 
      3 O           4.7591  -11.5863  -44.6902 O.2       0 UNK        -0.5000 
      4 N           5.6932  -13.2737  -45.8653 N.am      1 UNK        -0.5000 
      5 CA          4.4783  -13.9635  -46.3329 C.3       1 UNK         0.1400 
      6 C6          4.8749  -15.2082  -47.1664 C.3       23 UNK        -0.0398 
      7 S7          3.5217  -16.3976  -47.4543 S.3       23 UNK        -0.2404 
      8 C8          3.2984  -16.1922  -49.2486 C.3       23 UNK        -0.0205 
      9 C9          2.2152  -17.1118  -49.7850 C.ar      23 UNK        -0.0193 
     10 C10         0.9488  -16.6103  -50.0929 C.ar      23 UNK        -0.1150 
     11 C11        -0.0473  -17.4539  -50.5932 C.ar      23 UNK        -0.0193 
     12 C12         0.2323  -18.8132  -50.7725 C.ar      23 UNK        -0.1150 
     13 C13         1.4915  -19.3323  -50.4556 C.ar      23 UNK        -0.0193 
     14 C14         2.4850  -18.4674  -49.9832 C.ar      23 UNK        -0.1150 
     15 C15         1.7551  -20.8279  -50.6214 C.3       23 UNK        -0.0205 
     16 S16         2.7593  -21.5634  -49.2817 S.3       23 UNK        -0.2404 
     17 C17         1.8040  -21.0938  -47.7970 C.3       23 UNK        -0.0398 
     18 CA          1.0572  -22.2696  -47.1311 C.3       11 UNK         0.1400 
     19 N           0.5613  -21.8934  -45.8072 N.am      11 UNK        -0.5000 
     20 C           0.0185  -22.7331  -44.9166 C.2       10 UNK         0.5000 
     21 O          -0.0679  -23.9488  -45.0862 O.2       10 UNK        -0.5000 
     22 CA         -0.5736  -22.0989  -43.6449 C.3       10 UNK         0.1400 
     23 CB          0.5264  -21.8139  -42.6121 C.3       10 UNK        -0.1800 
     24 N          -1.3213  -20.8714  -43.9281 N.am      10 UNK        -0.5000 
     25 C          -2.4381  -20.8261  -44.6696 C.2       9 UNK         0.5000 
     26 O          -2.9811  -21.8247  -45.1412 O.2       9 UNK        -0.5000 
     27 CA         -3.0289  -19.4368  -44.9709 C.3       9 UNK         0.1400 
     28 CB         -3.8576  -18.9289  -43.7821 C.3       9 UNK        -0.1800 
     29 N          -2.0121  -18.4458  -45.3254 N.am      9 UNK        -0.5000 
     30 C          -1.2134  -18.5214  -46.4002 C.2       8 UNK         0.5000 
     31 O          -1.2687  -19.4314  -47.2253 O.2       8 UNK        -0.5000 
     32 CA         -0.1252  -17.4395  -46.5357 C.3       8 UNK         0.1400 
     33 CB         -0.7105  -16.1180  -47.0541 C.3       8 UNK        -0.1800 
     34 N           0.5765  -17.2029  -45.2741 N.am      8 UNK        -0.5000 
     35 C           1.2981  -18.1272  -44.6243 C.2       7 UNK         0.5000 
     36 O           1.4984  -19.2658  -45.0456 O.2       7 UNK        -0.5000 
     37 CA          1.8282  -17.7332  -43.2371 C.3       7 UNK         0.1400 
     38 CB          3.1331  -16.9298  -43.3520 C.3       7 UNK        -0.1800 
     39 N           0.8297  -16.9746  -42.4817 N.am      7 UNK        -0.5000 
     40 C          -0.2849  -17.5140  -41.9646 C.2       6 UNK         0.5000 
     41 O          -0.5581  -18.7116  -42.0384 O.2       6 UNK        -0.5000 
     42 CA         -1.2798  -16.5551  -41.2828 C.3       6 UNK         0.1400 
     43 CB         -0.8904  -16.3288  -39.8146 C.3       6 UNK        -0.1800 
     44 N          -1.3812  -15.2626  -41.9604 N.am      6 UNK        -0.5000 
     45 C          -1.8672  -15.0870  -43.1975 C.2       5 UNK         0.5000 
     46 O          -2.3475  -15.9946  -43.8737 O.2       5 UNK        -0.5000 
     47 CA         -1.7507  -13.6729  -43.8009 C.3       5 UNK         0.1400 
     48 CB         -3.0291  -12.8660  -43.5322 C.3       5 UNK        -0.1800 
     49 N          -0.5921  -12.9179  -43.3147 N.am      5 UNK        -0.5000 
     50 C           0.6841  -13.3051  -43.4342 C.2       4 UNK         0.5000 
     51 O           1.0290  -14.3500  -43.9893 O.2       4 UNK        -0.5000 
     52 CA          1.7360  -12.3800  -42.7993 C.3       4 UNK         0.1400 
     53 CB          2.9784  -13.1582  -42.3313 C.3       4 UNK        -0.1800 
     54 N           2.1497  -11.3363  -43.7306 N.am      4 UNK        -0.5000 
     55 C           1.4355  -10.2501  -44.0530 C.2       3 UNK         0.5000 
     56 O           0.3257   -9.9995  -43.5807 O.2       3 UNK        -0.5000 
     57 CA          2.0658   -9.2776  -45.0638 C.3       3 UNK         0.1400 
     58 CB          3.0603   -8.3427  -44.3574 C.3       3 UNK        -0.1800 
     59 N           2.7633   -9.9952  -46.1310 N.am      3 UNK        -0.5000 
     60 C           2.3295  -10.1039  -47.3944 C.2       2 UNK         0.5000 
     61 O           1.2991   -9.5737  -47.8118 O.2       2 UNK        -0.5000 
     62 CA          3.1880  -10.9397  -48.3686 C.3       2 UNK         0.1400 
     63 CB          4.1238  -10.0271  -49.1759 C.3       2 UNK        -0.1800 
     64 N           3.9886  -11.9740  -47.7105 N.am      2 UNK        -0.5000 
     65 C           3.4819  -13.0488  -47.0895 C.2       1 UNK         0.5000 
     66 O           2.2788  -13.3067  -47.0710 O.2       1 UNK        -0.5000 
     67 C          -0.0722  -22.8281  -48.0223 C.2       11 UNK         0.5000 
     68 O           0.1051  -23.8854  -48.6255 O.2       11 UNK        -0.5000 
     69 N          -1.2274  -22.1476  -48.0514 N.am      12 UNK        -0.5000 
     70 CA         -2.4293  -22.5866  -48.7616 C.3       12 UNK         0.1400 
     71 CB         -3.5088  -21.4980  -48.6854 C.3       12 UNK        -0.1800 
     72 C          -2.9715  -23.9310  -48.2445 C.2       12 UNK         0.5000 
     73 O          -3.3343  -24.7842  -49.0537 O.2       12 UNK        -0.5000 
     74 N          -2.9793  -24.1154  -46.9169 N.am      13 UNK        -0.5000 
     75 CA         -3.3528  -25.3662  -46.2562 C.3       13 UNK         0.1400 
     76 CB         -3.4513  -25.1468  -44.7393 C.3       13 UNK        -0.1800 
     77 C          -2.3887  -26.5197  -46.5887 C.2       13 UNK         0.5000 
     78 O          -2.8487  -27.6130  -46.9193 O.2       13 UNK        -0.5000 
     79 N          -1.0757  -26.2479  -46.5523 N.am      14 UNK        -0.5000 
     80 CA         -0.0169  -27.1861  -46.9403 C.3       14 UNK         0.1400 
     81 CB          1.3538  -26.5884  -46.5893 C.3       14 UNK        -0.1800 
     82 C          -0.0764  -27.5809  -48.4296 C.2       14 UNK         0.5000 
     83 O           0.2041  -28.7310  -48.7679 O.2       14 UNK        -0.5000 
     84 N          -0.4905  -26.6348  -49.2820 N.am      15 UNK        -0.5000 
     85 CA         -0.7588  -26.8231  -50.7082 C.3       15 UNK         0.1400 
     86 CB         -0.6721  -25.4567  -51.4103 C.3       15 UNK        -0.1800 
     87 C          -2.1133  -27.5062  -51.0014 C.2       15 UNK         0.5000 
     88 O          -2.4585  -27.6559  -52.1730 O.2       15 UNK        -0.5000 
     89 N          -2.8678  -27.8901  -49.9596 N.am      16 UNK        -0.5000 
     90 CA         -4.1767  -28.5514  -50.0066 C.3       16 UNK         0.1400 
     91 CB         -4.0566  -29.9665  -50.6104 C.3       16 UNK        -0.1800 
     92 C          -5.2619  -27.6891  -50.6849 C.2       16 UNK         0.5000 
     93 O          -6.0892  -28.2073  -51.4365 O.2       16 UNK        -0.5000 
     94 N          -5.2237  -26.3792  -50.4017 N.am      17 UNK        -0.5000 
     95 CA         -6.1172  -25.3228  -50.8842 C.3       17 UNK         0.1400 
     96 CB         -7.5828  -25.5911  -50.4833 C.3       17 UNK        -0.1800 
     97 C          -5.9596  -24.9928  -52.3823 C.2       17 UNK         0.5000 
     98 O          -6.8106  -24.2948  -52.9350 O.2       17 UNK        -0.5000 
     99 N          -4.8573  -25.4311  -53.0116 N.am      18 UNK        -0.5000 
    100 CA        -4.5305  -25.1532  -54.4169 C.3       18 UNK         0.1400 
    101 CB        -3.3132  -25.9901  -54.8340 C.3       18 UNK        -0.1800 
    102 C         -4.2869  -23.6596  -54.7197 C.2       18 UNK         0.5000 
    103 O         -4.4394  -23.2411  -55.8676 O.2       18 UNK        -0.5000 
    104 N         -3.9465  -22.8793  -53.6836 N.am      19 UNK        -0.5000 
    105 CA        -3.8364  -21.4197  -53.7294 C.3       19 UNK         0.1400 
    106 CB        -3.0553  -20.9445  -52.4940 C.3       19 UNK        -0.1800 
    107 C         -5.2024  -20.7028  -53.8119 C.2       19 UNK         0.5000 
    108 O         -5.2304  -19.5095  -54.1171 O.2       19 UNK        -0.5000 
    109 N         -6.3017  -21.4251  -53.5373 N.am      20 UNK        -0.5000 
    110 CA        -7.6937  -20.9705  -53.5450 C.3       20 UNK         0.1400 
    111 CB        -8.1639  -20.7135  -54.9947 C.3       20 UNK        -0.1800 
    112 C         -7.9091  -19.7822  -52.5850 C.2       20 UNK         0.5000 
    113 O         -7.7660  -19.9538  -51.3736 O.2       20 UNK        -0.5000 
    114 N         -8.2252  -18.6032  -53.1352 N.am      21 UNK        -0.5000 
    115 CA        -8.4008  -17.3472  -52.4034 C.3       21 UNK         0.1400 
    116 CB        -9.2062  -16.3797  -53.2862 C.3       21 UNK        -0.1800 
    117 C         -7.0748  -16.6958  -51.9531 C.2       21 UNK         0.5000 
    118 O         -7.1170  -15.7156  -51.2084 O.2       21 UNK        -0.5000 
    119 N         -5.9315  -17.2269  -52.4109 N.am      22 UNK        -0.5000 
    120 CA        -4.5699  -16.7251  -52.1568 C.3       22 UNK         0.1400 
    121 C         -4.2218  -15.4036  -52.9132 C.2       22 UNK         0.5000 
    122 N         -4.9846  -14.9977  -53.9214 N.am      22 UNK        -0.7600 
    123 O         -3.2321  -14.7448  -52.6082 O.2       22 UNK        -0.5000 
    124 C124       -4.1963  -16.6930  -50.6382 C.3       23 UNK        -0.0398 
    125 S125       -2.7941  -17.7756  -50.2052 S.3       23 UNK        -0.2404 
    126 C126       -1.4065  -16.8797  -50.9708 C.3       23 UNK        -0.0205 
    127 H127        7.2418  -11.7107  -43.5946 H         1 UNK         0.0600 
    128 H128        7.2849  -10.6754  -45.0254 H         1 UNK         0.0600 
    129 H129        7.9296  -12.3183  -45.1037 H         1 UNK         0.0600 
    130 H130        6.5627  -13.7007  -46.1523 H         1 UNK         0.3000 
    131 H131        3.9587  -14.3103  -45.4380 H         1 UNK         0.0600 
    132 H132        5.3221  -14.9067  -48.1152 H         1 UNK         0.0800 
    133 H133        5.6536  -15.7632  -46.6410 H         1 UNK         0.0800 
    134 H134        4.2381  -16.4054  -49.7604 H         1 UNK         0.0800 
    135 H135        3.0549  -15.1507  -49.4650 H         1 UNK         0.0800 
    136 H136        0.7417  -15.5594  -49.9472 H         1 UNK         0.1150 
    137 H137       -0.5390  -19.4686  -51.1521 H         1 UNK         0.1150 
    138 H138        3.4667  -18.8508  -49.7439 H         1 UNK         0.1150 
    139 H139        0.8123  -21.3746  -50.6799 H         1 UNK         0.0800 
    140 H140        2.2654  -20.9889  -51.5716 H         1 UNK         0.0800 
    141 H141        1.1138  -20.2804  -48.0188 H         1 UNK         0.0800 
    142 H142        2.5235  -20.6765  -47.0917 H         1 UNK         0.0800 
    143 H143        1.7770  -23.0763  -46.9772 H         1 UNK         0.0600 
    144 H144        0.6363  -20.9094  -45.5634 H         1 UNK         0.3000 
    145 H145       -1.2684  -22.8193  -43.2083 H         1 UNK         0.0600 
    146 H146        0.1031  -21.4415  -41.6791 H         1 UNK         0.0600 
    147 H147        1.0853  -22.7204  -42.3768 H         1 UNK         0.0600 
    148 H148        1.2391  -21.0731  -42.9748 H         1 UNK         0.0600 
    149 H149       -0.9601  -20.0130  -43.5247 H         1 UNK         0.3000 
    150 H150       -3.6972  -19.5413  -45.8279 H         1 UNK         0.0600 
    151 H151       -4.6340  -19.6458  -43.5122 H         1 UNK         0.0600 
    152 H152       -4.3529  -17.9877  -44.0209 H         1 UNK         0.0600 
    153 H153       -3.2384  -18.7666  -42.8996 H         1 UNK         0.0600 
    154 H154       -1.9413  -17.6330  -44.7187 H         1 UNK         0.3000 
    155 H155        0.6078  -17.7948  -47.2630 H         1 UNK         0.0600 
    156 H156       -1.4445  -15.7007  -46.3667 H         1 UNK         0.0600 
    157 H157       -1.2106  -16.2645  -48.0111 H         1 UNK         0.0600 
    158 H158        0.0726  -15.3741  -47.2047 H         1 UNK         0.0600 
    159 H159        0.4959  -16.2790  -44.8660 H         1 UNK         0.3000 
    160 H160        2.0476  -18.6508  -42.6870 H         1 UNK         0.0600 
    161 H161        3.0043  -16.0269  -43.9475 H         1 UNK         0.0600 
    162 H162        3.9103  -17.5241  -43.8339 H         1 UNK         0.0600 
    163 H163        3.5069  -16.6365  -42.3710 H         1 UNK         0.0600 
    164 H164        0.9444  -15.9705  -42.4663 H         1 UNK         0.3000 
    165 H165       -2.2646  -17.0264  -41.3059 H         1 UNK         0.0600 
    166 H166       -1.6303  -15.7151  -39.3004 H         1 UNK         0.0600 
    167 H167       -0.8264  -17.2764  -39.2780 H         1 UNK         0.0600 
    168 H168        0.0778  -15.8346  -39.7251 H         1 UNK         0.0600 
    169 H169       -1.0136  -14.4599  -41.4718 H         1 UNK         0.3000 
    170 H170       -1.6378  -13.7851  -44.8807 H         1 UNK         0.0600 
    171 H171       -3.9085  -13.3911  -43.9078 H         1 UNK         0.0600 
    172 H172       -3.1797  -12.6934  -42.4658 H         1 UNK         0.0600 
    173 H173       -2.9948  -11.8959  -44.0284 H         1 UNK         0.0600 
    174 H174       -0.7804  -12.0148  -42.9001 H         1 UNK         0.3000 
    175 H175        1.2924  -11.9098  -41.9191 H         1 UNK         0.0600 
    176 H176        3.5010  -13.6282  -43.1643 H         1 UNK         0.0600 
    177 H177        3.6860  -12.5010  -41.8256 H         1 UNK         0.0600 
    178 H178        2.7055  -13.9463  -41.6286 H         1 UNK         0.0600 
    179 H179        3.0709  -11.4565  -44.1461 H         1 UNK         0.3000 
    180 H180        1.2625   -8.6628  -45.4749 H         1 UNK         0.0600 
    181 H181        3.8953   -8.8942  -43.9231 H         1 UNK         0.0600 
    182 H182        2.5742   -7.7918  -43.5512 H         1 UNK         0.0600 
    183 H183        3.4699   -7.6090  -45.0518 H         1 UNK         0.0600 
    184 H184        3.5992  -10.5004  -45.8565 H         1 UNK         0.3000 
    185 H185        2.5068  -11.4327  -49.0655 H         1 UNK         0.0600 
    186 H186        4.6794  -10.5932  -49.9239 H         1 UNK         0.0600 
    187 H187        3.5591   -9.2587  -49.7056 H         1 UNK         0.0600 
    188 H188        4.8444   -9.5201  -48.5329 H         1 UNK         0.0600 
    189 H189        4.9859  -11.8229  -47.6731 H         1 UNK         0.3000 
    190 H190       -1.2843  -21.2504  -47.5733 H         1 UNK         0.3000 
    191 H191       -2.1587  -22.7201  -49.8107 H         1 UNK         0.0600 
    192 H192       -3.8123  -21.3001  -47.6578 H         1 UNK         0.0600 
    193 H193       -4.4009  -21.7904  -49.2406 H         1 UNK         0.0600 
    194 H194       -3.1509  -20.5614  -49.1117 H         1 UNK         0.0600 
    195 H195       -2.7230  -23.3383  -46.3139 H         1 UNK         0.3000 
    196 H196       -4.3431  -25.6487  -46.6196 H         1 UNK         0.0600 
    197 H197       -3.7564  -26.0625  -44.2315 H         1 UNK         0.0600 
    198 H198       -4.1887  -24.3804  -44.5001 H         1 UNK         0.0600 
    199 H199       -2.4980  -24.8364  -44.3120 H         1 UNK         0.0600 
    200 H200       -0.7737  -25.3324  -46.2288 H         1 UNK         0.3000 
    201 H201       -0.1502  -28.0968  -46.3530 H         1 UNK         0.0600 
    202 H202        1.4292  -26.3751  -45.5229 H         1 UNK         0.0600 
    203 H203        1.5387  -25.6597  -47.1294 H         1 UNK         0.0600 
    204 H204        2.1582  -27.2807  -46.8407 H         1 UNK         0.0600 
    205 H205       -0.6193  -25.6924  -48.9249 H         1 UNK         0.3000 
    206 H206        0.0202  -27.4652  -51.1236 H         1 UNK         0.0600 
    207 H207        0.2856  -24.9731  -51.2164 H         1 UNK         0.0600 
    208 H208       -0.7642  -25.5622  -52.4913 H         1 UNK         0.0600 
    209 H209       -1.4606  -24.7823  -51.0767 H         1 UNK         0.0600 
    210 H210       -2.5243  -27.6926  -49.0272 H         1 UNK         0.3000 
    211 H211       -4.4930  -28.6668  -48.9690 H         1 UNK         0.0600 
    212 H212       -3.8019  -29.9365  -51.6701 H         1 UNK         0.0600 
    213 H213       -4.9961  -30.5121  -50.5162 H         1 UNK         0.0600 
    214 H214       -3.2914  -30.5493  -50.0975 H         1 UNK         0.0600 
    215 H215       -4.4656  -26.0396  -49.8118 H         1 UNK         0.3000 
    216 H216       -5.8048  -24.4202  -50.3574 H         1 UNK         0.0600 
    217 H217       -8.2075  -24.7190  -50.6801 H         1 UNK         0.0600 
    218 H218       -7.6665  -25.8136  -49.4196 H         1 UNK         0.0600 
    219 H219       -8.0106  -26.4266  -51.0375 H         1 UNK         0.0600 
    220 H220       -4.2105  -26.0209  -52.5045 H         1 UNK         0.3000 
    221 H221       -5.3822  -25.4700  -55.0223 H         1 UNK         0.0600 
    222 H222       -2.4286  -25.7291  -54.2530 H         1 UNK         0.0600 
    223 H223       -3.5020  -27.0554  -54.6995 H         1 UNK         0.0600 
    224 H224       -3.0722  -25.8347  -55.8864 H         1 UNK         0.0600 
    225 H225       -3.8285  -23.3153  -52.7818 H         1 UNK         0.3000 
    226 H226       -3.2678  -21.1444  -54.6200 H         1 UNK         0.0600 
    227 H227       -2.0783  -21.4241  -52.4302 H         1 UNK         0.0600 
    228 H228       -2.8845  -19.8680  -52.5313 H         1 UNK         0.0600 
    229 H229       -3.5973  -21.1569  -51.5728 H         1 UNK         0.0600 
    230 H230       -6.1858  -22.4025  -53.2941 H         1 UNK         0.3000 
    231 H231       -8.2895  -21.7937  -53.1479 H         1 UNK         0.0600 
    232 H232       -8.0627  -21.6163  -55.5974 H         1 UNK         0.0600 
    233 H233       -7.5888  -19.9280  -55.4861 H         1 UNK         0.0600 
    234 H234       -9.2163  -20.4280  -55.0237 H         1 UNK         0.0600 
    235 H235       -8.3005  -18.5516  -54.1409 H         1 UNK         0.3000 
    236 H236       -8.9829  -17.5499  -51.5021 H         1 UNK         0.0600 
    237 H237       -9.4002  -15.4411  -52.7652 H         1 UNK         0.0600 
    238 H238       -8.6758  -16.1395  -54.2084 H         1 UNK         0.0600 
    239 H239      -10.1738  -16.8039  -53.5555 H         1 UNK         0.0600 
    240 H240       -5.9775  -18.0306  -53.0298 H         1 UNK         0.3000 
    241 H241       -3.9346  -17.4653  -52.6433 H         1 UNK         0.0600 
    242 H242       -4.7478  -14.1489  -54.4109 H         1 UNK         0.3800 
    243 H243       -5.7905  -15.5318  -54.2029 H         1 UNK         0.3800 
    244 H244       -3.9877  -15.6826  -50.2826 H         1 UNK         0.0800 
    245 H245       -5.0314  -17.0328  -50.0254 H         1 UNK         0.0800 
    246 H246       -1.4682  -15.8282  -50.6857 H         1 UNK         0.0800 
    247 H247       -1.5079  -16.9152  -52.0558 H         1 UNK         0.0800 
@<TRIPOS>BOND
     1    1    2 1    
     2    1  127 1    
     3    1  128 1    
     4    1  129 1    
     5    2    3 2    
     6    2    4 am   BACKBONE|DICT|INTERRES
     7    4    5 1    
     8    4  130 1    
     9    5    6 1    
    10    5   65 1    
    11    5  131 1    
    12    6    7 1    
    13    6  132 1    
    14    6  133 1    
    15    7    8 1    
    16    8    9 1    
    17    8  134 1    
    18    8  135 1    
    19    9   10 ar   
    20    9   14 ar   
    21   10   11 ar   
    22   10  136 1    
    23   11   12 ar   
    24   11  126 1    
    25   12   13 ar   
    26   12  137 1    
    27   13   14 ar   
    28   13   15 1    
    29   14  138 1    
    30   15   16 1    
    31   15  139 1    
    32   15  140 1    
    33   16   17 1    
    34   17   18 1    
    35   17  141 1    
    36   17  142 1    
    37   18   19 1    
    38   18   67 1    
    39   18  143 1    
    40   19   20 am   BACKBONE|DICT|INTERRES
    41   19  144 1    
    42   20   21 2    
    43   20   22 1    
    44   22   23 1    
    45   22   24 1    
    46   22  145 1    
    47   23  146 1    
    48   23  147 1    
    49   23  148 1    
    50   24   25 am   BACKBONE|DICT|INTERRES
    51   24  149 1    
    52   25   26 2    
    53   25   27 1    
    54   27   28 1    
    55   27   29 1    
    56   27  150 1    
    57   28  151 1    
    58   28  152 1    
    59   28  153 1    
    60   29   30 am   BACKBONE|DICT|INTERRES
    61   29  154 1    
    62   30   31 2    
    63   30   32 1    
    64   32   33 1    
    65   32   34 1    
    66   32  155 1    
    67   33  156 1    
    68   33  157 1    
    69   33  158 1    
    70   34   35 am   BACKBONE|DICT|INTERRES
    71   34  159 1    
    72   35   36 2    
    73   35   37 1    
    74   37   38 1    
    75   37   39 1    
    76   37  160 1    
    77   38  161 1    
    78   38  162 1    
    79   38  163 1    
    80   39   40 am   BACKBONE|DICT|INTERRES
    81   39  164 1    
    82   40   41 2    
    83   40   42 1    
    84   42   43 1    
    85   42   44 1    
    86   42  165 1    
    87   43  166 1    
    88   43  167 1    
    89   43  168 1    
    90   44   45 am   BACKBONE|DICT|INTERRES
    91   44  169 1    
    92   45   46 2    
    93   45   47 1    
    94   47   48 1    
    95   47   49 1    
    96   47  170 1    
    97   48  171 1    
    98   48  172 1    
    99   48  173 1    
   100   49   50 am   BACKBONE|DICT|INTERRES
   101   49  174 1    
   102   50   51 2    
   103   50   52 1    
   104   52   53 1    
   105   52   54 1    
   106   52  175 1    
   107   53  176 1    
   108   53  177 1    
   109   53  178 1    
   110   54   55 am   BACKBONE|DICT|INTERRES
   111   54  179 1    
   112   55   56 2    
   113   55   57 1    
   114   57   58 1    
   115   57   59 1    
   116   57  180 1    
   117   58  181 1    
   118   58  182 1    
   119   58  183 1    
   120   59   60 am   BACKBONE|DICT|INTERRES
   121   59  184 1    
   122   60   61 2    
   123   60   62 1    
   124   62   63 1    
   125   62   64 1    
   126   62  185 1    
   127   63  186 1    
   128   63  187 1    
   129   63  188 1    
   130   64   65 am   BACKBONE|DICT|INTERRES
   131   64  189 1    
   132   65   66 2    
   133   67   68 2    
   134   67   69 am   BACKBONE|DICT|INTERRES
   135   69   70 1    
   136   69  190 1    
   137   70   71 1    
   138   70   72 1    
   139   70  191 1    
   140   71  192 1    
   141   71  193 1    
   142   71  194 1    
   143   72   73 2    
   144   72   74 am   BACKBONE|DICT|INTERRES
   145   74   75 1    
   146   74  195 1    
   147   75   76 1    
   148   75   77 1    
   149   75  196 1    
   150   76  197 1    
   151   76  198 1    
   152   76  199 1    
   153   77   78 2    
   154   77   79 am   BACKBONE|DICT|INTERRES
   155   79   80 1    
   156   79  200 1    
   157   80   81 1    
   158   80   82 1    
   159   80  201 1    
   160   81  202 1    
   161   81  203 1    
   162   81  204 1    
   163   82   83 2    
   164   82   84 am   BACKBONE|DICT|INTERRES
   165   84   85 1    
   166   84  205 1    
   167   85   86 1    
   168   85   87 1    
   169   85  206 1    
   170   86  207 1    
   171   86  208 1    
   172   86  209 1    
   173   87   88 2    
   174   87   89 am   BACKBONE|DICT|INTERRES
   175   89   90 1    
   176   89  210 1    
   177   90   91 1    
   178   90   92 1    
   179   90  211 1    
   180   91  212 1    
   181   91  213 1    
   182   91  214 1    
   183   92   93 2    
   184   92   94 am   BACKBONE|DICT|INTERRES
   185   94   95 1    
   186   94  215 1    
   187   95   96 1    
   188   95   97 1    
   189   95  216 1    
   190   96  217 1    
   191   96  218 1    
   192   96  219 1    
   193   97   98 2    
   194   97   99 am   BACKBONE|DICT|INTERRES
   195   99  100 1    
   196   99  220 1    
   197  100  101 1    
   198  100  102 1    
   199  100  221 1    
   200  101  222 1    
   201  101  223 1    
   202  101  224 1    
   203  102  103 2    
   204  102  104 am   BACKBONE|DICT|INTERRES
   205  104  105 1    
   206  104  225 1    
   207  105  106 1    
   208  105  107 1    
   209  105  226 1    
   210  106  227 1    
   211  106  228 1    
   212  106  229 1    
   213  107  108 2    
   214  107  109 am   BACKBONE|DICT|INTERRES
   215  109  110 1    
   216  109  230 1    
   217  110  111 1    
   218  110  112 1    
   219  110  231 1    
   220  111  232 1    
   221  111  233 1    
   222  111  234 1    
   223  112  113 2    
   224  112  114 am   BACKBONE|DICT|INTERRES
   225  114  115 1    
   226  114  235 1    
   227  115  116 1    
   228  115  117 1    
   229  115  236 1    
   230  116  237 1    
   231  116  238 1    
   232  116  239 1    
   233  117  118 2    
   234  117  119 am   BACKBONE|DICT|INTERRES
   235  119  120 1    
   236  119  240 1    
   237  120  121 1    
   238  120  124 1    
   239  120  241 1    
   240  121  122 am   BACKBONE|DICT|INTERRES
   241  121  123 2    
   242  122  242 1    
   243  122  243 1    
   244  124  125 1    
   245  124  244 1    
   246  124  245 1    
   247  125  126 1    
   248  126  246 1    
   249  126  247 1    
@<TRIPOS>SUBSTRUCTURE
     1 UNK         1 GROUP             0       ****    0 ROOT    
