@<TRIPOS>MOLECULE
3R540
247   249    1
SMALL
USER_CHARGES


@<TRIPOS>ATOM
      1 CA          0.9292   -9.8308  -46.9037 C.3       0 UNK        -0.1800 
      2 C           1.1302  -11.2923  -46.5338 C.2       0 UNK         0.5000 
      3 O           1.3235  -11.6066  -45.3603 O.2       0 UNK        -0.5000 
      4 N           1.0593  -12.1945  -47.5204 N.am      1 UNK        -0.5000 
      5 CA          1.2468  -13.6458  -47.3707 C.3       1 UNK         0.1400 
      6 C6          1.2646  -14.3696  -48.7410 C.3       23 UNK        -0.0398 
      7 S7         -0.2005  -14.0378  -49.7904 S.3       23 UNK        -0.2404 
      8 C8         -1.2026  -15.5432  -49.5667 C.3       23 UNK        -0.0205 
      9 C9         -0.6167  -16.7354  -50.3077 C.ar      23 UNK        -0.0193 
     10 C10        -0.8532  -16.9000  -51.6744 C.ar      23 UNK        -0.1150 
     11 C11        -0.3163  -17.9932  -52.3586 C.ar      23 UNK        -0.0193 
     12 C12         0.4592  -18.9260  -51.6653 C.ar      23 UNK        -0.1150 
     13 C13         0.6991  -18.7839  -50.2951 C.ar      23 UNK        -0.0193 
     14 C14         0.1537  -17.6796  -49.6251 C.ar      23 UNK        -0.1150 
     15 C15         1.5574  -19.8452  -49.6021 C.3       23 UNK        -0.0205 
     16 S16         1.7395  -19.6827  -47.7923 S.3       23 UNK        -0.2404 
     17 C17         0.0699  -20.1446  -47.2167 C.3       23 UNK        -0.0398 
     18 CA          0.0180  -21.6085  -46.7286 C.3       11 UNK         0.1400 
     19 N           0.8186  -21.8229  -45.5197 N.am      11 UNK        -0.5000 
     20 C           1.1364  -23.0250  -45.0223 C.2       10 UNK         0.5000 
     21 O           0.8075  -24.0868  -45.5489 O.2       10 UNK        -0.5000 
     22 CA          1.9001  -23.0475  -43.6857 C.3       10 UNK         0.1400 
     23 CB          3.3958  -22.7687  -43.8961 C.3       10 UNK        -0.1800 
     24 N           1.3506  -22.1013  -42.7143 N.am      10 UNK        -0.5000 
     25 C           0.1155  -22.1788  -42.1992 C.2       9 UNK         0.5000 
     26 O          -0.6731  -23.0896  -42.4510 O.2       9 UNK        -0.5000 
     27 CA         -0.3340  -21.0208  -41.2915 C.3       9 UNK         0.1400 
     28 CB          0.1983  -21.1981  -39.8615 C.3       9 UNK        -0.1800 
     29 N           0.0747  -19.7176  -41.8152 N.am      9 UNK        -0.5000 
     30 C          -0.4166  -19.1637  -42.9332 C.2       8 UNK         0.5000 
     31 O          -1.2907  -19.6811  -43.6269 O.2       8 UNK        -0.5000 
     32 CA          0.2061  -17.8275  -43.3743 C.3       8 UNK         0.1400 
     33 CB         -0.4588  -16.6592  -42.6354 C.3       8 UNK        -0.1800 
     34 N           1.6546  -17.7771  -43.1692 N.am      8 UNK        -0.5000 
     35 C           2.5252  -18.6040  -43.7661 C.2       7 UNK         0.5000 
     36 O           2.1929  -19.4978  -44.5417 O.2       7 UNK        -0.5000 
     37 CA          4.0059  -18.4613  -43.3790 C.3       7 UNK         0.1400 
     38 CB          4.6380  -17.2393  -44.0597 C.3       7 UNK        -0.1800 
     39 N           4.2023  -18.3706  -41.9337 N.am      7 UNK        -0.5000 
     40 C           3.8520  -19.2988  -41.0353 C.2       6 UNK         0.5000 
     41 O           3.3286  -20.3712  -41.3379 O.2       6 UNK        -0.5000 
     42 CA          4.0821  -18.9673  -39.5464 C.3       6 UNK         0.1400 
     43 CB          5.5223  -19.3020  -39.1150 C.3       6 UNK        -0.1800 
     44 N           3.7009  -17.5975  -39.1676 N.am      6 UNK        -0.5000 
     45 C           4.2569  -16.4365  -39.5403 C.2       5 UNK         0.5000 
     46 O           5.2668  -16.3427  -40.2426 O.2       5 UNK        -0.5000 
     47 CA          3.5364  -15.1597  -39.0716 C.3       5 UNK         0.1400 
     48 CB          4.2514  -14.5521  -37.8555 C.3       5 UNK        -0.1800 
     49 N           3.4461  -14.1512  -40.1293 N.am      5 UNK        -0.5000 
     50 C           2.8389  -14.3208  -41.3119 C.2       4 UNK         0.5000 
     51 O           2.2912  -15.3687  -41.6618 O.2       4 UNK        -0.5000 
     52 CA          2.8574  -13.1127  -42.2680 C.3       4 UNK         0.1400 
     53 CB          3.6783  -13.4258  -43.5284 C.3       4 UNK        -0.1800 
     54 N           1.5196  -12.6869  -42.6775 N.am      4 UNK        -0.5000 
     55 C           0.5289  -12.2925  -41.8650 C.2       3 UNK         0.5000 
     56 O           0.6248  -12.2451  -40.6380 O.2       3 UNK        -0.5000 
     57 CA         -0.7875  -11.8522  -42.5299 C.3       3 UNK         0.1400 
     58 CB         -0.7721  -10.3371  -42.7893 C.3       3 UNK        -0.1800 
     59 N          -1.0248  -12.5465  -43.7972 N.am      3 UNK        -0.5000 
     60 C          -1.8856  -13.5605  -43.9624 C.2       2 UNK         0.5000 
     61 O          -2.5865  -14.0095  -43.0550 O.2       2 UNK        -0.5000 
     62 CA         -2.0114  -14.1769  -45.3713 C.3       2 UNK         0.1400 
     63 CB         -3.3705  -13.8240  -45.9958 C.3       2 UNK        -0.1800 
     64 N          -0.9573  -13.7408  -46.2861 N.am      2 UNK        -0.5000 
     65 C           0.2501  -14.3106  -46.3941 C.2       1 UNK         0.5000 
     66 O           0.5979  -15.3024  -45.7554 O.2       1 UNK        -0.5000 
     67 C          -1.4384  -22.0894  -46.5583 C.2       11 UNK         0.5000 
     68 O          -1.9956  -22.6564  -47.4990 O.2       11 UNK        -0.5000 
     69 N          -2.0207  -21.8998  -45.3651 N.am      12 UNK        -0.5000 
     70 CA         -3.3406  -22.4201  -45.0046 C.3       12 UNK         0.1400 
     71 CB         -3.8063  -21.8073  -43.6758 C.3       12 UNK        -0.1800 
     72 C          -3.3654  -23.9579  -44.9422 C.2       12 UNK         0.5000 
     73 O          -4.2986  -24.5653  -45.4663 O.2       12 UNK        -0.5000 
     74 N          -2.3221  -24.5628  -44.3550 N.am      13 UNK        -0.5000 
     75 CA         -2.1221  -26.0144  -44.3016 C.3       13 UNK         0.1400 
     76 CB         -0.9505  -26.3391  -43.3628 C.3       13 UNK        -0.1800 
     77 C          -1.9025  -26.6416  -45.6928 C.2       13 UNK         0.5000 
     78 O          -2.3998  -27.7380  -45.9515 O.2       13 UNK        -0.5000 
     79 N          -1.2024  -25.9156  -46.5753 N.am      14 UNK        -0.5000 
     80 CA         -1.0092  -26.2542  -47.9880 C.3       14 UNK         0.1400 
     81 CB          0.1713  -25.4369  -48.5366 C.3       14 UNK        -0.1800 
     82 C          -2.2667  -26.0323  -48.8570 C.2       14 UNK         0.5000 
     83 O          -2.2782  -26.4665  -50.0095 O.2       14 UNK        -0.5000 
     84 N          -3.2886  -25.3666  -48.2985 N.am      15 UNK        -0.5000 
     85 CA         -4.5705  -25.0068  -48.9072 C.3       15 UNK         0.1400 
     86 CB         -5.3962  -26.2673  -49.2411 C.3       15 UNK        -0.1800 
     87 C          -4.4197  -24.0377  -50.0971 C.2       15 UNK         0.5000 
     88 O          -5.0732  -24.2161  -51.1269 O.2       15 UNK        -0.5000 
     89 N          -3.5627  -23.0199  -49.9311 N.am      16 UNK        -0.5000 
     90 CA         -3.3836  -21.9227  -50.8828 C.3       16 UNK         0.1400 
     91 CB         -2.1994  -21.0564  -50.4341 C.3       16 UNK        -0.1800 
     92 C          -4.6560  -21.0615  -51.0100 C.2       16 UNK         0.5000 
     93 O          -5.3445  -20.8300  -50.0124 O.2       16 UNK        -0.5000 
     94 N          -4.9302  -20.5899  -52.2287 N.am      17 UNK        -0.5000 
     95 CA         -6.0971  -19.7973  -52.5935 C.3       17 UNK         0.1400 
     96 CB         -7.3590  -20.6787  -52.6265 C.3       17 UNK        -0.1800 
     97 C          -5.8325  -19.1840  -53.9712 C.2       17 UNK         0.5000 
     98 O          -5.3555  -19.8943  -54.8635 O.2       17 UNK        -0.5000 
     99 N          -6.1448  -17.8897  -54.1177 N.am      18 UNK        -0.5000 
    100 CA        -5.9455  -17.0947  -55.3310 C.3       18 UNK         0.1400 
    101 CB        -6.4408  -15.6615  -55.0845 C.3       18 UNK        -0.1800 
    102 C         -6.6484  -17.7148  -56.5511 C.2       18 UNK         0.5000 
    103 O         -7.8564  -17.9565  -56.4957 O.2       18 UNK        -0.5000 
    104 N         -5.8648  -18.0030  -57.5994 N.am      19 UNK        -0.5000 
    105 CA        -6.2091  -18.6928  -58.8513 C.3       19 UNK         0.1400 
    106 CB        -7.2769  -17.9180  -59.6466 C.3       19 UNK        -0.1800 
    107 C         -6.6069  -20.1756  -58.6866 C.2       19 UNK         0.5000 
    108 O         -6.1729  -21.0038  -59.4873 O.2       19 UNK        -0.5000 
    109 N         -7.4061  -20.4888  -57.6597 N.am      20 UNK        -0.5000 
    110 CA        -7.9385  -21.8164  -57.3526 C.3       20 UNK         0.1400 
    111 CB        -8.9608  -21.6925  -56.2132 C.3       20 UNK        -0.1800 
    112 C         -6.8593  -22.8587  -57.0059 C.2       20 UNK         0.5000 
    113 O         -7.0034  -24.0200  -57.3913 O.2       20 UNK        -0.5000 
    114 N         -5.8020  -22.4276  -56.3072 N.am      21 UNK        -0.5000 
    115 CA        -4.6369  -23.2494  -55.9741 C.3       21 UNK         0.1400 
    116 CB        -4.6494  -23.5787  -54.4749 C.3       21 UNK        -0.1800 
    117 C         -3.3282  -22.5528  -56.3781 C.2       21 UNK         0.5000 
    118 O         -2.3928  -23.2318  -56.8030 O.2       21 UNK        -0.5000 
    119 N         -3.2855  -21.2183  -56.2690 N.am      22 UNK        -0.5000 
    120 CA        -2.1469  -20.3778  -56.6765 C.3       22 UNK         0.1400 
    121 C         -1.9838  -20.2075  -58.2176 C.2       22 UNK         0.5000 
    122 N         -2.9196  -20.6500  -59.0491 N.am      22 UNK        -0.7600 
    123 O         -0.9804  -19.6638  -58.6704 O.2       22 UNK        -0.5000 
    124 C124       -2.1874  -18.9949  -55.9787 C.3       23 UNK        -0.0398 
    125 S125       -2.0876  -19.1059  -54.1589 S.3       23 UNK        -0.2404 
    126 C126       -0.5663  -18.1605  -53.8475 C.3       23 UNK        -0.0205 
    127 H127        0.0801   -9.4201  -46.3574 H         1 UNK         0.0600 
    128 H128        0.7427   -9.7043  -47.9703 H         1 UNK         0.0600 
    129 H129        1.8159   -9.2539  -46.6413 H         1 UNK         0.0600 
    130 H130        0.8727  -11.8820  -48.4632 H         1 UNK         0.3000 
    131 H131        2.2341  -13.7814  -46.9236 H         1 UNK         0.0600 
    132 H132        2.1394  -14.0388  -49.3021 H         1 UNK         0.0800 
    133 H133        1.4067  -15.4418  -48.6081 H         1 UNK         0.0800 
    134 H134       -1.3119  -15.7643  -48.5042 H         1 UNK         0.0800 
    135 H135       -2.2102  -15.3492  -49.9373 H         1 UNK         0.0800 
    136 H136       -1.4524  -16.1742  -52.2063 H         1 UNK         0.1150 
    137 H137        0.8732  -19.7722  -52.1958 H         1 UNK         0.1150 
    138 H138        0.3232  -17.5383  -48.5684 H         1 UNK         0.1150 
    139 H139        1.1553  -20.8349  -49.8237 H         1 UNK         0.0800 
    140 H140        2.5555  -19.8142  -50.0411 H         1 UNK         0.0800 
    141 H141       -0.6401  -19.9777  -48.0269 H         1 UNK         0.0800 
    142 H142       -0.2206  -19.4638  -46.4148 H         1 UNK         0.0800 
    143 H143        0.4532  -22.2296  -47.5140 H         1 UNK         0.0600 
    144 H144        1.1856  -20.9897  -45.0643 H         1 UNK         0.3000 
    145 H145        1.8007  -24.0501  -43.2647 H         1 UNK         0.0600 
    146 H146        3.9452  -22.8393  -42.9572 H         1 UNK         0.0600 
    147 H147        3.8331  -23.4917  -44.5857 H         1 UNK         0.0600 
    148 H148        3.5694  -21.7753  -44.3095 H         1 UNK         0.0600 
    149 H149        1.9546  -21.3368  -42.4290 H         1 UNK         0.3000 
    150 H150       -1.4250  -21.0378  -41.2477 H         1 UNK         0.0600 
    151 H151       -0.1353  -22.1467  -39.4391 H         1 UNK         0.0600 
    152 H152       -0.1624  -20.4061  -39.2052 H         1 UNK         0.0600 
    153 H153        1.2877  -21.1921  -39.8281 H         1 UNK         0.0600 
    154 H154        0.8246  -19.2443  -41.3343 H         1 UNK         0.3000 
    155 H155        0.0174  -17.7085  -44.4432 H         1 UNK         0.0600 
    156 H156       -0.2813  -16.7060  -41.5604 H         1 UNK         0.0600 
    157 H157       -0.0756  -15.7040  -42.9939 H         1 UNK         0.0600 
    158 H158       -1.5379  -16.6587  -42.7934 H         1 UNK         0.0600 
    159 H159        2.0003  -17.0378  -42.5620 H         1 UNK         0.3000 
    160 H160        4.5273  -19.3546  -43.7289 H         1 UNK         0.0600 
    161 H161        5.7117  -17.1974  -43.8766 H         1 UNK         0.0600 
    162 H162        4.2004  -16.3110  -43.6947 H         1 UNK         0.0600 
    163 H163        4.4909  -17.2722  -45.1401 H         1 UNK         0.0600 
    164 H164        4.6262  -17.5188  -41.5769 H         1 UNK         0.3000 
    165 H165        3.4167  -19.6211  -38.9801 H         1 UNK         0.0600 
    166 H166        5.6690  -19.1141  -38.0514 H         1 UNK         0.0600 
    167 H167        5.7436  -20.3552  -39.2927 H         1 UNK         0.0600 
    168 H168        6.2623  -18.7198  -39.6644 H         1 UNK         0.0600 
    169 H169        2.8644  -17.5448  -38.6029 H         1 UNK         0.3000 
    170 H170        2.5162  -15.4174  -38.7799 H         1 UNK         0.0600 
    171 H171        4.3137  -15.2723  -37.0386 H         1 UNK         0.0600 
    172 H172        5.2691  -14.2446  -38.0999 H         1 UNK         0.0600 
    173 H173        3.7177  -13.6797  -37.4778 H         1 UNK         0.0600 
    174 H174        3.8881  -13.2653  -39.9341 H         1 UNK         0.3000 
    175 H175        3.3271  -12.2690  -41.7587 H         1 UNK         0.0600 
    176 H176        3.8054  -12.5362  -44.1457 H         1 UNK         0.0600 
    177 H177        3.1936  -14.1874  -44.1410 H         1 UNK         0.0600 
    178 H178        4.6741  -13.7889  -43.2708 H         1 UNK         0.0600 
    179 H179        1.3697  -12.6142  -43.6774 H         1 UNK         0.3000 
    180 H180       -1.5956  -12.0602  -41.8256 H         1 UNK         0.0600 
    181 H181        0.0270  -10.0511  -43.4743 H         1 UNK         0.0600 
    182 H182       -0.6221   -9.7838  -41.8614 H         1 UNK         0.0600 
    183 H183       -1.7166  -10.0019  -43.2182 H         1 UNK         0.0600 
    184 H184       -0.4472  -12.2593  -44.5782 H         1 UNK         0.3000 
    185 H185       -1.9625  -15.2621  -45.2578 H         1 UNK         0.0600 
    186 H186       -3.4859  -12.7474  -46.1271 H         1 UNK         0.0600 
    187 H187       -3.4904  -14.2965  -46.9710 H         1 UNK         0.0600 
    188 H188       -4.1924  -14.1681  -45.3666 H         1 UNK         0.0600 
    189 H189       -1.1563  -12.9325  -46.8578 H         1 UNK         0.3000 
    190 H190       -1.5355  -21.3602  -44.6550 H         1 UNK         0.3000 
    191 H191       -4.0440  -22.1098  -45.7803 H         1 UNK         0.0600 
    192 H192       -3.8713  -20.7214  -43.7448 H         1 UNK         0.0600 
    193 H193       -4.7962  -22.1748  -43.4025 H         1 UNK         0.0600 
    194 H194       -3.1290  -22.0504  -42.8576 H         1 UNK         0.0600 
    195 H195       -1.6184  -23.9902  -43.8970 H         1 UNK         0.3000 
    196 H196       -3.0260  -26.4583  -43.8794 H         1 UNK         0.0600 
    197 H197       -0.8023  -27.4165  -43.2814 H         1 UNK         0.0600 
    198 H198       -1.1343  -25.9587  -42.3578 H         1 UNK         0.0600 
    199 H199       -0.0160  -25.9049  -43.7179 H         1 UNK         0.0600 
    200 H200       -0.7510  -25.0659  -46.2498 H         1 UNK         0.3000 
    201 H201       -0.7500  -27.3127  -48.0540 H         1 UNK         0.0600 
    202 H202        1.0764  -25.6076  -47.9534 H         1 UNK         0.0600 
    203 H203       -0.0414  -24.3681  -48.5223 H         1 UNK         0.0600 
    204 H204        0.3932  -25.7123  -49.5683 H         1 UNK         0.0600 
    205 H205       -3.1636  -25.0388  -47.3495 H         1 UNK         0.3000 
    206 H206       -5.1196  -24.4544  -48.1436 H         1 UNK         0.0600 
    207 H207       -5.4966  -26.9138  -48.3692 H         1 UNK         0.0600 
    208 H208       -6.4030  -25.9993  -49.5632 H         1 UNK         0.0600 
    209 H209       -4.9425  -26.8511  -50.0423 H         1 UNK         0.0600 
    210 H210       -3.0609  -22.9403  -49.0500 H         1 UNK         0.3000 
    211 H211       -3.1470  -22.3571  -51.8562 H         1 UNK         0.0600 
    212 H212       -2.3942  -20.5886  -49.4690 H         1 UNK         0.0600 
    213 H213       -2.0116  -20.2573  -51.1513 H         1 UNK         0.0600 
    214 H214       -1.2847  -21.6431  -50.3481 H         1 UNK         0.0600 
    215 H215       -4.2939  -20.7634  -52.9958 H         1 UNK         0.3000 
    216 H216       -6.2276  -18.9975  -51.8616 H         1 UNK         0.0600 
    217 H217       -8.2216  -20.1164  -52.9860 H         1 UNK         0.0600 
    218 H218       -7.6090  -21.0538  -51.6342 H         1 UNK         0.0600 
    219 H219       -7.2261  -21.5400  -53.2826 H         1 UNK         0.0600 
    220 H220       -6.5603  -17.4019  -53.3380 H         1 UNK         0.3000 
    221 H221       -4.8718  -17.0513  -55.5200 H         1 UNK         0.0600 
    222 H222       -7.5044  -15.6389  -54.8431 H         1 UNK         0.0600 
    223 H223       -5.8995  -15.1918  -54.2630 H         1 UNK         0.0600 
    224 H224       -6.2917  -15.0397  -55.9683 H         1 UNK         0.0600 
    225 H225       -4.8868  -17.7664  -57.5200 H         1 UNK         0.3000 
    226 H226       -5.2947  -18.6849  -59.4468 H         1 UNK         0.0600 
    227 H227       -6.9685  -16.8869  -59.8197 H         1 UNK         0.0600 
    228 H228       -7.4411  -18.3761  -60.6227 H         1 UNK         0.0600 
    229 H229       -8.2381  -17.8992  -59.1324 H         1 UNK         0.0600 
    230 H230       -7.7127  -19.7214  -57.0675 H         1 UNK         0.3000 
    231 H231       -8.4627  -22.1737  -58.2413 H         1 UNK         0.0600 
    232 H232       -8.5109  -21.2646  -55.3177 H         1 UNK         0.0600 
    233 H233       -9.3715  -22.6666  -55.9446 H         1 UNK         0.0600 
    234 H234       -9.7968  -21.0555  -56.5027 H         1 UNK         0.0600 
    235 H235       -5.7787  -21.4593  -56.0057 H         1 UNK         0.3000 
    236 H236       -4.6673  -24.1918  -56.5248 H         1 UNK         0.0600 
    237 H237       -5.5367  -24.1512  -54.2043 H         1 UNK         0.0600 
    238 H238       -3.7796  -24.1733  -54.1929 H         1 UNK         0.0600 
    239 H239       -4.6415  -22.6759  -53.8691 H         1 UNK         0.0600 
    240 H240       -4.0669  -20.7240  -55.8476 H         1 UNK         0.3000 
    241 H241       -1.2365  -20.8799  -56.3434 H         1 UNK         0.0600 
    242 H242       -2.7870  -20.5391  -60.0419 H         1 UNK         0.3800 
    243 H243       -3.7419  -21.1211  -58.7067 H         1 UNK         0.3800 
    244 H244       -1.3739  -18.3618  -56.3374 H         1 UNK         0.0800 
    245 H245       -3.1075  -18.4724  -56.2374 H         1 UNK         0.0800 
    246 H246       -0.6429  -17.1795  -54.3191 H         1 UNK         0.0800 
    247 H247        0.2785  -18.6662  -54.3178 H         1 UNK         0.0800 
@<TRIPOS>BOND
     1    1    2 1    
     2    1  127 1    
     3    1  128 1    
     4    1  129 1    
     5    2    3 2    
     6    2    4 am   BACKBONE|DICT|INTERRES
     7    4    5 1    
     8    4  130 1    
     9    5    6 1    
    10    5   65 1    
    11    5  131 1    
    12    6    7 1    
    13    6  132 1    
    14    6  133 1    
    15    7    8 1    
    16    8    9 1    
    17    8  134 1    
    18    8  135 1    
    19    9   10 ar   
    20    9   14 ar   
    21   10   11 ar   
    22   10  136 1    
    23   11   12 ar   
    24   11  126 1    
    25   12   13 ar   
    26   12  137 1    
    27   13   14 ar   
    28   13   15 1    
    29   14  138 1    
    30   15   16 1    
    31   15  139 1    
    32   15  140 1    
    33   16   17 1    
    34   17   18 1    
    35   17  141 1    
    36   17  142 1    
    37   18   19 1    
    38   18   67 1    
    39   18  143 1    
    40   19   20 am   BACKBONE|DICT|INTERRES
    41   19  144 1    
    42   20   21 2    
    43   20   22 1    
    44   22   23 1    
    45   22   24 1    
    46   22  145 1    
    47   23  146 1    
    48   23  147 1    
    49   23  148 1    
    50   24   25 am   BACKBONE|DICT|INTERRES
    51   24  149 1    
    52   25   26 2    
    53   25   27 1    
    54   27   28 1    
    55   27   29 1    
    56   27  150 1    
    57   28  151 1    
    58   28  152 1    
    59   28  153 1    
    60   29   30 am   BACKBONE|DICT|INTERRES
    61   29  154 1    
    62   30   31 2    
    63   30   32 1    
    64   32   33 1    
    65   32   34 1    
    66   32  155 1    
    67   33  156 1    
    68   33  157 1    
    69   33  158 1    
    70   34   35 am   BACKBONE|DICT|INTERRES
    71   34  159 1    
    72   35   36 2    
    73   35   37 1    
    74   37   38 1    
    75   37   39 1    
    76   37  160 1    
    77   38  161 1    
    78   38  162 1    
    79   38  163 1    
    80   39   40 am   BACKBONE|DICT|INTERRES
    81   39  164 1    
    82   40   41 2    
    83   40   42 1    
    84   42   43 1    
    85   42   44 1    
    86   42  165 1    
    87   43  166 1    
    88   43  167 1    
    89   43  168 1    
    90   44   45 am   BACKBONE|DICT|INTERRES
    91   44  169 1    
    92   45   46 2    
    93   45   47 1    
    94   47   48 1    
    95   47   49 1    
    96   47  170 1    
    97   48  171 1    
    98   48  172 1    
    99   48  173 1    
   100   49   50 am   BACKBONE|DICT|INTERRES
   101   49  174 1    
   102   50   51 2    
   103   50   52 1    
   104   52   53 1    
   105   52   54 1    
   106   52  175 1    
   107   53  176 1    
   108   53  177 1    
   109   53  178 1    
   110   54   55 am   BACKBONE|DICT|INTERRES
   111   54  179 1    
   112   55   56 2    
   113   55   57 1    
   114   57   58 1    
   115   57   59 1    
   116   57  180 1    
   117   58  181 1    
   118   58  182 1    
   119   58  183 1    
   120   59   60 am   BACKBONE|DICT|INTERRES
   121   59  184 1    
   122   60   61 2    
   123   60   62 1    
   124   62   63 1    
   125   62   64 1    
   126   62  185 1    
   127   63  186 1    
   128   63  187 1    
   129   63  188 1    
   130   64   65 am   BACKBONE|DICT|INTERRES
   131   64  189 1    
   132   65   66 2    
   133   67   68 2    
   134   67   69 am   BACKBONE|DICT|INTERRES
   135   69   70 1    
   136   69  190 1    
   137   70   71 1    
   138   70   72 1    
   139   70  191 1    
   140   71  192 1    
   141   71  193 1    
   142   71  194 1    
   143   72   73 2    
   144   72   74 am   BACKBONE|DICT|INTERRES
   145   74   75 1    
   146   74  195 1    
   147   75   76 1    
   148   75   77 1    
   149   75  196 1    
   150   76  197 1    
   151   76  198 1    
   152   76  199 1    
   153   77   78 2    
   154   77   79 am   BACKBONE|DICT|INTERRES
   155   79   80 1    
   156   79  200 1    
   157   80   81 1    
   158   80   82 1    
   159   80  201 1    
   160   81  202 1    
   161   81  203 1    
   162   81  204 1    
   163   82   83 2    
   164   82   84 am   BACKBONE|DICT|INTERRES
   165   84   85 1    
   166   84  205 1    
   167   85   86 1    
   168   85   87 1    
   169   85  206 1    
   170   86  207 1    
   171   86  208 1    
   172   86  209 1    
   173   87   88 2    
   174   87   89 am   BACKBONE|DICT|INTERRES
   175   89   90 1    
   176   89  210 1    
   177   90   91 1    
   178   90   92 1    
   179   90  211 1    
   180   91  212 1    
   181   91  213 1    
   182   91  214 1    
   183   92   93 2    
   184   92   94 am   BACKBONE|DICT|INTERRES
   185   94   95 1    
   186   94  215 1    
   187   95   96 1    
   188   95   97 1    
   189   95  216 1    
   190   96  217 1    
   191   96  218 1    
   192   96  219 1    
   193   97   98 2    
   194   97   99 am   BACKBONE|DICT|INTERRES
   195   99  100 1    
   196   99  220 1    
   197  100  101 1    
   198  100  102 1    
   199  100  221 1    
   200  101  222 1    
   201  101  223 1    
   202  101  224 1    
   203  102  103 2    
   204  102  104 am   BACKBONE|DICT|INTERRES
   205  104  105 1    
   206  104  225 1    
   207  105  106 1    
   208  105  107 1    
   209  105  226 1    
   210  106  227 1    
   211  106  228 1    
   212  106  229 1    
   213  107  108 2    
   214  107  109 am   BACKBONE|DICT|INTERRES
   215  109  110 1    
   216  109  230 1    
   217  110  111 1    
   218  110  112 1    
   219  110  231 1    
   220  111  232 1    
   221  111  233 1    
   222  111  234 1    
   223  112  113 2    
   224  112  114 am   BACKBONE|DICT|INTERRES
   225  114  115 1    
   226  114  235 1    
   227  115  116 1    
   228  115  117 1    
   229  115  236 1    
   230  116  237 1    
   231  116  238 1    
   232  116  239 1    
   233  117  118 2    
   234  117  119 am   BACKBONE|DICT|INTERRES
   235  119  120 1    
   236  119  240 1    
   237  120  121 1    
   238  120  124 1    
   239  120  241 1    
   240  121  122 am   BACKBONE|DICT|INTERRES
   241  121  123 2    
   242  122  242 1    
   243  122  243 1    
   244  124  125 1    
   245  124  244 1    
   246  124  245 1    
   247  125  126 1    
   248  126  246 1    
   249  126  247 1    
@<TRIPOS>SUBSTRUCTURE
     1 UNK         1 GROUP             0       ****    0 ROOT    
