@<TRIPOS>MOLECULE
3R540
247   249    1
SMALL
USER_CHARGES


@<TRIPOS>ATOM
      1 CA         -0.3666  -14.5398  -40.5036 C.3       0 UNK        -0.1800 
      2 C          -0.6829  -13.9590  -41.8745 C.2       0 UNK         0.5000 
      3 O          -1.4964  -13.0413  -41.9774 O.2       0 UNK        -0.5000 
      4 N          -0.0317  -14.4841  -42.9159 N.am      1 UNK        -0.5000 
      5 CA         -0.1490  -14.0614  -44.3116 C.3       1 UNK         0.1400 
      6 C6         -1.0402  -15.0098  -45.1569 C.3       23 UNK        -0.0398 
      7 S7         -2.7946  -14.9859  -44.6422 S.3       23 UNK        -0.2404 
      8 C8         -3.6801  -14.9023  -46.2322 C.3       23 UNK        -0.0205 
      9 C9         -3.7314  -16.2609  -46.9141 C.ar      23 UNK        -0.0193 
     10 C10        -4.8474  -17.0922  -46.7667 C.ar      23 UNK        -0.1150 
     11 C11        -4.8841  -18.3456  -47.3873 C.ar      23 UNK        -0.0193 
     12 C12        -3.7845  -18.7760  -48.1340 C.ar      23 UNK        -0.1150 
     13 C13        -2.6644  -17.9554  -48.2828 C.ar      23 UNK        -0.0193 
     14 C14        -2.6562  -16.6901  -47.6942 C.ar      23 UNK        -0.1150 
     15 C15        -1.4579  -18.4431  -49.0670 C.3       23 UNK        -0.0205 
     16 S16         0.0925  -18.4057  -48.1074 S.3       23 UNK        -0.2404 
     17 C17        -0.3452  -19.2276  -46.5391 C.3       23 UNK        -0.0398 
     18 CA         -0.1346  -20.7595  -46.5788 C.3       11 UNK         0.1400 
     19 N           0.2167  -21.2835  -45.2567 N.am      11 UNK        -0.5000 
     20 C           0.5721  -22.5492  -44.9969 C.2       10 UNK         0.5000 
     21 O           0.6892  -23.4219  -45.8552 O.2       10 UNK        -0.5000 
     22 CA          0.7726  -22.9126  -43.5174 C.3       10 UNK         0.1400 
     23 CB          2.1511  -22.4531  -43.0188 C.3       10 UNK        -0.1800 
     24 N          -0.2823  -22.3445  -42.6769 N.am      10 UNK        -0.5000 
     25 C          -1.5612  -22.7475  -42.7064 C.2       9 UNK         0.5000 
     26 O          -1.9703  -23.6685  -43.4122 O.2       9 UNK        -0.5000 
     27 CA         -2.5576  -21.9677  -41.8298 C.3       9 UNK         0.1400 
     28 CB         -2.5568  -22.5141  -40.3945 C.3       9 UNK        -0.1800 
     29 N          -2.2867  -20.5302  -41.8011 N.am      9 UNK        -0.5000 
     30 C          -2.3874  -19.7132  -42.8597 C.2       8 UNK         0.5000 
     31 O          -2.7289  -20.0813  -43.9820 O.2       8 UNK        -0.5000 
     32 CA         -1.9706  -18.2496  -42.6329 C.3       8 UNK         0.1400 
     33 CB         -3.1177  -17.4512  -41.9965 C.3       8 UNK        -0.1800 
     34 N          -0.7714  -18.1262  -41.7997 N.am      8 UNK        -0.5000 
     35 C           0.4284  -18.6210  -42.1282 C.2       7 UNK         0.5000 
     36 O           0.6467  -19.2660  -43.1574 O.2       7 UNK        -0.5000 
     37 CA          1.5685  -18.3885  -41.1212 C.3       7 UNK         0.1400 
     38 CB          1.7391  -19.6125  -40.2093 C.3       7 UNK        -0.1800 
     39 N           2.8302  -18.1185  -41.8090 N.am      7 UNK        -0.5000 
     40 C           3.0627  -17.0225  -42.5416 C.2       6 UNK         0.5000 
     41 O           2.2696  -16.0847  -42.6207 O.2       6 UNK        -0.5000 
     42 CA          4.3698  -16.9623  -43.3428 C.3       6 UNK         0.1400 
     43 CB          5.4294  -18.0005  -42.9168 C.3       6 UNK        -0.1800 
     44 N           4.0354  -17.1460  -44.7505 N.am      6 UNK        -0.5000 
     45 C           4.7007  -16.6182  -45.7832 C.2       5 UNK         0.5000 
     46 O           5.6631  -15.8607  -45.6605 O.2       5 UNK        -0.5000 
     47 CA          4.2287  -17.0135  -47.1903 C.3       5 UNK         0.1400 
     48 CB          3.5825  -18.4144  -47.2524 C.3       5 UNK        -0.1800 
     49 N           3.3123  -15.9984  -47.7029 N.am      5 UNK        -0.5000 
     50 C           3.1238  -15.7316  -49.0024 C.2       4 UNK         0.5000 
     51 O           3.7064  -16.3229  -49.9126 O.2       4 UNK        -0.5000 
     52 CA          2.1420  -14.6014  -49.3551 C.3       4 UNK         0.1400 
     53 CB          0.6878  -15.0782  -49.2329 C.3       4 UNK        -0.1800 
     54 N           2.3341  -13.4400  -48.4902 N.am      4 UNK        -0.5000 
     55 C           2.9909  -12.3244  -48.8364 C.2       3 UNK         0.5000 
     56 O           3.5077  -12.1484  -49.9405 O.2       3 UNK        -0.5000 
     57 CA          3.0805  -11.2038  -47.7793 C.3       3 UNK         0.1400 
     58 CB          1.9832  -10.1547  -48.0166 C.3       3 UNK        -0.1800 
     59 N           2.9691  -11.7020  -46.4082 N.am      3 UNK        -0.5000 
     60 C           3.9212  -12.4012  -45.7767 C.2       2 UNK         0.5000 
     61 O           5.0426  -12.5954  -46.2450 O.2       2 UNK        -0.5000 
     62 CA          3.5571  -13.0007  -44.4035 C.3       2 UNK         0.1400 
     63 CB          4.1639  -12.1640  -43.2676 C.3       2 UNK        -0.1800 
     64 N           2.1186  -13.1578  -44.1594 N.am      2 UNK        -0.5000 
     65 C           1.2852  -13.9401  -44.8611 C.2       1 UNK         0.5000 
     66 O           1.6278  -14.5580  -45.8711 O.2       1 UNK        -0.5000 
     67 C          -1.3608  -21.4831  -47.1762 C.2       11 UNK         0.5000 
     68 O          -1.3295  -21.8764  -48.3437 O.2       11 UNK        -0.5000 
     69 N          -2.3960  -21.6793  -46.3462 N.am      12 UNK        -0.5000 
     70 CA         -3.6169  -22.4149  -46.6681 C.3       12 UNK         0.1400 
     71 CB         -4.6043  -22.2970  -45.4960 C.3       12 UNK        -0.1800 
     72 C          -3.3498  -23.8906  -47.0074 C.2       12 UNK         0.5000 
     73 O          -3.8455  -24.3722  -48.0270 O.2       12 UNK        -0.5000 
     74 N          -2.5473  -24.5630  -46.1679 N.am      13 UNK        -0.5000 
     75 CA         -2.1368  -25.9585  -46.3361 C.3       13 UNK         0.1400 
     76 CB         -1.4194  -26.4405  -45.0663 C.3       13 UNK        -0.1800 
     77 C          -1.2529  -26.1832  -47.5757 C.2       13 UNK         0.5000 
     78 O          -1.4274  -27.1857  -48.2697 O.2       13 UNK        -0.5000 
     79 N          -0.3405  -25.2392  -47.8471 N.am      14 UNK        -0.5000 
     80 CA          0.4842  -25.2064  -49.0567 C.3       14 UNK         0.1400 
     81 CB          1.6057  -24.1710  -48.8767 C.3       14 UNK        -0.1800 
     82 C          -0.3285  -24.8911  -50.3270 C.2       14 UNK         0.5000 
     83 O           0.0875  -25.2818  -51.4183 O.2       14 UNK        -0.5000 
     84 N          -1.4580  -24.1872  -50.1537 N.am      15 UNK        -0.5000 
     85 CA         -2.3759  -23.6899  -51.1816 C.3       15 UNK         0.1400 
     86 CB         -3.0547  -24.8742  -51.9002 C.3       15 UNK        -0.1800 
     87 C          -1.6697  -22.6927  -52.1262 C.2       15 UNK         0.5000 
     88 O          -1.8307  -22.7533  -53.3463 O.2       15 UNK        -0.5000 
     89 N          -0.8395  -21.8312  -51.5260 N.am      16 UNK        -0.5000 
     90 CA          0.0645  -20.9133  -52.2120 C.3       16 UNK         0.1400 
     91 CB          1.2472  -20.6280  -51.2706 C.3       16 UNK        -0.1800 
     92 C          -0.6211  -19.6014  -52.6364 C.2       16 UNK         0.5000 
     93 O          -1.7052  -19.2768  -52.1498 O.2       16 UNK        -0.5000 
     94 N           0.0685  -18.8539  -53.5122 N.am      17 UNK        -0.5000 
     95 CA         -0.2060  -17.4693  -53.9282 C.3       17 UNK         0.1400 
     96 CB          0.0025  -16.5089  -52.7383 C.3       17 UNK        -0.1800 
     97 C          -1.5632  -17.2384  -54.6310 C.2       17 UNK         0.5000 
     98 O          -2.0236  -16.0975  -54.7065 O.2       17 UNK        -0.5000 
     99 N          -2.1720  -18.3066  -55.1532 N.am      18 UNK        -0.5000 
    100 CA        -3.4711  -18.3199  -55.8158 C.3       18 UNK         0.1400 
    101 CB        -4.5942  -18.1549  -54.7710 C.3       18 UNK        -0.1800 
    102 C         -3.6215  -19.6482  -56.5705 C.2       18 UNK         0.5000 
    103 O         -2.7727  -20.5356  -56.4356 O.2       18 UNK        -0.5000 
    104 N         -4.7248  -19.7897  -57.3159 N.am      19 UNK        -0.5000 
    105 CA        -5.1600  -21.0335  -57.9577 C.3       19 UNK         0.1400 
    106 CB        -6.1521  -20.6900  -59.0832 C.3       19 UNK        -0.1800 
    107 C         -5.7555  -22.0041  -56.9143 C.2       19 UNK         0.5000 
    108 O         -6.9586  -22.2737  -56.9239 O.2       19 UNK        -0.5000 
    109 N         -4.8960  -22.4525  -55.9909 N.am      20 UNK        -0.5000 
    110 CA        -5.1466  -23.2356  -54.7780 C.3       20 UNK         0.1400 
    111 CB        -5.7872  -24.6024  -55.0872 C.3       20 UNK        -0.1800 
    112 C         -5.9318  -22.4587  -53.7033 C.2       20 UNK         0.5000 
    113 O         -5.4317  -22.2870  -52.5896 O.2       20 UNK        -0.5000 
    114 N         -7.1328  -21.9894  -54.0687 N.am      21 UNK        -0.5000 
    115 CA        -8.0681  -21.1958  -53.2692 C.3       21 UNK         0.1400 
    116 CB        -7.5709  -19.7352  -53.1870 C.3       21 UNK        -0.1800 
    117 C         -8.3655  -21.8446  -51.8990 C.2       21 UNK         0.5000 
    118 O         -8.8649  -22.9706  -51.8595 O.2       21 UNK        -0.5000 
    119 N         -8.0529  -21.1310  -50.8134 N.am      22 UNK        -0.5000 
    120 CA        -8.1742  -21.5777  -49.4197 C.3       22 UNK         0.1400 
    121 C         -7.0416  -22.5274  -48.9260 C.2       22 UNK         0.5000 
    122 N         -6.0060  -22.8250  -49.7026 N.am      22 UNK        -0.7600 
    123 O         -7.1177  -23.0250  -47.8074 O.2       22 UNK        -0.5000 
    124 C124       -8.4001  -20.3754  -48.4603 C.3       23 UNK        -0.0398 
    125 S125       -7.2147  -19.0012  -48.6884 S.3       23 UNK        -0.2404 
    126 C126       -6.1090  -19.2368  -47.2667 C.3       23 UNK        -0.0205 
    127 H127       -0.1227  -13.7406  -39.8037 H         1 UNK         0.0600 
    128 H128        0.4810  -15.2238  -40.5415 H         1 UNK         0.0600 
    129 H129       -1.2298  -15.0817  -40.1176 H         1 UNK         0.0600 
    130 H130        0.7013  -15.1742  -42.7520 H         1 UNK         0.3000 
    131 H131       -0.5759  -13.0578  -44.3645 H         1 UNK         0.0600 
    132 H132       -0.9862  -14.7133  -46.2042 H         1 UNK         0.0800 
    133 H133       -0.6725  -16.0362  -45.1077 H         1 UNK         0.0800 
    134 H134       -3.2138  -14.1635  -46.8857 H         1 UNK         0.0800 
    135 H135       -4.6936  -14.5437  -46.0468 H         1 UNK         0.0800 
    136 H136       -5.6899  -16.7613  -46.1759 H         1 UNK         0.1150 
    137 H137       -3.8048  -19.7487  -48.6052 H         1 UNK         0.1150 
    138 H138       -1.7946  -16.0541  -47.8243 H         1 UNK         0.1150 
    139 H139       -1.6203  -19.4545  -49.4400 H         1 UNK         0.0800 
    140 H140       -1.3365  -17.8097  -49.9452 H         1 UNK         0.0800 
    141 H141       -1.3504  -18.9591  -46.2113 H         1 UNK         0.0800 
    142 H142        0.3156  -18.7862  -45.7924 H         1 UNK         0.0800 
    143 H143        0.7186  -20.9760  -47.2257 H         1 UNK         0.0600 
    144 H144        0.1803  -20.6255  -44.4836 H         1 UNK         0.3000 
    145 H145        0.7280  -24.0004  -43.4306 H         1 UNK         0.0600 
    146 H146        2.3098  -22.7386  -41.9789 H         1 UNK         0.0600 
    147 H147        2.9471  -22.9130  -43.6057 H         1 UNK         0.0600 
    148 H148        2.2746  -21.3729  -43.0958 H         1 UNK         0.0600 
    149 H149       -0.0359  -21.5487  -42.1087 H         1 UNK         0.3000 
    150 H150       -3.5549  -22.1137  -42.2497 H         1 UNK         0.0600 
    151 H151       -2.7744  -23.5830  -40.3843 H         1 UNK         0.0600 
    152 H152       -3.3164  -22.0236  -39.7854 H         1 UNK         0.0600 
    153 H153       -1.5912  -22.3709  -39.9078 H         1 UNK         0.0600 
    154 H154       -1.9912  -20.1398  -40.9188 H         1 UNK         0.3000 
    155 H155       -1.7480  -17.8131  -43.6088 H         1 UNK         0.0600 
    156 H156       -3.3861  -17.8384  -41.0130 H         1 UNK         0.0600 
    157 H157       -2.8510  -16.4006  -41.8820 H         1 UNK         0.0600 
    158 H158       -4.0107  -17.4904  -42.6220 H         1 UNK         0.0600 
    159 H159       -0.8787  -17.6275  -40.9290 H         1 UNK         0.3000 
    160 H160        1.3249  -17.5250  -40.4994 H         1 UNK         0.0600 
    161 H161        2.0149  -20.5034  -40.7731 H         1 UNK         0.0600 
    162 H162        0.8154  -19.8353  -39.6737 H         1 UNK         0.0600 
    163 H163        2.5125  -19.4395  -39.4606 H         1 UNK         0.0600 
    164 H164        3.5122  -18.8619  -41.8152 H         1 UNK         0.3000 
    165 H165        4.7832  -15.9639  -43.1873 H         1 UNK         0.0600 
    166 H166        6.3651  -17.8413  -43.4530 H         1 UNK         0.0600 
    167 H167        5.6550  -17.9212  -41.8525 H         1 UNK         0.0600 
    168 H168        5.1068  -19.0225  -43.1197 H         1 UNK         0.0600 
    169 H169        3.2213  -17.7157  -44.9343 H         1 UNK         0.3000 
    170 H170        5.1226  -17.0295  -47.8175 H         1 UNK         0.0600 
    171 H171        4.2563  -19.1742  -46.8546 H         1 UNK         0.0600 
    172 H172        2.6559  -18.4627  -46.6820 H         1 UNK         0.0600 
    173 H173        3.3512  -18.6967  -48.2797 H         1 UNK         0.0600 
    174 H174        2.7903  -15.4715  -47.0061 H         1 UNK         0.3000 
    175 H175        2.3113  -14.3275  -50.3987 H         1 UNK         0.0600 
    176 H176       -0.0112  -14.3017  -49.5433 H         1 UNK         0.0600 
    177 H177        0.4439  -15.3600  -48.2089 H         1 UNK         0.0600 
    178 H178        0.5096  -15.9484  -49.8641 H         1 UNK         0.0600 
    179 H179        1.9910  -13.5331  -47.5413 H         1 UNK         0.3000 
    180 H180        4.0507  -10.7156  -47.8941 H         1 UNK         0.0600 
    181 H181        0.9860  -10.5826  -47.9063 H         1 UNK         0.0600 
    182 H182        2.0522   -9.7385  -49.0226 H         1 UNK         0.0600 
    183 H183        2.0729   -9.3242  -47.3162 H         1 UNK         0.0600 
    184 H184        2.0845  -11.5664  -45.9421 H         1 UNK         0.3000 
    185 H185        4.0019  -13.9955  -44.3646 H         1 UNK         0.0600 
    186 H186        5.2416  -12.0531  -43.3954 H         1 UNK         0.0600 
    187 H187        3.7322  -11.1631  -43.2313 H         1 UNK         0.0600 
    188 H188        4.0010  -12.6374  -42.2991 H         1 UNK         0.0600 
    189 H189        1.7563  -12.7027  -43.3340 H         1 UNK         0.3000 
    190 H190       -2.3606  -21.2631  -45.4191 H         1 UNK         0.3000 
    191 H191       -4.0649  -21.9476  -47.5464 H         1 UNK         0.0600 
    192 H192       -4.2021  -22.7347  -44.5833 H         1 UNK         0.0600 
    193 H193       -5.5391  -22.8120  -45.7157 H         1 UNK         0.0600 
    194 H194       -4.8468  -21.2563  -45.2829 H         1 UNK         0.0600 
    195 H195       -2.2144  -24.0958  -45.3297 H         1 UNK         0.3000 
    196 H196       -3.0412  -26.5569  -46.4628 H         1 UNK         0.0600 
    197 H197       -1.1085  -27.4815  -45.1628 H         1 UNK         0.0600 
    198 H198       -2.0732  -26.3761  -44.1964 H         1 UNK         0.0600 
    199 H199       -0.5276  -25.8479  -44.8590 H         1 UNK         0.0600 
    200 H200       -0.2018  -24.4813  -47.1837 H         1 UNK         0.3000 
    201 H201        0.9412  -26.1893  -49.1879 H         1 UNK         0.0600 
    202 H202        2.2354  -24.4164  -48.0215 H         1 UNK         0.0600 
    203 H203        1.2053  -23.1684  -48.7212 H         1 UNK         0.0600 
    204 H204        2.2504  -24.1343  -49.7557 H         1 UNK         0.0600 
    205 H205       -1.6665  -23.8756  -49.2131 H         1 UNK         0.3000 
    206 H206       -3.1494  -23.1286  -50.6557 H         1 UNK         0.0600 
    207 H207       -3.9316  -24.5455  -52.4515 H         1 UNK         0.0600 
    208 H208       -2.3823  -25.3663  -52.6035 H         1 UNK         0.0600 
    209 H209       -3.3973  -25.6224  -51.1850 H         1 UNK         0.0600 
    210 H210       -0.8156  -21.8218  -50.5133 H         1 UNK         0.3000 
    211 H211        0.4477  -21.4031  -53.1098 H         1 UNK         0.0600 
    212 H212        0.9171  -20.1592  -50.3438 H         1 UNK         0.0600 
    213 H213        1.9758  -19.9612  -51.7330 H         1 UNK         0.0600 
    214 H214        1.7720  -21.5471  -51.0088 H         1 UNK         0.0600 
    215 H215        0.9319  -19.2349  -53.8735 H         1 UNK         0.3000 
    216 H216        0.5526  -17.2294  -54.6743 H         1 UNK         0.0600 
    217 H217       -0.0172  -15.4678  -53.0624 H         1 UNK         0.0600 
    218 H218        0.9662  -16.6776  -52.2573 H         1 UNK         0.0600 
    219 H219       -0.7759  -16.6297  -51.9849 H         1 UNK         0.0600 
    220 H220       -1.7273  -19.2145  -55.0957 H         1 UNK         0.3000 
    221 H221       -3.5131  -17.5056  -56.5418 H         1 UNK         0.0600 
    222 H222       -4.5851  -18.9707  -54.0465 H         1 UNK         0.0600 
    223 H223       -4.4960  -17.2207  -54.2184 H         1 UNK         0.0600 
    224 H224       -5.5770  -18.1407  -55.2421 H         1 UNK         0.0600 
    225 H225       -5.3797  -19.0223  -57.3591 H         1 UNK         0.3000 
    226 H226       -4.2963  -21.5239  -58.4119 H         1 UNK         0.0600 
    227 H227       -5.6898  -20.0476  -59.8328 H         1 UNK         0.0600 
    228 H228       -6.4901  -21.5924  -59.5943 H         1 UNK         0.0600 
    229 H229       -7.0360  -20.1772  -58.7015 H         1 UNK         0.0600 
    230 H230       -3.9499  -22.0881  -56.0612 H         1 UNK         0.3000 
    231 H231       -4.1561  -23.4285  -54.3703 H         1 UNK         0.0600 
    232 H232       -5.8705  -25.2028  -54.1805 H         1 UNK         0.0600 
    233 H233       -5.1830  -25.1676  -55.7966 H         1 UNK         0.0600 
    234 H234       -6.7899  -24.5054  -55.5036 H         1 UNK         0.0600 
    235 H235       -7.4207  -22.1821  -55.0236 H         1 UNK         0.3000 
    236 H236       -9.0135  -21.1918  -53.8133 H         1 UNK         0.0600 
    237 H237       -7.4569  -19.3118  -54.1845 H         1 UNK         0.0600 
    238 H238       -8.2818  -19.1019  -52.6546 H         1 UNK         0.0600 
    239 H239       -6.6065  -19.6570  -52.6833 H         1 UNK         0.0600 
    240 H240       -7.6202  -20.2267  -50.9358 H         1 UNK         0.3000 
    241 H241       -9.0785  -22.1864  -49.3606 H         1 UNK         0.0600 
    242 H242       -5.3058  -23.4579  -49.3388 H         1 UNK         0.3800 
    243 H243       -5.9302  -22.4742  -50.6519 H         1 UNK         0.3800 
    244 H244       -9.3950  -19.9667  -48.6414 H         1 UNK         0.0800 
    245 H245       -8.4100  -20.6941  -47.4164 H         1 UNK         0.0800 
    246 H246       -6.6473  -19.0277  -46.3410 H         1 UNK         0.0800 
    247 H247       -5.8027  -20.2811  -47.2223 H         1 UNK         0.0800 
@<TRIPOS>BOND
     1    1    2 1    
     2    1  127 1    
     3    1  128 1    
     4    1  129 1    
     5    2    3 2    
     6    2    4 am   BACKBONE|DICT|INTERRES
     7    4    5 1    
     8    4  130 1    
     9    5    6 1    
    10    5   65 1    
    11    5  131 1    
    12    6    7 1    
    13    6  132 1    
    14    6  133 1    
    15    7    8 1    
    16    8    9 1    
    17    8  134 1    
    18    8  135 1    
    19    9   10 ar   
    20    9   14 ar   
    21   10   11 ar   
    22   10  136 1    
    23   11   12 ar   
    24   11  126 1    
    25   12   13 ar   
    26   12  137 1    
    27   13   14 ar   
    28   13   15 1    
    29   14  138 1    
    30   15   16 1    
    31   15  139 1    
    32   15  140 1    
    33   16   17 1    
    34   17   18 1    
    35   17  141 1    
    36   17  142 1    
    37   18   19 1    
    38   18   67 1    
    39   18  143 1    
    40   19   20 am   BACKBONE|DICT|INTERRES
    41   19  144 1    
    42   20   21 2    
    43   20   22 1    
    44   22   23 1    
    45   22   24 1    
    46   22  145 1    
    47   23  146 1    
    48   23  147 1    
    49   23  148 1    
    50   24   25 am   BACKBONE|DICT|INTERRES
    51   24  149 1    
    52   25   26 2    
    53   25   27 1    
    54   27   28 1    
    55   27   29 1    
    56   27  150 1    
    57   28  151 1    
    58   28  152 1    
    59   28  153 1    
    60   29   30 am   BACKBONE|DICT|INTERRES
    61   29  154 1    
    62   30   31 2    
    63   30   32 1    
    64   32   33 1    
    65   32   34 1    
    66   32  155 1    
    67   33  156 1    
    68   33  157 1    
    69   33  158 1    
    70   34   35 am   BACKBONE|DICT|INTERRES
    71   34  159 1    
    72   35   36 2    
    73   35   37 1    
    74   37   38 1    
    75   37   39 1    
    76   37  160 1    
    77   38  161 1    
    78   38  162 1    
    79   38  163 1    
    80   39   40 am   BACKBONE|DICT|INTERRES
    81   39  164 1    
    82   40   41 2    
    83   40   42 1    
    84   42   43 1    
    85   42   44 1    
    86   42  165 1    
    87   43  166 1    
    88   43  167 1    
    89   43  168 1    
    90   44   45 am   BACKBONE|DICT|INTERRES
    91   44  169 1    
    92   45   46 2    
    93   45   47 1    
    94   47   48 1    
    95   47   49 1    
    96   47  170 1    
    97   48  171 1    
    98   48  172 1    
    99   48  173 1    
   100   49   50 am   BACKBONE|DICT|INTERRES
   101   49  174 1    
   102   50   51 2    
   103   50   52 1    
   104   52   53 1    
   105   52   54 1    
   106   52  175 1    
   107   53  176 1    
   108   53  177 1    
   109   53  178 1    
   110   54   55 am   BACKBONE|DICT|INTERRES
   111   54  179 1    
   112   55   56 2    
   113   55   57 1    
   114   57   58 1    
   115   57   59 1    
   116   57  180 1    
   117   58  181 1    
   118   58  182 1    
   119   58  183 1    
   120   59   60 am   BACKBONE|DICT|INTERRES
   121   59  184 1    
   122   60   61 2    
   123   60   62 1    
   124   62   63 1    
   125   62   64 1    
   126   62  185 1    
   127   63  186 1    
   128   63  187 1    
   129   63  188 1    
   130   64   65 am   BACKBONE|DICT|INTERRES
   131   64  189 1    
   132   65   66 2    
   133   67   68 2    
   134   67   69 am   BACKBONE|DICT|INTERRES
   135   69   70 1    
   136   69  190 1    
   137   70   71 1    
   138   70   72 1    
   139   70  191 1    
   140   71  192 1    
   141   71  193 1    
   142   71  194 1    
   143   72   73 2    
   144   72   74 am   BACKBONE|DICT|INTERRES
   145   74   75 1    
   146   74  195 1    
   147   75   76 1    
   148   75   77 1    
   149   75  196 1    
   150   76  197 1    
   151   76  198 1    
   152   76  199 1    
   153   77   78 2    
   154   77   79 am   BACKBONE|DICT|INTERRES
   155   79   80 1    
   156   79  200 1    
   157   80   81 1    
   158   80   82 1    
   159   80  201 1    
   160   81  202 1    
   161   81  203 1    
   162   81  204 1    
   163   82   83 2    
   164   82   84 am   BACKBONE|DICT|INTERRES
   165   84   85 1    
   166   84  205 1    
   167   85   86 1    
   168   85   87 1    
   169   85  206 1    
   170   86  207 1    
   171   86  208 1    
   172   86  209 1    
   173   87   88 2    
   174   87   89 am   BACKBONE|DICT|INTERRES
   175   89   90 1    
   176   89  210 1    
   177   90   91 1    
   178   90   92 1    
   179   90  211 1    
   180   91  212 1    
   181   91  213 1    
   182   91  214 1    
   183   92   93 2    
   184   92   94 am   BACKBONE|DICT|INTERRES
   185   94   95 1    
   186   94  215 1    
   187   95   96 1    
   188   95   97 1    
   189   95  216 1    
   190   96  217 1    
   191   96  218 1    
   192   96  219 1    
   193   97   98 2    
   194   97   99 am   BACKBONE|DICT|INTERRES
   195   99  100 1    
   196   99  220 1    
   197  100  101 1    
   198  100  102 1    
   199  100  221 1    
   200  101  222 1    
   201  101  223 1    
   202  101  224 1    
   203  102  103 2    
   204  102  104 am   BACKBONE|DICT|INTERRES
   205  104  105 1    
   206  104  225 1    
   207  105  106 1    
   208  105  107 1    
   209  105  226 1    
   210  106  227 1    
   211  106  228 1    
   212  106  229 1    
   213  107  108 2    
   214  107  109 am   BACKBONE|DICT|INTERRES
   215  109  110 1    
   216  109  230 1    
   217  110  111 1    
   218  110  112 1    
   219  110  231 1    
   220  111  232 1    
   221  111  233 1    
   222  111  234 1    
   223  112  113 2    
   224  112  114 am   BACKBONE|DICT|INTERRES
   225  114  115 1    
   226  114  235 1    
   227  115  116 1    
   228  115  117 1    
   229  115  236 1    
   230  116  237 1    
   231  116  238 1    
   232  116  239 1    
   233  117  118 2    
   234  117  119 am   BACKBONE|DICT|INTERRES
   235  119  120 1    
   236  119  240 1    
   237  120  121 1    
   238  120  124 1    
   239  120  241 1    
   240  121  122 am   BACKBONE|DICT|INTERRES
   241  121  123 2    
   242  122  242 1    
   243  122  243 1    
   244  124  125 1    
   245  124  244 1    
   246  124  245 1    
   247  125  126 1    
   248  126  246 1    
   249  126  247 1    
@<TRIPOS>SUBSTRUCTURE
     1 UNK         1 GROUP             0       ****    0 ROOT    
