@<TRIPOS>MOLECULE
3R540
247   249    1
SMALL
USER_CHARGES


@<TRIPOS>ATOM
      1 CA         -6.2547  -16.9688  -43.7939 C.3       0 UNK        -0.1800 
      2 C          -5.3132  -15.7819  -43.6520 C.2       0 UNK         0.5000 
      3 O          -5.1512  -15.2580  -42.5492 O.2       0 UNK        -0.5000 
      4 N          -4.7083  -15.3453  -44.7636 N.am      1 UNK        -0.5000 
      5 CA         -3.7508  -14.2339  -44.8107 C.3       1 UNK         0.1400 
      6 C6         -3.4722  -13.7471  -46.2540 C.3       23 UNK        -0.0398 
      7 S7         -4.9934  -13.3097  -47.1673 S.3       23 UNK        -0.2404 
      8 C8         -4.4844  -13.5539  -48.9046 C.3       23 UNK        -0.0205 
      9 C9         -3.8921  -14.9330  -49.1684 C.ar      23 UNK        -0.0193 
     10 C10        -2.6202  -15.0534  -49.7356 C.ar      23 UNK        -0.1150 
     11 C11        -2.0555  -16.3133  -49.9608 C.ar      23 UNK        -0.0193 
     12 C12        -2.7597  -17.4578  -49.5763 C.ar      23 UNK        -0.1150 
     13 C13        -4.0248  -17.3498  -48.9921 C.ar      23 UNK        -0.0193 
     14 C14        -4.5971  -16.0873  -48.8187 C.ar      23 UNK        -0.1150 
     15 C15        -4.7717  -18.5903  -48.5300 C.3       23 UNK        -0.0205 
     16 S16        -5.0091  -18.6051  -46.7222 S.3       23 UNK        -0.2404 
     17 C17        -3.3129  -18.8913  -46.1031 C.3       23 UNK        -0.0398 
     18 CA         -2.9853  -20.4006  -46.0065 C.3       11 UNK         0.1400 
     19 N          -1.5663  -20.6919  -46.2380 N.am      11 UNK        -0.5000 
     20 C          -1.0893  -21.8914  -46.6005 C.2       10 UNK         0.5000 
     21 O          -1.7890  -22.9036  -46.6667 O.2       10 UNK        -0.5000 
     22 CA          0.4091  -21.9823  -46.9296 C.3       10 UNK         0.1400 
     23 CB          0.7370  -21.2451  -48.2372 C.3       10 UNK        -0.1800 
     24 N           1.2376  -21.4638  -45.8455 N.am      10 UNK        -0.5000 
     25 C           1.3971  -22.0798  -44.6661 C.2       9 UNK         0.5000 
     26 O           0.8922  -23.1678  -44.3888 O.2       9 UNK        -0.5000 
     27 CA          2.2498  -21.3549  -43.6106 C.3       9 UNK         0.1400 
     28 CB          3.7442  -21.6173  -43.8499 C.3       9 UNK        -0.1800 
     29 N           2.0059  -19.9133  -43.5696 N.am      9 UNK        -0.5000 
     30 C           0.8384  -19.3471  -43.2308 C.2       8 UNK         0.5000 
     31 O          -0.1634  -19.9822  -42.9011 O.2       8 UNK        -0.5000 
     32 CA          0.7724  -17.8116  -43.3085 C.3       8 UNK         0.1400 
     33 CB          1.5097  -17.1766  -42.1182 C.3       8 UNK        -0.1800 
     34 N           1.3191  -17.2886  -44.5612 N.am      8 UNK        -0.5000 
     35 C           0.8482  -17.5791  -45.7833 C.2       7 UNK         0.5000 
     36 O          -0.1161  -18.3107  -45.9985 O.2       7 UNK        -0.5000 
     37 CA          1.6335  -17.0109  -46.9753 C.3       7 UNK         0.1400 
     38 CB          1.2865  -15.5320  -47.2122 C.3       7 UNK        -0.1800 
     39 N           3.0771  -17.1721  -46.7967 N.am      7 UNK        -0.5000 
     40 C           3.7055  -18.3576  -46.7707 C.2       6 UNK         0.5000 
     41 O           3.1391  -19.4378  -46.9332 O.2       6 UNK        -0.5000 
     42 CA          5.2141  -18.3334  -46.4677 C.3       6 UNK         0.1400 
     43 CB          6.0173  -18.0054  -47.7352 C.3       6 UNK        -0.1800 
     44 N           5.5565  -17.3788  -45.4131 N.am      6 UNK        -0.5000 
     45 C           5.1750  -17.4939  -44.1329 C.2       5 UNK         0.5000 
     46 O           4.5256  -18.4423  -43.6942 O.2       5 UNK        -0.5000 
     47 CA          5.5341  -16.3225  -43.1997 C.3       5 UNK         0.1400 
     48 CB          6.9469  -16.5013  -42.6246 C.3       5 UNK        -0.1800 
     49 N           5.4345  -15.0150  -43.8562 N.am      5 UNK        -0.5000 
     50 C           4.3005  -14.5094  -44.3563 C.2       4 UNK         0.5000 
     51 O           3.2141  -15.0973  -44.3203 O.2       4 UNK        -0.5000 
     52 CA          4.3998  -13.1448  -45.0496 C.3       4 UNK         0.1400 
     53 CB          4.9660  -13.2880  -46.4727 C.3       4 UNK        -0.1800 
     54 N           3.0553  -12.5952  -45.1129 N.am      4 UNK        -0.5000 
     55 C           2.7112  -11.3050  -45.0925 C.2       3 UNK         0.5000 
     56 O           3.5211  -10.3777  -45.1211 O.2       3 UNK        -0.5000 
     57 CA          1.1999  -11.0016  -45.0147 C.3       3 UNK         0.1400 
     58 CB          0.6562  -10.6274  -46.4025 C.3       3 UNK        -0.1800 
     59 N           0.4073  -12.1177  -44.4850 N.am      3 UNK        -0.5000 
     60 C           0.4405  -12.5552  -43.2173 C.2       2 UNK         0.5000 
     61 O           1.1150  -12.0279  -42.3320 O.2       2 UNK        -0.5000 
     62 CA         -0.4383  -13.7782  -42.9063 C.3       2 UNK         0.1400 
     63 CB         -0.6241  -14.0381  -41.3996 C.3       2 UNK        -0.1800 
     64 N          -1.7426  -13.6309  -43.5498 N.am      2 UNK        -0.5000 
     65 C          -2.4210  -14.6234  -44.1341 C.2       1 UNK         0.5000 
     66 O          -2.0193  -15.7870  -44.1939 O.2       1 UNK        -0.5000 
     67 C          -3.5700  -21.0817  -44.7480 C.2       11 UNK         0.5000 
     68 O          -4.7898  -21.2191  -44.6534 O.2       11 UNK        -0.5000 
     69 N          -2.7127  -21.6109  -43.8622 N.am      12 UNK        -0.5000 
     70 CA         -3.0909  -22.5533  -42.8022 C.3       12 UNK         0.1400 
     71 CB         -1.8613  -22.8620  -41.9358 C.3       12 UNK        -0.1800 
     72 C          -3.7189  -23.8631  -43.3358 C.2       12 UNK         0.5000 
     73 O          -4.5064  -24.4869  -42.6241 O.2       12 UNK        -0.5000 
     74 N          -3.3921  -24.2307  -44.5830 N.am      13 UNK        -0.5000 
     75 CA         -3.9889  -25.3275  -45.3464 C.3       13 UNK         0.1400 
     76 CB         -2.8762  -26.3223  -45.7216 C.3       13 UNK        -0.1800 
     77 C          -4.7230  -24.7856  -46.5933 C.2       13 UNK         0.5000 
     78 O          -4.8061  -25.4802  -47.6090 O.2       13 UNK        -0.5000 
     79 N          -5.1969  -23.5289  -46.5212 N.am      14 UNK        -0.5000 
     80 CA         -5.8763  -22.7535  -47.5719 C.3       14 UNK         0.1400 
     81 CB         -7.2546  -23.3690  -47.8877 C.3       14 UNK        -0.1800 
     82 C          -5.0373  -22.5438  -48.8524 C.2       14 UNK         0.5000 
     83 O          -5.5924  -22.2059  -49.8991 O.2       14 UNK        -0.5000 
     84 N          -3.7208  -22.7862  -48.7640 N.am      15 UNK        -0.5000 
     85 CA         -2.7416  -22.8253  -49.8498 C.3       15 UNK         0.1400 
     86 CB         -2.4406  -21.4001  -50.3479 C.3       15 UNK        -0.1800 
     87 C          -3.1420  -23.8024  -50.9722 C.2       15 UNK         0.5000 
     88 O          -2.9201  -23.5076  -52.1465 O.2       15 UNK        -0.5000 
     89 N          -3.7645  -24.9297  -50.5909 N.am      16 UNK        -0.5000 
     90 CA         -4.3606  -25.9393  -51.4744 C.3       16 UNK         0.1400 
     91 CB         -3.2658  -26.6843  -52.2678 C.3       16 UNK        -0.1800 
     92 C          -5.4742  -25.3534  -52.3733 C.2       16 UNK         0.5000 
     93 O          -5.5752  -25.7132  -53.5463 O.2       16 UNK        -0.5000 
     94 N          -6.2709  -24.4416  -51.7938 N.am      17 UNK        -0.5000 
     95 CA         -7.2866  -23.5998  -52.4342 C.3       17 UNK         0.1400 
     96 CB         -8.4178  -24.4443  -53.0587 C.3       17 UNK        -0.1800 
     97 C          -6.6493  -22.5902  -53.4114 C.2       17 UNK         0.5000 
     98 O          -7.0825  -22.4772  -54.5595 O.2       17 UNK        -0.5000 
     99 N          -5.6230  -21.8807  -52.9156 N.am      18 UNK        -0.5000 
    100 CA        -4.8080  -20.8779  -53.6135 C.3       18 UNK         0.1400 
    101 CB        -5.6271  -19.5963  -53.8676 C.3       18 UNK        -0.1800 
    102 C         -4.1270  -21.4301  -54.8848 C.2       18 UNK         0.5000 
    103 O         -4.2326  -20.8357  -55.9601 O.2       18 UNK        -0.5000 
    104 N         -3.4581  -22.5783  -54.7325 N.am      19 UNK        -0.5000 
    105 CA        -2.7300  -23.2788  -55.7901 C.3       19 UNK         0.1400 
    106 CB        -3.4176  -24.6228  -56.0730 C.3       19 UNK        -0.1800 
    107 C         -1.2546  -23.4956  -55.4159 C.2       19 UNK         0.5000 
    108 O         -0.3985  -23.4400  -56.2995 O.2       19 UNK        -0.5000 
    109 N         -0.9691  -23.7242  -54.1256 N.am      20 UNK        -0.5000 
    110 CA         0.3865  -23.8879  -53.5940 C.3       20 UNK         0.1400 
    111 CB         0.3178  -24.6296  -52.2498 C.3       20 UNK        -0.1800 
    112 C          1.1096  -22.5394  -53.4235 C.2       20 UNK         0.5000 
    113 O          2.3372  -22.4904  -53.5079 O.2       20 UNK        -0.5000 
    114 N          0.3340  -21.4743  -53.1997 N.am      21 UNK        -0.5000 
    115 CA         0.7752  -20.0921  -53.0920 C.3       21 UNK         0.1400 
    116 CB         1.2736  -19.8018  -51.6650 C.3       21 UNK        -0.1800 
    117 C         -0.4213  -19.2034  -53.4479 C.2       21 UNK         0.5000 
    118 O         -1.5578  -19.5740  -53.1446 O.2       21 UNK        -0.5000 
    119 N         -0.1447  -18.0534  -54.0729 N.am      22 UNK        -0.5000 
    120 CA        -1.1306  -17.0221  -54.4541 C.3       22 UNK         0.1400 
    121 C         -2.1957  -17.4767  -55.5021 C.2       22 UNK         0.5000 
    122 N         -1.9676  -18.5494  -56.2490 N.am      22 UNK        -0.7600 
    123 O         -3.2297  -16.8347  -55.6663 O.2       22 UNK        -0.5000 
    124 C124       -1.7697  -16.3232  -53.2212 C.3       23 UNK        -0.0398 
    125 S125       -0.5251  -15.5092  -52.1585 S.3       23 UNK        -0.2404 
    126 C126       -0.6793  -16.4462  -50.6019 C.3       23 UNK        -0.0205 
    127 H127       -7.0700  -16.8978  -43.0738 H         1 UNK         0.0600 
    128 H128       -5.7174  -17.9000  -43.6131 H         1 UNK         0.0600 
    129 H129       -6.6930  -17.0092  -44.7911 H         1 UNK         0.0600 
    130 H130       -4.8618  -15.8273  -45.6377 H         1 UNK         0.3000 
    131 H131       -4.1867  -13.4024  -44.2523 H         1 UNK         0.0600 
    132 H132       -2.8295  -12.8651  -46.2442 H         1 UNK         0.0800 
    133 H133       -2.9209  -14.5156  -46.7968 H         1 UNK         0.0800 
    134 H134       -5.3519  -13.4132  -49.5504 H         1 UNK         0.0800 
    135 H135       -3.7724  -12.7709  -49.1700 H         1 UNK         0.0800 
    136 H136       -2.0674  -14.1659  -50.0097 H         1 UNK         0.1150 
    137 H137       -2.3190  -18.4324  -49.7267 H         1 UNK         0.1150 
    138 H138       -5.5774  -16.0019  -48.3710 H         1 UNK         0.1150 
    139 H139       -5.7482  -18.6176  -49.0154 H         1 UNK         0.0800 
    140 H140       -4.2525  -19.4988  -48.8363 H         1 UNK         0.0800 
    141 H141       -3.1846  -18.3941  -45.1397 H         1 UNK         0.0800 
    142 H142       -2.6225  -18.3918  -46.7828 H         1 UNK         0.0800 
    143 H143       -3.4985  -20.8749  -46.8423 H         1 UNK         0.0600 
    144 H144       -0.9304  -19.8978  -46.1629 H         1 UNK         0.3000 
    145 H145        0.6552  -23.0367  -47.0721 H         1 UNK         0.0600 
    146 H146        1.7941  -21.3391  -48.4864 H         1 UNK         0.0600 
    147 H147        0.1750  -21.6622  -49.0722 H         1 UNK         0.0600 
    148 H148        0.5042  -20.1812  -48.1760 H         1 UNK         0.0600 
    149 H149        1.7271  -20.5919  -46.0200 H         1 UNK         0.3000 
    150 H150        1.9848  -21.7645  -42.6337 H         1 UNK         0.0600 
    151 H151        3.9546  -22.6870  -43.8803 H         1 UNK         0.0600 
    152 H152        4.3516  -21.1892  -43.0523 H         1 UNK         0.0600 
    153 H153        4.0814  -21.1876  -44.7940 H         1 UNK         0.0600 
    154 H154        2.7972  -19.3147  -43.7895 H         1 UNK         0.3000 
    155 H155       -0.2776  -17.5198  -43.2567 H         1 UNK         0.0600 
    156 H156        1.0502  -17.4733  -41.1747 H         1 UNK         0.0600 
    157 H157        1.4862  -16.0892  -42.1643 H         1 UNK         0.0600 
    158 H158        2.5560  -17.4795  -42.0818 H         1 UNK         0.0600 
    159 H159        2.1102  -16.6561  -44.4835 H         1 UNK         0.3000 
    160 H160        1.3402  -17.5723  -47.8653 H         1 UNK         0.0600 
    161 H161        1.5446  -14.9095  -46.3568 H         1 UNK         0.0600 
    162 H162        0.2170  -15.4099  -47.3907 H         1 UNK         0.0600 
    163 H163        1.8089  -15.1380  -48.0839 H         1 UNK         0.0600 
    164 H164        3.6086  -16.3380  -46.6018 H         1 UNK         0.3000 
    165 H165        5.5018  -19.3311  -46.1291 H         1 UNK         0.0600 
    166 H166        7.0896  -18.0636  -47.5480 H         1 UNK         0.0600 
    167 H167        5.7893  -18.7120  -48.5345 H         1 UNK         0.0600 
    168 H168        5.7950  -17.0048  -48.1080 H         1 UNK         0.0600 
    169 H169        6.0902  -16.5668  -45.6852 H         1 UNK         0.3000 
    170 H170        4.8245  -16.3339  -42.3697 H         1 UNK         0.0600 
    171 H171        7.0416  -17.4609  -42.1145 H         1 UNK         0.0600 
    172 H172        7.7081  -16.4676  -43.4050 H         1 UNK         0.0600 
    173 H173        7.1774  -15.7238  -41.8961 H         1 UNK         0.0600 
    174 H174        6.2872  -14.4782  -43.9257 H         1 UNK         0.3000 
    175 H175        5.0407  -12.4931  -44.4521 H         1 UNK         0.0600 
    176 H176        4.3462  -13.9406  -47.0890 H         1 UNK         0.0600 
    177 H177        5.0261  -12.3200  -46.9705 H         1 UNK         0.0600 
    178 H178        5.9731  -13.7060  -46.4569 H         1 UNK         0.0600 
    179 H179        2.3307  -13.2942  -45.0184 H         1 UNK         0.3000 
    180 H180        1.0704  -10.1442  -44.3509 H         1 UNK         0.0600 
    181 H181        0.7482  -11.4549  -47.1073 H         1 UNK         0.0600 
    182 H182        1.2006   -9.7792  -46.8197 H         1 UNK         0.0600 
    183 H183       -0.3950  -10.3432  -46.3518 H         1 UNK         0.0600 
    184 H184       -0.1793  -12.6044  -45.1462 H         1 UNK         0.3000 
    185 H185        0.0874  -14.6315  -43.3389 H         1 UNK         0.0600 
    186 H186        0.3364  -14.1714  -40.9006 H         1 UNK         0.0600 
    187 H187       -1.1393  -13.2104  -40.9110 H         1 UNK         0.0600 
    188 H188       -1.2054  -14.9441  -41.2270 H         1 UNK         0.0600 
    189 H189       -2.1278  -12.6958  -43.5473 H         1 UNK         0.3000 
    190 H190       -1.7241  -21.4233  -43.9711 H         1 UNK         0.3000 
    191 H191       -3.8380  -22.0640  -42.1741 H         1 UNK         0.0600 
    192 H192       -1.0672  -23.3297  -42.5181 H         1 UNK         0.0600 
    193 H193       -1.4580  -21.9556  -41.4842 H         1 UNK         0.0600 
    194 H194       -2.1164  -23.5426  -41.1225 H         1 UNK         0.0600 
    195 H195       -2.7292  -23.6613  -45.1012 H         1 UNK         0.3000 
    196 H196       -4.7334  -25.8542  -44.7468 H         1 UNK         0.0600 
    197 H197       -2.3637  -26.6917  -44.8333 H         1 UNK         0.0600 
    198 H198       -2.1303  -25.8616  -46.3708 H         1 UNK         0.0600 
    199 H199       -3.2807  -27.1895  -46.2449 H         1 UNK         0.0600 
    200 H200       -5.0713  -23.0287  -45.6479 H         1 UNK         0.3000 
    201 H201       -6.0444  -21.7585  -47.1577 H         1 UNK         0.0600 
    202 H202       -7.8284  -22.7274  -48.5577 H         1 UNK         0.0600 
    203 H203       -7.8456  -23.4959  -46.9807 H         1 UNK         0.0600 
    204 H204       -7.1640  -24.3438  -48.3678 H         1 UNK         0.0600 
    205 H205       -3.3449  -23.0497  -47.8589 H         1 UNK         0.3000 
    206 H206       -1.8214  -23.2283  -49.4258 H         1 UNK         0.0600 
    207 H207       -2.0864  -20.7718  -49.5318 H         1 UNK         0.0600 
    208 H208       -3.3218  -20.9229  -50.7736 H         1 UNK         0.0600 
    209 H209       -1.6634  -21.4054  -51.1111 H         1 UNK         0.0600 
    210 H210       -3.9267  -25.0726  -49.5997 H         1 UNK         0.3000 
    211 H211       -4.8481  -26.6665  -50.8234 H         1 UNK         0.0600 
    212 H212       -2.5110  -27.0999  -51.6004 H         1 UNK         0.0600 
    213 H213       -3.6896  -27.5146  -52.8336 H         1 UNK         0.0600 
    214 H214       -2.7592  -26.0314  -52.9781 H         1 UNK         0.0600 
    215 H215       -6.0558  -24.1802  -50.8409 H         1 UNK         0.3000 
    216 H216       -7.7331  -23.0060  -51.6351 H         1 UNK         0.0600 
    217 H217       -9.2322  -23.8054  -53.4017 H         1 UNK         0.0600 
    218 H218       -8.0747  -25.0197  -53.9186 H         1 UNK         0.0600 
    219 H219       -8.8359  -25.1414  -52.3327 H         1 UNK         0.0600 
    220 H220       -5.3749  -22.0464  -51.9457 H         1 UNK         0.3000 
    221 H221       -3.9993  -20.6123  -52.9343 H         1 UNK         0.0600 
    222 H222       -6.4498  -19.7714  -54.5612 H         1 UNK         0.0600 
    223 H223       -6.0452  -19.2064  -52.9396 H         1 UNK         0.0600 
    224 H224       -4.9989  -18.8129  -54.2936 H         1 UNK         0.0600 
    225 H225       -3.4154  -22.9852  -53.8009 H         1 UNK         0.3000 
    226 H226       -2.7418  -22.6932  -56.7114 H         1 UNK         0.0600 
    227 H227       -4.4577  -24.4782  -56.3658 H         1 UNK         0.0600 
    228 H228       -2.9194  -25.1544  -56.8845 H         1 UNK         0.0600 
    229 H229       -3.4064  -25.2727  -55.1980 H         1 UNK         0.0600 
    230 H230       -1.7223  -23.7396  -53.4421 H         1 UNK         0.3000 
    231 H231        0.9666  -24.4976  -54.2900 H         1 UNK         0.0600 
    232 H232        1.3189  -24.8500  -51.8773 H         1 UNK         0.0600 
    233 H233       -0.2097  -25.5787  -52.3463 H         1 UNK         0.0600 
    234 H234       -0.1889  -24.0376  -51.4877 H         1 UNK         0.0600 
    235 H235       -0.6718  -21.5871  -53.1828 H         1 UNK         0.3000 
    236 H236        1.5798  -19.9131  -53.8083 H         1 UNK         0.0600 
    237 H237        2.0986  -20.4585  -51.3888 H         1 UNK         0.0600 
    238 H238        1.6329  -18.7758  -51.5789 H         1 UNK         0.0600 
    239 H239        0.4797  -19.9349  -50.9295 H         1 UNK         0.0600 
    240 H240        0.8165  -17.8324  -54.2897 H         1 UNK         0.3000 
    241 H241       -0.5558  -16.2613  -54.9832 H         1 UNK         0.0600 
    242 H242       -2.6764  -18.8604  -56.8951 H         1 UNK         0.3800 
    243 H243       -1.1227  -19.0839  -56.1352 H         1 UNK         0.3800 
    244 H244       -2.4666  -15.5456  -53.5374 H         1 UNK         0.0800 
    245 H245       -2.3603  -17.0348  -52.6429 H         1 UNK         0.0800 
    246 H246        0.0725  -16.0863  -49.8996 H         1 UNK         0.0800 
    247 H247       -0.4441  -17.4926  -50.7984 H         1 UNK         0.0800 
@<TRIPOS>BOND
     1    1    2 1    
     2    1  127 1    
     3    1  128 1    
     4    1  129 1    
     5    2    3 2    
     6    2    4 am   BACKBONE|DICT|INTERRES
     7    4    5 1    
     8    4  130 1    
     9    5    6 1    
    10    5   65 1    
    11    5  131 1    
    12    6    7 1    
    13    6  132 1    
    14    6  133 1    
    15    7    8 1    
    16    8    9 1    
    17    8  134 1    
    18    8  135 1    
    19    9   10 ar   
    20    9   14 ar   
    21   10   11 ar   
    22   10  136 1    
    23   11   12 ar   
    24   11  126 1    
    25   12   13 ar   
    26   12  137 1    
    27   13   14 ar   
    28   13   15 1    
    29   14  138 1    
    30   15   16 1    
    31   15  139 1    
    32   15  140 1    
    33   16   17 1    
    34   17   18 1    
    35   17  141 1    
    36   17  142 1    
    37   18   19 1    
    38   18   67 1    
    39   18  143 1    
    40   19   20 am   BACKBONE|DICT|INTERRES
    41   19  144 1    
    42   20   21 2    
    43   20   22 1    
    44   22   23 1    
    45   22   24 1    
    46   22  145 1    
    47   23  146 1    
    48   23  147 1    
    49   23  148 1    
    50   24   25 am   BACKBONE|DICT|INTERRES
    51   24  149 1    
    52   25   26 2    
    53   25   27 1    
    54   27   28 1    
    55   27   29 1    
    56   27  150 1    
    57   28  151 1    
    58   28  152 1    
    59   28  153 1    
    60   29   30 am   BACKBONE|DICT|INTERRES
    61   29  154 1    
    62   30   31 2    
    63   30   32 1    
    64   32   33 1    
    65   32   34 1    
    66   32  155 1    
    67   33  156 1    
    68   33  157 1    
    69   33  158 1    
    70   34   35 am   BACKBONE|DICT|INTERRES
    71   34  159 1    
    72   35   36 2    
    73   35   37 1    
    74   37   38 1    
    75   37   39 1    
    76   37  160 1    
    77   38  161 1    
    78   38  162 1    
    79   38  163 1    
    80   39   40 am   BACKBONE|DICT|INTERRES
    81   39  164 1    
    82   40   41 2    
    83   40   42 1    
    84   42   43 1    
    85   42   44 1    
    86   42  165 1    
    87   43  166 1    
    88   43  167 1    
    89   43  168 1    
    90   44   45 am   BACKBONE|DICT|INTERRES
    91   44  169 1    
    92   45   46 2    
    93   45   47 1    
    94   47   48 1    
    95   47   49 1    
    96   47  170 1    
    97   48  171 1    
    98   48  172 1    
    99   48  173 1    
   100   49   50 am   BACKBONE|DICT|INTERRES
   101   49  174 1    
   102   50   51 2    
   103   50   52 1    
   104   52   53 1    
   105   52   54 1    
   106   52  175 1    
   107   53  176 1    
   108   53  177 1    
   109   53  178 1    
   110   54   55 am   BACKBONE|DICT|INTERRES
   111   54  179 1    
   112   55   56 2    
   113   55   57 1    
   114   57   58 1    
   115   57   59 1    
   116   57  180 1    
   117   58  181 1    
   118   58  182 1    
   119   58  183 1    
   120   59   60 am   BACKBONE|DICT|INTERRES
   121   59  184 1    
   122   60   61 2    
   123   60   62 1    
   124   62   63 1    
   125   62   64 1    
   126   62  185 1    
   127   63  186 1    
   128   63  187 1    
   129   63  188 1    
   130   64   65 am   BACKBONE|DICT|INTERRES
   131   64  189 1    
   132   65   66 2    
   133   67   68 2    
   134   67   69 am   BACKBONE|DICT|INTERRES
   135   69   70 1    
   136   69  190 1    
   137   70   71 1    
   138   70   72 1    
   139   70  191 1    
   140   71  192 1    
   141   71  193 1    
   142   71  194 1    
   143   72   73 2    
   144   72   74 am   BACKBONE|DICT|INTERRES
   145   74   75 1    
   146   74  195 1    
   147   75   76 1    
   148   75   77 1    
   149   75  196 1    
   150   76  197 1    
   151   76  198 1    
   152   76  199 1    
   153   77   78 2    
   154   77   79 am   BACKBONE|DICT|INTERRES
   155   79   80 1    
   156   79  200 1    
   157   80   81 1    
   158   80   82 1    
   159   80  201 1    
   160   81  202 1    
   161   81  203 1    
   162   81  204 1    
   163   82   83 2    
   164   82   84 am   BACKBONE|DICT|INTERRES
   165   84   85 1    
   166   84  205 1    
   167   85   86 1    
   168   85   87 1    
   169   85  206 1    
   170   86  207 1    
   171   86  208 1    
   172   86  209 1    
   173   87   88 2    
   174   87   89 am   BACKBONE|DICT|INTERRES
   175   89   90 1    
   176   89  210 1    
   177   90   91 1    
   178   90   92 1    
   179   90  211 1    
   180   91  212 1    
   181   91  213 1    
   182   91  214 1    
   183   92   93 2    
   184   92   94 am   BACKBONE|DICT|INTERRES
   185   94   95 1    
   186   94  215 1    
   187   95   96 1    
   188   95   97 1    
   189   95  216 1    
   190   96  217 1    
   191   96  218 1    
   192   96  219 1    
   193   97   98 2    
   194   97   99 am   BACKBONE|DICT|INTERRES
   195   99  100 1    
   196   99  220 1    
   197  100  101 1    
   198  100  102 1    
   199  100  221 1    
   200  101  222 1    
   201  101  223 1    
   202  101  224 1    
   203  102  103 2    
   204  102  104 am   BACKBONE|DICT|INTERRES
   205  104  105 1    
   206  104  225 1    
   207  105  106 1    
   208  105  107 1    
   209  105  226 1    
   210  106  227 1    
   211  106  228 1    
   212  106  229 1    
   213  107  108 2    
   214  107  109 am   BACKBONE|DICT|INTERRES
   215  109  110 1    
   216  109  230 1    
   217  110  111 1    
   218  110  112 1    
   219  110  231 1    
   220  111  232 1    
   221  111  233 1    
   222  111  234 1    
   223  112  113 2    
   224  112  114 am   BACKBONE|DICT|INTERRES
   225  114  115 1    
   226  114  235 1    
   227  115  116 1    
   228  115  117 1    
   229  115  236 1    
   230  116  237 1    
   231  116  238 1    
   232  116  239 1    
   233  117  118 2    
   234  117  119 am   BACKBONE|DICT|INTERRES
   235  119  120 1    
   236  119  240 1    
   237  120  121 1    
   238  120  124 1    
   239  120  241 1    
   240  121  122 am   BACKBONE|DICT|INTERRES
   241  121  123 2    
   242  122  242 1    
   243  122  243 1    
   244  124  125 1    
   245  124  244 1    
   246  124  245 1    
   247  125  126 1    
   248  126  246 1    
   249  126  247 1    
@<TRIPOS>SUBSTRUCTURE
     1 UNK         1 GROUP             0       ****    0 ROOT    
