@<TRIPOS>MOLECULE
3R540
247   249    1
SMALL
USER_CHARGES


@<TRIPOS>ATOM
      1 CA         -0.5077  -12.8899  -48.0050 C.3       0 UNK        -0.1800 
      2 C           0.2089  -14.0511  -48.6777 C.2       0 UNK         0.5000 
      3 O          -0.3663  -14.7057  -49.5464 O.2       0 UNK        -0.5000 
      4 N           1.4528  -14.3147  -48.2747 N.am      1 UNK        -0.5000 
      5 CA          2.3199  -15.3676  -48.8023 C.3       1 UNK         0.1400 
      6 C6          1.9188  -16.7722  -48.2668 C.3       23 UNK        -0.0398 
      7 S7          2.6265  -18.1728  -49.2023 S.3       23 UNK        -0.2404 
      8 C8          3.7417  -18.9122  -47.9662 C.3       23 UNK        -0.0205 
      9 C9          3.0592  -19.9890  -47.1336 C.ar      23 UNK        -0.0193 
     10 C10         2.4007  -19.6648  -45.9417 C.ar      23 UNK        -0.1150 
     11 C11         1.8442  -20.6696  -45.1422 C.ar      23 UNK        -0.0193 
     12 C12         1.9576  -22.0042  -45.5398 C.ar      23 UNK        -0.1150 
     13 C13         2.5932  -22.3402  -46.7381 C.ar      23 UNK        -0.0193 
     14 C14         3.1347  -21.3270  -47.5338 C.ar      23 UNK        -0.1150 
     15 C15         2.7411  -23.7990  -47.1480 C.3       23 UNK        -0.0205 
     16 S16         1.4602  -24.3316  -48.3274 S.3       23 UNK        -0.2404 
     17 C17        -0.0401  -24.3739  -47.2773 C.3       23 UNK        -0.0398 
     18 CA         -1.1534  -23.3880  -47.7171 C.3       11 UNK         0.1400 
     19 N          -0.6559  -22.0141  -47.7990 N.am      11 UNK        -0.5000 
     20 C          -1.3874  -20.9080  -47.6340 C.2       10 UNK         0.5000 
     21 O          -2.5256  -20.9076  -47.1620 O.2       10 UNK        -0.5000 
     22 CA         -0.7145  -19.6082  -48.1032 C.3       10 UNK         0.1400 
     23 CB         -0.8279  -19.4536  -49.6346 C.3       10 UNK        -0.1800 
     24 N          -1.1689  -18.3933  -47.4214 N.am      10 UNK        -0.5000 
     25 C          -2.3293  -17.7396  -47.5541 C.2       9 UNK         0.5000 
     26 O          -3.3028  -18.1663  -48.1746 O.2       9 UNK        -0.5000 
     27 CA         -2.3807  -16.3394  -46.9075 C.3       9 UNK         0.1400 
     28 CB         -3.6122  -15.5286  -47.3470 C.3       9 UNK        -0.1800 
     29 N          -2.3327  -16.3731  -45.4492 N.am      9 UNK        -0.5000 
     30 C          -1.2611  -16.6630  -44.7001 C.2       8 UNK         0.5000 
     31 O          -0.1530  -16.9291  -45.1718 O.2       8 UNK        -0.5000 
     32 CA         -1.4885  -16.6225  -43.1773 C.3       8 UNK         0.1400 
     33 CB         -0.1878  -16.6438  -42.3563 C.3       8 UNK        -0.1800 
     34 N          -2.2311  -15.4138  -42.8370 N.am      8 UNK        -0.5000 
     35 C          -3.3454  -15.3436  -42.0996 C.2       7 UNK         0.5000 
     36 O          -3.8987  -16.3261  -41.6056 O.2       7 UNK        -0.5000 
     37 CA         -3.9482  -13.9403  -41.8662 C.3       7 UNK         0.1400 
     38 CB         -3.6548  -13.4634  -40.4352 C.3       7 UNK        -0.1800 
     39 N          -3.4565  -12.9284  -42.8054 N.am      7 UNK        -0.5000 
     40 C          -3.7728  -12.8724  -44.1063 C.2       6 UNK         0.5000 
     41 O          -4.5960  -13.6187  -44.6353 O.2       6 UNK        -0.5000 
     42 CA         -3.0200  -11.8368  -44.9697 C.3       6 UNK         0.1400 
     43 CB         -3.8790  -10.5789  -45.1660 C.3       6 UNK        -0.1800 
     44 N          -1.7031  -11.4386  -44.4512 N.am      6 UNK        -0.5000 
     45 C          -0.6725  -12.2638  -44.2175 C.2       5 UNK         0.5000 
     46 O          -0.7311  -13.4817  -44.3890 O.2       5 UNK        -0.5000 
     47 CA          0.6040  -11.6208  -43.6404 C.3       5 UNK         0.1400 
     48 CB          0.3371  -11.0603  -42.2324 C.3       5 UNK        -0.1800 
     49 N           1.7107  -12.5743  -43.5466 N.am      5 UNK        -0.5000 
     50 C           2.4644  -12.9898  -44.5708 C.2       4 UNK         0.5000 
     51 O           2.3407  -12.5841  -45.7290 O.2       4 UNK        -0.5000 
     52 CA          3.5237  -14.0505  -44.2354 C.3       4 UNK         0.1400 
     53 CB          2.9963  -15.4593  -44.5370 C.3       4 UNK        -0.1800 
     54 N           4.7311  -13.8250  -45.0253 N.am      4 UNK        -0.5000 
     55 C           5.9814  -13.8880  -44.5477 C.2       3 UNK         0.5000 
     56 O           6.2429  -14.1170  -43.3648 O.2       3 UNK        -0.5000 
     57 CA          7.1322  -13.6534  -45.5536 C.3       3 UNK         0.1400 
     58 CB          8.4883  -14.2001  -45.0583 C.3       3 UNK        -0.1800 
     59 N           6.8400  -14.1432  -46.9051 N.am      3 UNK        -0.5000 
     60 C           6.5707  -15.4034  -47.2767 C.2       2 UNK         0.5000 
     61 O           6.5721  -16.3740  -46.5172 O.2       2 UNK        -0.5000 
     62 CA          6.1843  -15.5926  -48.7578 C.3       2 UNK         0.1400 
     63 CB          6.9215  -16.7889  -49.3821 C.3       2 UNK        -0.1800 
     64 N           4.7429  -15.7795  -48.9368 N.am      2 UNK        -0.5000 
     65 C           3.7784  -14.9555  -48.5092 C.2       1 UNK         0.5000 
     66 O           4.0086  -13.8900  -47.9296 O.2       1 UNK        -0.5000 
     67 C          -1.7517  -23.7953  -49.0780 C.2       11 UNK         0.5000 
     68 O          -1.4975  -23.1254  -50.0810 O.2       11 UNK        -0.5000 
     69 N          -2.4995  -24.9076  -49.1109 N.am      12 UNK        -0.5000 
     70 CA         -3.1369  -25.4474  -50.3183 C.3       12 UNK         0.1400 
     71 CB         -3.9302  -26.7116  -49.9595 C.3       12 UNK        -0.1800 
     72 C          -2.1629  -25.7270  -51.4782 C.2       12 UNK         0.5000 
     73 O          -2.5184  -25.4812  -52.6302 O.2       12 UNK        -0.5000 
     74 N          -0.9463  -26.1840  -51.1534 N.am      13 UNK        -0.5000 
     75 CA          0.1260  -26.4365  -52.1171 C.3       13 UNK         0.1400 
     76 CB          1.2523  -27.2167  -51.4222 C.3       13 UNK        -0.1800 
     77 C           0.6792  -25.1510  -52.7628 C.2       13 UNK         0.5000 
     78 O           1.0243  -25.1687  -53.9446 O.2       13 UNK        -0.5000 
     79 N           0.7486  -24.0644  -51.9829 N.am      14 UNK        -0.5000 
     80 CA          1.2254  -22.7553  -52.4283 C.3       14 UNK         0.1400 
     81 CB          1.8024  -21.9925  -51.2247 C.3       14 UNK        -0.1800 
     82 C           0.1188  -21.9468  -53.1297 C.2       14 UNK         0.5000 
     83 O           0.3942  -21.2742  -54.1236 O.2       14 UNK        -0.5000 
     84 N          -1.1131  -22.0387  -52.6121 N.am      15 UNK        -0.5000 
     85 CA         -2.3016  -21.3641  -53.1357 C.3       15 UNK         0.1400 
     86 CB         -3.4003  -21.4063  -52.0620 C.3       15 UNK        -0.1800 
     87 C          -2.8432  -21.9853  -54.4365 C.2       15 UNK         0.5000 
     88 O          -3.5558  -21.3006  -55.1706 O.2       15 UNK        -0.5000 
     89 N          -2.5287  -23.2695  -54.6680 N.am      16 UNK        -0.5000 
     90 CA         -3.1278  -24.1640  -55.6657 C.3       16 UNK         0.1400 
     91 CB         -2.8750  -23.6723  -57.1067 C.3       16 UNK        -0.1800 
     92 C          -4.6153  -24.4325  -55.3469 C.2       16 UNK         0.5000 
     93 O          -5.4671  -24.3765  -56.2363 O.2       16 UNK        -0.5000 
     94 N          -4.8691  -24.7223  -54.0610 N.am      17 UNK        -0.5000 
     95 CA         -6.1547  -24.9597  -53.3960 C.3       17 UNK         0.1400 
     96 CB         -6.8640  -26.1844  -54.0109 C.3       17 UNK        -0.1800 
     97 C          -7.0822  -23.7244  -53.3467 C.2       17 UNK         0.5000 
     98 O          -6.7908  -22.6857  -53.9428 O.2       17 UNK        -0.5000 
     99 N          -8.1888  -23.8700  -52.6023 N.am      18 UNK        -0.5000 
    100 CA        -9.3336  -22.9604  -52.4336 C.3       18 UNK         0.1400 
    101 CB       -10.0563  -22.7300  -53.7747 C.3       18 UNK        -0.1800 
    102 C         -9.0373  -21.6178  -51.7339 C.2       18 UNK         0.5000 
    103 O         -9.7673  -21.2432  -50.8160 O.2       18 UNK        -0.5000 
    104 N         -7.9916  -20.9134  -52.1763 N.am      19 UNK        -0.5000 
    105 CA        -7.6060  -19.5799  -51.7071 C.3       19 UNK         0.1400 
    106 CB        -6.8767  -18.8574  -52.8523 C.3       19 UNK        -0.1800 
    107 C         -6.7427  -19.5952  -50.4286 C.2       19 UNK         0.5000 
    108 O         -6.4632  -18.5269  -49.8839 O.2       19 UNK        -0.5000 
    109 N         -6.3187  -20.7884  -49.9927 N.am      20 UNK        -0.5000 
    110 CA        -5.4521  -21.0223  -48.8382 C.3       20 UNK         0.1400 
    111 CB        -5.1037  -22.5164  -48.7985 C.3       20 UNK        -0.1800 
    112 C         -6.0711  -20.6010  -47.4921 C.2       20 UNK         0.5000 
    113 O         -7.2923  -20.6546  -47.3252 O.2       20 UNK        -0.5000 
    114 N         -5.1953  -20.2600  -46.5430 N.am      21 UNK        -0.5000 
    115 CA        -5.5204  -19.9415  -45.1534 C.3       21 UNK         0.1400 
    116 CB        -5.2036  -18.4626  -44.8910 C.3       21 UNK        -0.1800 
    117 C         -4.7404  -20.8295  -44.1671 C.2       21 UNK         0.5000 
    118 O         -5.2406  -21.0814  -43.0703 O.2       21 UNK        -0.5000 
    119 N         -3.5439  -21.2929  -44.5564 N.am      22 UNK        -0.5000 
    120 CA        -2.6621  -22.1368  -43.7292 C.3       22 UNK         0.1400 
    121 C         -3.0150  -23.6532  -43.7723 C.2       22 UNK         0.5000 
    122 N         -3.9652  -24.0962  -44.5873 N.am      22 UNK        -0.7600 
    123 O         -2.4164  -24.4446  -43.0495 O.2       22 UNK        -0.5000 
    124 C124       -1.1613  -21.9198  -44.0602 C.3       23 UNK        -0.0398 
    125 S125       -0.6404  -20.1737  -43.9778 S.3       23 UNK        -0.2404 
    126 C126        1.1689  -20.3218  -43.8224 C.3       23 UNK        -0.0205 
    127 H127       -1.3141  -13.2699  -47.3803 H         1 UNK         0.0600 
    128 H128       -0.9354  -12.2225  -48.7527 H         1 UNK         0.0600 
    129 H129        0.1651  -12.3084  -47.3748 H         1 UNK         0.0600 
    130 H130        1.9072  -13.7162  -47.5886 H         1 UNK         0.3000 
    131 H131        2.2138  -15.3665  -49.8892 H         1 UNK         0.0600 
    132 H132        2.1395  -16.8746  -47.2068 H         1 UNK         0.0800 
    133 H133        0.8389  -16.8817  -48.3451 H         1 UNK         0.0800 
    134 H134        4.1602  -18.1419  -47.3162 H         1 UNK         0.0800 
    135 H135        4.5936  -19.3468  -48.4914 H         1 UNK         0.0800 
    136 H136        2.3374  -18.6338  -45.6232 H         1 UNK         0.1150 
    137 H137        1.5592  -22.7835  -44.9067 H         1 UNK         0.1150 
    138 H138        3.6428  -21.5844  -48.4528 H         1 UNK         0.1150 
    139 H139        3.7189  -23.9463  -47.6089 H         1 UNK         0.0800 
    140 H140        2.7231  -24.4485  -46.2715 H         1 UNK         0.0800 
    141 H141        0.2334  -24.1680  -46.2437 H         1 UNK         0.0800 
    142 H142       -0.4141  -25.3989  -47.2635 H         1 UNK         0.0800 
    143 H143       -1.9596  -23.4330  -46.9821 H         1 UNK         0.0600 
    144 H144        0.2714  -21.9288  -48.1893 H         1 UNK         0.3000 
    145 H145        0.3426  -19.6954  -47.8588 H         1 UNK         0.0600 
    146 H146       -0.2851  -18.5772  -49.9871 H         1 UNK         0.0600 
    147 H147       -0.4193  -20.3182  -50.1535 H         1 UNK         0.0600 
    148 H148       -1.8625  -19.3537  -49.9596 H         1 UNK         0.0600 
    149 H149       -0.5042  -17.9883  -46.7679 H         1 UNK         0.3000 
    150 H150       -1.4977  -15.8035  -47.2535 H         1 UNK         0.0600 
    151 H151       -3.6789  -15.4782  -48.4346 H         1 UNK         0.0600 
    152 H152       -3.5593  -14.5035  -46.9830 H         1 UNK         0.0600 
    153 H153       -4.5391  -15.9701  -46.9792 H         1 UNK         0.0600 
    154 H154       -3.1932  -16.1435  -44.9736 H         1 UNK         0.3000 
    155 H155       -2.0669  -17.5147  -42.9292 H         1 UNK         0.0600 
    156 H156        0.3782  -15.7221  -42.4877 H         1 UNK         0.0600 
    157 H157        0.4533  -17.4766  -42.6423 H         1 UNK         0.0600 
    158 H158       -0.4018  -16.7507  -41.2930 H         1 UNK         0.0600 
    159 H159       -1.8604  -14.5661  -43.2586 H         1 UNK         0.3000 
    160 H160       -5.0305  -14.0244  -41.9851 H         1 UNK         0.0600 
    161 H161       -2.5839  -13.3515  -40.2603 H         1 UNK         0.0600 
    162 H162       -4.0348  -14.1741  -39.7000 H         1 UNK         0.0600 
    163 H163       -4.1312  -12.5039  -40.2330 H         1 UNK         0.0600 
    164 H164       -2.7776  -12.2720  -42.4501 H         1 UNK         0.3000 
    165 H165       -2.8636  -12.2929  -45.9477 H         1 UNK         0.0600 
    166 H166       -3.4081   -9.8833  -45.8608 H         1 UNK         0.0600 
    167 H167       -4.8571  -10.8329  -45.5772 H         1 UNK         0.0600 
    168 H168       -4.0450  -10.0546  -44.2241 H         1 UNK         0.0600 
    169 H169       -1.5818  -10.4523  -44.2714 H         1 UNK         0.3000 
    170 H170        0.8995  -10.8009  -44.2983 H         1 UNK         0.0600 
    171 H171       -0.4303  -10.2856  -42.2485 H         1 UNK         0.0600 
    172 H172        0.0033  -11.8392  -41.5453 H         1 UNK         0.0600 
    173 H173        1.2359  -10.6080  -41.8126 H         1 UNK         0.0600 
    174 H174        1.8538  -12.9927  -42.6396 H         1 UNK         0.3000 
    175 H175        3.7495  -13.9816  -43.1693 H         1 UNK         0.0600 
    176 H176        2.7015  -15.5445  -45.5797 H         1 UNK         0.0600 
    177 H177        3.7482  -16.2220  -44.3338 H         1 UNK         0.0600 
    178 H178        2.1212  -15.6913  -43.9335 H         1 UNK         0.0600 
    179 H179        4.5731  -13.6146  -46.0075 H         1 UNK         0.3000 
    180 H180        7.2312  -12.5706  -45.6412 H         1 UNK         0.0600 
    181 H181        8.4513  -15.2753  -44.8813 H         1 UNK         0.0600 
    182 H182        8.7843  -13.7251  -44.1223 H         1 UNK         0.0600 
    183 H183        9.2799  -14.0062  -45.7820 H         1 UNK         0.0600 
    184 H184        6.7488  -13.4219  -47.6073 H         1 UNK         0.3000 
    185 H185        6.4729  -14.6971  -49.3119 H         1 UNK         0.0600 
    186 H186        8.0012  -16.6825  -49.2703 H         1 UNK         0.0600 
    187 H187        6.6345  -17.7307  -48.9128 H         1 UNK         0.0600 
    188 H188        6.7123  -16.8689  -50.4490 H         1 UNK         0.0600 
    189 H189        4.4619  -16.6375  -49.3914 H         1 UNK         0.3000 
    190 H190       -2.6660  -25.4182  -48.2558 H         1 UNK         0.3000 
    191 H191       -3.8462  -24.7030  -50.6803 H         1 UNK         0.0600 
    192 H192       -3.2846  -27.4898  -49.5508 H         1 UNK         0.0600 
    193 H193       -4.4271  -27.1248  -50.8385 H         1 UNK         0.0600 
    194 H194       -4.7044  -26.4952  -49.2230 H         1 UNK         0.0600 
    195 H195       -0.7343  -26.3484  -50.1807 H         1 UNK         0.3000 
    196 H196       -0.2780  -27.0609  -52.9169 H         1 UNK         0.0600 
    197 H197        2.0596  -27.4417  -52.1204 H         1 UNK         0.0600 
    198 H198        0.8900  -28.1667  -51.0290 H         1 UNK         0.0600 
    199 H199        1.6826  -26.6520  -50.5941 H         1 UNK         0.0600 
    200 H200        0.3989  -24.1204  -51.0364 H         1 UNK         0.3000 
    201 H201        2.0343  -22.8942  -53.1489 H         1 UNK         0.0600 
    202 H202        2.7110  -22.4718  -50.8601 H         1 UNK         0.0600 
    203 H203        1.0986  -21.9570  -50.3947 H         1 UNK         0.0600 
    204 H204        2.0596  -20.9657  -51.4883 H         1 UNK         0.0600 
    205 H205       -1.2407  -22.5647  -51.7489 H         1 UNK         0.3000 
    206 H206       -2.0489  -20.3207  -53.3354 H         1 UNK         0.0600 
    207 H207       -3.0622  -20.9734  -51.1218 H         1 UNK         0.0600 
    208 H208       -4.2813  -20.8490  -52.3793 H         1 UNK         0.0600 
    209 H209       -3.7174  -22.4300  -51.8632 H         1 UNK         0.0600 
    210 H210       -1.9583  -23.7327  -53.9722 H         1 UNK         0.3000 
    211 H211       -2.6161  -25.1214  -55.5564 H         1 UNK         0.0600 
    212 H212       -3.4266  -22.7598  -57.3328 H         1 UNK         0.0600 
    213 H213       -3.1863  -24.4254  -57.8314 H         1 UNK         0.0600 
    214 H214       -1.8162  -23.4764  -57.2760 H         1 UNK         0.0600 
    215 H215       -4.0557  -24.7929  -53.4561 H         1 UNK         0.3000 
    216 H216       -5.9056  -25.2025  -52.3621 H         1 UNK         0.0600 
    217 H217       -7.7233  -26.4893  -53.4132 H         1 UNK         0.0600 
    218 H218       -6.1928  -27.0417  -54.0649 H         1 UNK         0.0600 
    219 H219       -7.2273  -25.9799  -55.0184 H         1 UNK         0.0600 
    220 H220       -8.2977  -24.7493  -52.1163 H         1 UNK         0.3000 
    221 H221      -10.0299  -23.4937  -51.7843 H         1 UNK         0.0600 
    222 H222       -9.4259  -22.2059  -54.4936 H         1 UNK         0.0600 
    223 H223      -10.3622  -23.6747  -54.2244 H         1 UNK         0.0600 
    224 H224      -10.9568  -22.1307  -53.6343 H         1 UNK         0.0600 
    225 H225       -7.4377  -21.3236  -52.9265 H         1 UNK         0.3000 
    226 H226       -8.5095  -19.0123  -51.4748 H         1 UNK         0.0600 
    227 H227       -7.5196  -18.7613  -53.7275 H         1 UNK         0.0600 
    228 H228       -6.5794  -17.8500  -52.5582 H         1 UNK         0.0600 
    229 H229       -5.9764  -19.3904  -53.1580 H         1 UNK         0.0600 
    230 H230       -6.6377  -21.6039  -50.4915 H         1 UNK         0.3000 
    231 H231       -4.5348  -20.4511  -48.9944 H         1 UNK         0.0600 
    232 H232       -4.4461  -22.7470  -47.9600 H         1 UNK         0.0600 
    233 H233       -4.5867  -22.8120  -49.7073 H         1 UNK         0.0600 
    234 H234       -5.9943  -23.1378  -48.6979 H         1 UNK         0.0600 
    235 H235       -4.2078  -20.2666  -46.7914 H         1 UNK         0.3000 
    236 H236       -6.5834  -20.1049  -44.9653 H         1 UNK         0.0600 
    237 H237       -4.1394  -18.2685  -45.0098 H         1 UNK         0.0600 
    238 H238       -5.7457  -17.8122  -45.5776 H         1 UNK         0.0600 
    239 H239       -5.4794  -18.1741  -43.8758 H         1 UNK         0.0600 
    240 H240       -3.1861  -21.0635  -45.4797 H         1 UNK         0.3000 
    241 H241       -2.7980  -21.8367  -42.6885 H         1 UNK         0.0600 
    242 H242       -4.4871  -23.4529  -45.1590 H         1 UNK         0.3800 
    243 H243       -4.1946  -25.0775  -44.5932 H         1 UNK         0.3800 
    244 H244       -0.9325  -22.2972  -45.0539 H         1 UNK         0.0800 
    245 H245       -0.5414  -22.4910  -43.3671 H         1 UNK         0.0800 
    246 H246        1.4165  -21.0654  -43.0637 H         1 UNK         0.0800 
    247 H247        1.5645  -19.3758  -43.4519 H         1 UNK         0.0800 
@<TRIPOS>BOND
     1    1    2 1    
     2    1  127 1    
     3    1  128 1    
     4    1  129 1    
     5    2    3 2    
     6    2    4 am   BACKBONE|DICT|INTERRES
     7    4    5 1    
     8    4  130 1    
     9    5    6 1    
    10    5   65 1    
    11    5  131 1    
    12    6    7 1    
    13    6  132 1    
    14    6  133 1    
    15    7    8 1    
    16    8    9 1    
    17    8  134 1    
    18    8  135 1    
    19    9   10 ar   
    20    9   14 ar   
    21   10   11 ar   
    22   10  136 1    
    23   11   12 ar   
    24   11  126 1    
    25   12   13 ar   
    26   12  137 1    
    27   13   14 ar   
    28   13   15 1    
    29   14  138 1    
    30   15   16 1    
    31   15  139 1    
    32   15  140 1    
    33   16   17 1    
    34   17   18 1    
    35   17  141 1    
    36   17  142 1    
    37   18   19 1    
    38   18   67 1    
    39   18  143 1    
    40   19   20 am   BACKBONE|DICT|INTERRES
    41   19  144 1    
    42   20   21 2    
    43   20   22 1    
    44   22   23 1    
    45   22   24 1    
    46   22  145 1    
    47   23  146 1    
    48   23  147 1    
    49   23  148 1    
    50   24   25 am   BACKBONE|DICT|INTERRES
    51   24  149 1    
    52   25   26 2    
    53   25   27 1    
    54   27   28 1    
    55   27   29 1    
    56   27  150 1    
    57   28  151 1    
    58   28  152 1    
    59   28  153 1    
    60   29   30 am   BACKBONE|DICT|INTERRES
    61   29  154 1    
    62   30   31 2    
    63   30   32 1    
    64   32   33 1    
    65   32   34 1    
    66   32  155 1    
    67   33  156 1    
    68   33  157 1    
    69   33  158 1    
    70   34   35 am   BACKBONE|DICT|INTERRES
    71   34  159 1    
    72   35   36 2    
    73   35   37 1    
    74   37   38 1    
    75   37   39 1    
    76   37  160 1    
    77   38  161 1    
    78   38  162 1    
    79   38  163 1    
    80   39   40 am   BACKBONE|DICT|INTERRES
    81   39  164 1    
    82   40   41 2    
    83   40   42 1    
    84   42   43 1    
    85   42   44 1    
    86   42  165 1    
    87   43  166 1    
    88   43  167 1    
    89   43  168 1    
    90   44   45 am   BACKBONE|DICT|INTERRES
    91   44  169 1    
    92   45   46 2    
    93   45   47 1    
    94   47   48 1    
    95   47   49 1    
    96   47  170 1    
    97   48  171 1    
    98   48  172 1    
    99   48  173 1    
   100   49   50 am   BACKBONE|DICT|INTERRES
   101   49  174 1    
   102   50   51 2    
   103   50   52 1    
   104   52   53 1    
   105   52   54 1    
   106   52  175 1    
   107   53  176 1    
   108   53  177 1    
   109   53  178 1    
   110   54   55 am   BACKBONE|DICT|INTERRES
   111   54  179 1    
   112   55   56 2    
   113   55   57 1    
   114   57   58 1    
   115   57   59 1    
   116   57  180 1    
   117   58  181 1    
   118   58  182 1    
   119   58  183 1    
   120   59   60 am   BACKBONE|DICT|INTERRES
   121   59  184 1    
   122   60   61 2    
   123   60   62 1    
   124   62   63 1    
   125   62   64 1    
   126   62  185 1    
   127   63  186 1    
   128   63  187 1    
   129   63  188 1    
   130   64   65 am   BACKBONE|DICT|INTERRES
   131   64  189 1    
   132   65   66 2    
   133   67   68 2    
   134   67   69 am   BACKBONE|DICT|INTERRES
   135   69   70 1    
   136   69  190 1    
   137   70   71 1    
   138   70   72 1    
   139   70  191 1    
   140   71  192 1    
   141   71  193 1    
   142   71  194 1    
   143   72   73 2    
   144   72   74 am   BACKBONE|DICT|INTERRES
   145   74   75 1    
   146   74  195 1    
   147   75   76 1    
   148   75   77 1    
   149   75  196 1    
   150   76  197 1    
   151   76  198 1    
   152   76  199 1    
   153   77   78 2    
   154   77   79 am   BACKBONE|DICT|INTERRES
   155   79   80 1    
   156   79  200 1    
   157   80   81 1    
   158   80   82 1    
   159   80  201 1    
   160   81  202 1    
   161   81  203 1    
   162   81  204 1    
   163   82   83 2    
   164   82   84 am   BACKBONE|DICT|INTERRES
   165   84   85 1    
   166   84  205 1    
   167   85   86 1    
   168   85   87 1    
   169   85  206 1    
   170   86  207 1    
   171   86  208 1    
   172   86  209 1    
   173   87   88 2    
   174   87   89 am   BACKBONE|DICT|INTERRES
   175   89   90 1    
   176   89  210 1    
   177   90   91 1    
   178   90   92 1    
   179   90  211 1    
   180   91  212 1    
   181   91  213 1    
   182   91  214 1    
   183   92   93 2    
   184   92   94 am   BACKBONE|DICT|INTERRES
   185   94   95 1    
   186   94  215 1    
   187   95   96 1    
   188   95   97 1    
   189   95  216 1    
   190   96  217 1    
   191   96  218 1    
   192   96  219 1    
   193   97   98 2    
   194   97   99 am   BACKBONE|DICT|INTERRES
   195   99  100 1    
   196   99  220 1    
   197  100  101 1    
   198  100  102 1    
   199  100  221 1    
   200  101  222 1    
   201  101  223 1    
   202  101  224 1    
   203  102  103 2    
   204  102  104 am   BACKBONE|DICT|INTERRES
   205  104  105 1    
   206  104  225 1    
   207  105  106 1    
   208  105  107 1    
   209  105  226 1    
   210  106  227 1    
   211  106  228 1    
   212  106  229 1    
   213  107  108 2    
   214  107  109 am   BACKBONE|DICT|INTERRES
   215  109  110 1    
   216  109  230 1    
   217  110  111 1    
   218  110  112 1    
   219  110  231 1    
   220  111  232 1    
   221  111  233 1    
   222  111  234 1    
   223  112  113 2    
   224  112  114 am   BACKBONE|DICT|INTERRES
   225  114  115 1    
   226  114  235 1    
   227  115  116 1    
   228  115  117 1    
   229  115  236 1    
   230  116  237 1    
   231  116  238 1    
   232  116  239 1    
   233  117  118 2    
   234  117  119 am   BACKBONE|DICT|INTERRES
   235  119  120 1    
   236  119  240 1    
   237  120  121 1    
   238  120  124 1    
   239  120  241 1    
   240  121  122 am   BACKBONE|DICT|INTERRES
   241  121  123 2    
   242  122  242 1    
   243  122  243 1    
   244  124  125 1    
   245  124  244 1    
   246  124  245 1    
   247  125  126 1    
   248  126  246 1    
   249  126  247 1    
@<TRIPOS>SUBSTRUCTURE
     1 UNK         1 GROUP             0       ****    0 ROOT    
