@<TRIPOS>MOLECULE
3R540
247   249    1
SMALL
USER_CHARGES


@<TRIPOS>ATOM
      1 CA          4.4381   -9.7960  -51.5992 C.3       0 UNK        -0.1800 
      2 C           3.4014  -10.1083  -50.5299 C.2       0 UNK         0.5000 
      3 O           3.1844   -9.2976  -49.6279 O.2       0 UNK        -0.5000 
      4 N           2.7492  -11.2731  -50.6284 N.am      1 UNK        -0.5000 
      5 CA          1.7304  -11.7700  -49.6944 C.3       1 UNK         0.1400 
      6 C6          1.6369  -13.3169  -49.7104 C.3       23 UNK        -0.0398 
      7 S7          3.1729  -14.0810  -49.0845 S.3       23 UNK        -0.2404 
      8 C8          2.5311  -15.3089  -47.9040 C.3       23 UNK        -0.0205 
      9 C9          2.2031  -16.6212  -48.5958 C.ar      23 UNK        -0.0193 
     10 C10         0.9623  -16.8092  -49.2119 C.ar      23 UNK        -0.1150 
     11 C11         0.6611  -18.0186  -49.8445 C.ar      23 UNK        -0.0193 
     12 C12         1.6141  -19.0402  -49.8632 C.ar      23 UNK        -0.1150 
     13 C13         2.8540  -18.8679  -49.2421 C.ar      23 UNK        -0.0193 
     14 C14         3.1434  -17.6554  -48.6116 C.ar      23 UNK        -0.1150 
     15 C15         3.8786  -19.9929  -49.2492 C.3       23 UNK        -0.0205 
     16 S16         3.7600  -21.0309  -47.7570 S.3       23 UNK        -0.2404 
     17 C17         2.1073  -21.7666  -47.9836 C.3       23 UNK        -0.0398 
     18 CA          1.8274  -22.9432  -47.0195 C.3       11 UNK         0.1400 
     19 N           1.7501  -22.4899  -45.6276 N.am      11 UNK        -0.5000 
     20 C           1.9009  -23.2652  -44.5470 C.2       10 UNK         0.5000 
     21 O           2.1576  -24.4682  -44.5987 O.2       10 UNK        -0.5000 
     22 CA          1.6867  -22.5874  -43.1791 C.3       10 UNK         0.1400 
     23 CB          2.9857  -21.9439  -42.6706 C.3       10 UNK        -0.1800 
     24 N           0.6163  -21.5866  -43.2176 N.am      10 UNK        -0.5000 
     25 C          -0.6815  -21.8901  -43.3624 C.2       9 UNK         0.5000 
     26 O          -1.1014  -23.0456  -43.4022 O.2       9 UNK        -0.5000 
     27 CA         -1.6773  -20.7252  -43.5147 C.3       9 UNK         0.1400 
     28 CB         -2.1638  -20.2506  -42.1376 C.3       9 UNK        -0.1800 
     29 N          -1.1304  -19.5895  -44.2565 N.am      9 UNK        -0.5000 
     30 C          -0.8026  -19.6052  -45.5565 C.2       8 UNK         0.5000 
     31 O          -0.9690  -20.5755  -46.2938 O.2       8 UNK        -0.5000 
     32 CA         -0.1187  -18.3415  -46.1125 C.3       8 UNK         0.1400 
     33 CB         -1.1514  -17.2566  -46.4530 C.3       8 UNK        -0.1800 
     34 N           0.8865  -17.7943  -45.1996 N.am      8 UNK        -0.5000 
     35 C           1.9697  -18.4653  -44.7823 C.2       7 UNK         0.5000 
     36 O           2.2419  -19.6104  -45.1363 O.2       7 UNK        -0.5000 
     37 CA          2.8559  -17.7711  -43.7371 C.3       7 UNK         0.1400 
     38 CB          3.8131  -16.7668  -44.3945 C.3       7 UNK        -0.1800 
     39 N           2.0492  -17.1005  -42.7188 N.am      7 UNK        -0.5000 
     40 C           1.3598  -17.7437  -41.7659 C.2       6 UNK         0.5000 
     41 O           1.3851  -18.9647  -41.6101 O.2       6 UNK        -0.5000 
     42 CA          0.4611  -16.8799  -40.8611 C.3       6 UNK         0.1400 
     43 CB          1.2737  -16.2767  -39.7057 C.3       6 UNK        -0.1800 
     44 N          -0.2135  -15.8059  -41.5934 N.am      6 UNK        -0.5000 
     45 C          -1.1450  -16.0056  -42.5364 C.2       5 UNK         0.5000 
     46 O          -1.5573  -17.1176  -42.8604 O.2       5 UNK        -0.5000 
     47 CA         -1.6795  -14.7621  -43.2706 C.3       5 UNK         0.1400 
     48 CB         -2.9066  -14.1936  -42.5431 C.3       5 UNK        -0.1800 
     49 N          -0.6894  -13.6975  -43.4498 N.am      5 UNK        -0.5000 
     50 C           0.4727  -13.8175  -44.1078 C.2       4 UNK         0.5000 
     51 O           0.8824  -14.8794  -44.5816 O.2       4 UNK        -0.5000 
     52 CA          1.2971  -12.5196  -44.2456 C.3       4 UNK         0.1400 
     53 CB          2.5059  -12.6627  -45.1947 C.3       4 UNK        -0.1800 
     54 N           0.4718  -11.3621  -44.6217 N.am      4 UNK        -0.5000 
     55 C          -0.2589  -11.2284  -45.7396 C.2       3 UNK         0.5000 
     56 O          -0.3294  -12.0929  -46.6153 O.2       3 UNK        -0.5000 
     57 CA         -1.0191   -9.9036  -45.9460 C.3       3 UNK         0.1400 
     58 CB         -0.7028   -8.8116  -44.9043 C.3       3 UNK        -0.1800 
     59 N          -0.6639   -9.4208  -47.2734 N.am      3 UNK        -0.5000 
     60 C          -1.5093   -9.1171  -48.2651 C.2       2 UNK         0.5000 
     61 O          -2.7286   -9.0097  -48.1287 O.2       2 UNK        -0.5000 
     62 CA         -0.8704   -8.9422  -49.6588 C.3       2 UNK         0.1400 
     63 CB         -0.5256   -7.4682  -49.9195 C.3       2 UNK        -0.1800 
     64 N           0.3449   -9.7510  -49.7909 N.am      2 UNK        -0.5000 
     65 C           0.3644  -11.0840  -49.9254 C.2       1 UNK         0.5000 
     66 O          -0.6347  -11.7510  -50.1993 O.2       1 UNK        -0.5000 
     67 C           0.5664  -23.7074  -47.4858 C.2       11 UNK         0.5000 
     68 O           0.6000  -24.2858  -48.5733 O.2       11 UNK        -0.5000 
     69 N          -0.5219  -23.7013  -46.7007 N.am      12 UNK        -0.5000 
     70 CA         -1.8332  -24.2622  -47.0463 C.3       12 UNK         0.1400 
     71 CB         -2.9152  -23.6074  -46.1700 C.3       12 UNK        -0.1800 
     72 C          -1.8952  -25.8067  -47.0116 C.2       12 UNK         0.5000 
     73 O          -2.8083  -26.3794  -46.4122 O.2       12 UNK        -0.5000 
     74 N          -0.9354  -26.4633  -47.6735 N.am      13 UNK        -0.5000 
     75 CA         -0.9037  -27.9035  -47.9166 C.3       13 UNK         0.1400 
     76 CB          0.4499  -28.2819  -48.5365 C.3       13 UNK        -0.1800 
     77 C          -2.0702  -28.3073  -48.8349 C.2       13 UNK         0.5000 
     78 O          -2.2003  -27.7495  -49.9271 O.2       13 UNK        -0.5000 
     79 N          -2.9207  -29.2228  -48.3477 N.am      14 UNK        -0.5000 
     80 CA         -4.2041  -29.6251  -48.9415 C.3       14 UNK         0.1400 
     81 CB         -3.9847  -30.4021  -50.2567 C.3       14 UNK        -0.1800 
     82 C          -5.1782  -28.4338  -49.0955 C.2       14 UNK         0.5000 
     83 O          -5.8872  -28.3330  -50.0974 O.2       14 UNK        -0.5000 
     84 N          -5.1446  -27.5212  -48.1122 N.am      15 UNK        -0.5000 
     85 CA         -5.8683  -26.2492  -47.9909 C.3       15 UNK         0.1400 
     86 CB         -7.3945  -26.4501  -48.0535 C.3       15 UNK        -0.1800 
     87 C          -5.4169  -25.1456  -48.9675 C.2       15 UNK         0.5000 
     88 O          -5.5988  -23.9720  -48.6466 O.2       15 UNK        -0.5000 
     89 N          -4.8491  -25.5131  -50.1253 N.am      16 UNK        -0.5000 
     90 CA         -4.3349  -24.6372  -51.1864 C.3       16 UNK         0.1400 
     91 CB         -3.0204  -23.9685  -50.7379 C.3       16 UNK        -0.1800 
     92 C          -5.3810  -23.6132  -51.6750 C.2       16 UNK         0.5000 
     93 O          -5.0834  -22.4205  -51.7702 O.2       16 UNK        -0.5000 
     94 N          -6.6070  -24.0967  -51.9257 N.am      17 UNK        -0.5000 
     95 CA         -7.7890  -23.3169  -52.3186 C.3       17 UNK         0.1400 
     96 CB         -7.6018  -22.7242  -53.7322 C.3       17 UNK        -0.1800 
     97 C          -8.1863  -22.2580  -51.2640 C.2       17 UNK         0.5000 
     98 O          -8.5807  -21.1480  -51.6212 O.2       17 UNK        -0.5000 
     99 N          -8.0537  -22.6326  -49.9820 N.am      18 UNK        -0.5000 
    100 CA        -8.2033  -21.7970  -48.7854 C.3       18 UNK         0.1400 
    101 CB        -9.6388  -21.2453  -48.6507 C.3       18 UNK        -0.1800 
    102 C         -7.1102  -20.7107  -48.7140 C.2       18 UNK         0.5000 
    103 O         -7.4133  -19.5282  -48.5448 O.2       18 UNK        -0.5000 
    104 N         -5.8533  -21.1591  -48.8515 N.am      19 UNK        -0.5000 
    105 CA        -4.6113  -20.3802  -48.8360 C.3       19 UNK         0.1400 
    106 CB        -4.3359  -19.8395  -47.4179 C.3       19 UNK        -0.1800 
    107 C         -4.5662  -19.2843  -49.9233 C.2       19 UNK         0.5000 
    108 O         -4.1455  -18.1594  -49.6485 O.2       19 UNK        -0.5000 
    109 N         -5.0120  -19.6358  -51.1354 N.am      20 UNK        -0.5000 
    110 CA        -5.0720  -18.7485  -52.2981 C.3       20 UNK         0.1400 
    111 CB        -6.5251  -18.6604  -52.7868 C.3       20 UNK        -0.1800 
    112 C         -4.1562  -19.2251  -53.4373 C.2       20 UNK         0.5000 
    113 O         -3.6856  -18.3945  -54.2161 O.2       20 UNK        -0.5000 
    114 N         -3.8968  -20.5372  -53.5242 N.am      21 UNK        -0.5000 
    115 CA        -3.0022  -21.1503  -54.5052 C.3       21 UNK         0.1400 
    116 CB        -3.4600  -22.5959  -54.7706 C.3       21 UNK        -0.1800 
    117 C         -1.5436  -21.0632  -54.0171 C.2       21 UNK         0.5000 
    118 O         -0.9389  -22.0796  -53.6716 O.2       21 UNK        -0.5000 
    119 N         -1.0222  -19.8328  -53.9571 N.am      22 UNK        -0.5000 
    120 CA         0.3160  -19.5040  -53.4383 C.3       22 UNK         0.1400 
    121 C          1.5073  -19.9553  -54.3348 C.2       22 UNK         0.5000 
    122 N          1.2917  -20.3536  -55.5826 N.am      22 UNK        -0.7600 
    123 O          2.6501  -19.9474  -53.8864 O.2       22 UNK        -0.5000 
    124 C124        0.4509  -17.9994  -53.0816 C.3       23 UNK        -0.0398 
    125 S125       -0.8987  -17.3264  -52.0478 S.3       23 UNK        -0.2404 
    126 C126       -0.7030  -18.2336  -50.4814 C.3       23 UNK        -0.0205 
    127 H127        5.4162   -9.6495  -51.1412 H         1 UNK         0.0600 
    128 H128        4.1675   -8.8822  -52.1282 H         1 UNK         0.0600 
    129 H129        4.5218  -10.6007  -52.3301 H         1 UNK         0.0600 
    130 H130        2.9619  -11.8887  -51.4004 H         1 UNK         0.3000 
    131 H131        2.0310  -11.4857  -48.6830 H         1 UNK         0.0600 
    132 H132        1.4360  -13.6890  -50.7162 H         1 UNK         0.0800 
    133 H133        0.8027  -13.6474  -49.0892 H         1 UNK         0.0800 
    134 H134        1.6561  -14.9280  -47.3751 H         1 UNK         0.0800 
    135 H135        3.2918  -15.4750  -47.1415 H         1 UNK         0.0800 
    136 H136        0.2265  -16.0181  -49.1961 H         1 UNK         0.1150 
    137 H137        1.3867  -19.9793  -50.3462 H         1 UNK         0.1150 
    138 H138        4.1012  -17.5192  -48.1295 H         1 UNK         0.1150 
    139 H139        3.7580  -20.6131  -50.1389 H         1 UNK         0.0800 
    140 H140        4.8840  -19.5734  -49.3070 H         1 UNK         0.0800 
    141 H141        2.0388  -22.0923  -49.0235 H         1 UNK         0.0800 
    142 H142        1.3539  -20.9884  -47.8512 H         1 UNK         0.0800 
    143 H143        2.6581  -23.6476  -47.0994 H         1 UNK         0.0600 
    144 H144        1.6202  -21.4918  -45.4901 H         1 UNK         0.3000 
    145 H145        1.3983  -23.3630  -42.4665 H         1 UNK         0.0600 
    146 H146        3.7744  -22.6903  -42.5699 H         1 UNK         0.0600 
    147 H147        3.3517  -21.1737  -43.3488 H         1 UNK         0.0600 
    148 H148        2.8426  -21.4869  -41.6912 H         1 UNK         0.0600 
    149 H149        0.8933  -20.6146  -43.1640 H         1 UNK         0.3000 
    150 H150       -2.5405  -21.0997  -44.0686 H         1 UNK         0.0600 
    151 H151       -2.5857  -21.0771  -41.5645 H         1 UNK         0.0600 
    152 H152       -2.9412  -19.4926  -42.2347 H         1 UNK         0.0600 
    153 H153       -1.3508  -19.8226  -41.5500 H         1 UNK         0.0600 
    154 H154       -1.0234  -18.7220  -43.7375 H         1 UNK         0.3000 
    155 H155        0.4004  -18.6248  -47.0292 H         1 UNK         0.0600 
    156 H156       -0.6687  -16.3286  -46.7599 H         1 UNK         0.0600 
    157 H157       -1.7964  -17.0329  -45.6041 H         1 UNK         0.0600 
    158 H158       -1.7922  -17.5760  -47.2748 H         1 UNK         0.0600 
    159 H159        0.7530  -16.8394  -44.8817 H         1 UNK         0.3000 
    160 H160        3.4603  -18.5396  -43.2502 H         1 UNK         0.0600 
    161 H161        3.2758  -15.9378  -44.8516 H         1 UNK         0.0600 
    162 H162        4.4052  -17.2458  -45.1756 H         1 UNK         0.0600 
    163 H163        4.5089  -16.3518  -43.6653 H         1 UNK         0.0600 
    164 H164        1.9180  -16.1051  -42.8284 H         1 UNK         0.3000 
    165 H165       -0.3047  -17.5320  -40.4354 H         1 UNK         0.0600 
    166 H166        0.6314  -15.7289  -39.0159 H         1 UNK         0.0600 
    167 H167        1.7737  -17.0579  -39.1316 H         1 UNK         0.0600 
    168 H168        2.0419  -15.5915  -40.0663 H         1 UNK         0.0600 
    169 H169        0.0683  -14.8593  -41.3864 H         1 UNK         0.3000 
    170 H170       -1.9946  -15.0804  -44.2657 H         1 UNK         0.0600 
    171 H171       -3.6742  -14.9583  -42.4160 H         1 UNK         0.0600 
    172 H172       -2.6493  -13.8185  -41.5518 H         1 UNK         0.0600 
    173 H173       -3.3560  -13.3756  -43.1066 H         1 UNK         0.0600 
    174 H174       -0.9438  -12.7862  -43.0983 H         1 UNK         0.3000 
    175 H175        1.6905  -12.3086  -43.2503 H         1 UNK         0.0600 
    176 H176        3.1692  -13.4644  -44.8693 H         1 UNK         0.0600 
    177 H177        2.1982  -12.8862  -46.2155 H         1 UNK         0.0600 
    178 H178        3.0956  -11.7467  -45.2196 H         1 UNK         0.0600 
    179 H179        0.4734  -10.5935  -43.9656 H         1 UNK         0.3000 
    180 H180       -2.0843  -10.1382  -45.8963 H         1 UNK         0.0600 
    181 H181        0.3580   -8.5580  -44.8878 H         1 UNK         0.0600 
    182 H182       -0.9944   -9.1227  -43.9005 H         1 UNK         0.0600 
    183 H183       -1.2541   -7.8972  -45.1249 H         1 UNK         0.0600 
    184 H184        0.3119   -9.5154  -47.5135 H         1 UNK         0.3000 
    185 H185       -1.5957   -9.2663  -50.4081 H         1 UNK         0.0600 
    186 H186       -1.4148   -6.8409  -49.8450 H         1 UNK         0.0600 
    187 H187        0.2042   -7.0915  -49.2016 H         1 UNK         0.0600 
    188 H188       -0.1139   -7.3313  -50.9196 H         1 UNK         0.0600 
    189 H189        1.2336   -9.2847  -49.6310 H         1 UNK         0.3000 
    190 H190       -0.4675  -23.2107  -45.8188 H         1 UNK         0.3000 
    191 H191       -2.0445  -23.9720  -48.0743 H         1 UNK         0.0600 
    192 H192       -2.8586  -22.5206  -46.2157 H         1 UNK         0.0600 
    193 H193       -3.9136  -23.8900  -46.5029 H         1 UNK         0.0600 
    194 H194       -2.8259  -23.9092  -45.1271 H         1 UNK         0.0600 
    195 H195       -0.2474  -25.9001  -48.1659 H         1 UNK         0.3000 
    196 H196       -0.9999  -28.4154  -46.9569 H         1 UNK         0.0600 
    197 H197        0.5071  -29.3552  -48.7223 H         1 UNK         0.0600 
    198 H198        1.2740  -28.0214  -47.8722 H         1 UNK         0.0600 
    199 H199        0.6134  -27.7737  -49.4878 H         1 UNK         0.0600 
    200 H200       -2.7264  -29.6155  -47.4366 H         1 UNK         0.3000 
    201 H201       -4.6726  -30.3078  -48.2313 H         1 UNK         0.0600 
    202 H202       -3.2991  -31.2368  -50.1113 H         1 UNK         0.0600 
    203 H203       -3.5768  -29.7662  -51.0429 H         1 UNK         0.0600 
    204 H204       -4.9236  -30.8155  -50.6268 H         1 UNK         0.0600 
    205 H205       -4.4607  -27.6677  -47.3796 H         1 UNK         0.3000 
    206 H206       -5.6310  -25.8795  -46.9921 H         1 UNK         0.0600 
    207 H207       -7.7237  -27.1978  -47.3321 H         1 UNK         0.0600 
    208 H208       -7.9175  -25.5220  -47.8192 H         1 UNK         0.0600 
    209 H209       -7.7269  -26.7670  -49.0422 H         1 UNK         0.0600 
    210 H210       -4.7898  -26.5076  -50.3089 H         1 UNK         0.3000 
    211 H211       -4.1069  -25.2791  -52.0383 H         1 UNK         0.0600 
    212 H212       -3.1886  -23.2609  -49.9270 H         1 UNK         0.0600 
    213 H213       -2.5590  -23.4174  -51.5580 H         1 UNK         0.0600 
    214 H214       -2.2961  -24.7103  -50.4005 H         1 UNK         0.0600 
    215 H215       -6.7569  -25.0884  -51.8012 H         1 UNK         0.3000 
    216 H216       -8.6212  -24.0206  -52.3661 H         1 UNK         0.0600 
    217 H217       -8.5157  -22.2404  -54.0787 H         1 UNK         0.0600 
    218 H218       -7.3545  -23.5019  -54.4546 H         1 UNK         0.0600 
    219 H219       -6.8071  -21.9789  -53.7610 H         1 UNK         0.0600 
    220 H220       -7.6712  -23.5512  -49.8099 H         1 UNK         0.3000 
    221 H221       -8.0309  -22.4560  -47.9330 H         1 UNK         0.0600 
    222 H222       -9.8756  -20.5200  -49.4293 H         1 UNK         0.0600 
    223 H223      -10.3756  -22.0467  -48.7027 H         1 UNK         0.0600 
    224 H224       -9.7713  -20.7439  -47.6914 H         1 UNK         0.0600 
    225 H225       -5.7294  -22.1648  -48.9520 H         1 UNK         0.3000 
    226 H226       -3.8107  -21.0797  -49.0787 H         1 UNK         0.0600 
    227 H227       -4.3642  -20.6381  -46.6771 H         1 UNK         0.0600 
    228 H228       -3.3479  -19.3841  -47.3625 H         1 UNK         0.0600 
    229 H229       -5.0638  -19.0828  -47.1239 H         1 UNK         0.0600 
    230 H230       -5.3038  -20.5987  -51.2784 H         1 UNK         0.3000 
    231 H231       -4.7468  -17.7418  -52.0278 H         1 UNK         0.0600 
    232 H232       -6.8928  -19.6271  -53.1303 H         1 UNK         0.0600 
    233 H233       -6.6165  -17.9600  -53.6179 H         1 UNK         0.0600 
    234 H234       -7.1876  -18.3149  -51.9929 H         1 UNK         0.0600 
    235 H235       -4.3018  -21.1702  -52.8392 H         1 UNK         0.3000 
    236 H236       -3.0710  -20.6069  -55.4500 H         1 UNK         0.0600 
    237 H237       -4.4977  -22.6266  -55.1035 H         1 UNK         0.0600 
    238 H238       -2.8536  -23.0576  -55.5505 H         1 UNK         0.0600 
    239 H239       -3.3760  -23.2192  -53.8812 H         1 UNK         0.0600 
    240 H240       -1.6137  -19.0490  -54.2069 H         1 UNK         0.3000 
    241 H241        0.4321  -20.0674  -52.5121 H         1 UNK         0.0600 
    242 H242        2.0702  -20.6474  -56.1517 H         1 UNK         0.3800 
    243 H243        0.3592  -20.3670  -55.9632 H         1 UNK         0.3800 
    244 H244        1.3987  -17.8088  -52.5750 H         1 UNK         0.0800 
    245 H245        0.4799  -17.4045  -53.9960 H         1 UNK         0.0800 
    246 H246       -0.8960  -19.2942  -50.6479 H         1 UNK         0.0800 
    247 H247       -1.4727  -17.8952  -49.7874 H         1 UNK         0.0800 
@<TRIPOS>BOND
     1    1    2 1    
     2    1  127 1    
     3    1  128 1    
     4    1  129 1    
     5    2    3 2    
     6    2    4 am   BACKBONE|DICT|INTERRES
     7    4    5 1    
     8    4  130 1    
     9    5    6 1    
    10    5   65 1    
    11    5  131 1    
    12    6    7 1    
    13    6  132 1    
    14    6  133 1    
    15    7    8 1    
    16    8    9 1    
    17    8  134 1    
    18    8  135 1    
    19    9   10 ar   
    20    9   14 ar   
    21   10   11 ar   
    22   10  136 1    
    23   11   12 ar   
    24   11  126 1    
    25   12   13 ar   
    26   12  137 1    
    27   13   14 ar   
    28   13   15 1    
    29   14  138 1    
    30   15   16 1    
    31   15  139 1    
    32   15  140 1    
    33   16   17 1    
    34   17   18 1    
    35   17  141 1    
    36   17  142 1    
    37   18   19 1    
    38   18   67 1    
    39   18  143 1    
    40   19   20 am   BACKBONE|DICT|INTERRES
    41   19  144 1    
    42   20   21 2    
    43   20   22 1    
    44   22   23 1    
    45   22   24 1    
    46   22  145 1    
    47   23  146 1    
    48   23  147 1    
    49   23  148 1    
    50   24   25 am   BACKBONE|DICT|INTERRES
    51   24  149 1    
    52   25   26 2    
    53   25   27 1    
    54   27   28 1    
    55   27   29 1    
    56   27  150 1    
    57   28  151 1    
    58   28  152 1    
    59   28  153 1    
    60   29   30 am   BACKBONE|DICT|INTERRES
    61   29  154 1    
    62   30   31 2    
    63   30   32 1    
    64   32   33 1    
    65   32   34 1    
    66   32  155 1    
    67   33  156 1    
    68   33  157 1    
    69   33  158 1    
    70   34   35 am   BACKBONE|DICT|INTERRES
    71   34  159 1    
    72   35   36 2    
    73   35   37 1    
    74   37   38 1    
    75   37   39 1    
    76   37  160 1    
    77   38  161 1    
    78   38  162 1    
    79   38  163 1    
    80   39   40 am   BACKBONE|DICT|INTERRES
    81   39  164 1    
    82   40   41 2    
    83   40   42 1    
    84   42   43 1    
    85   42   44 1    
    86   42  165 1    
    87   43  166 1    
    88   43  167 1    
    89   43  168 1    
    90   44   45 am   BACKBONE|DICT|INTERRES
    91   44  169 1    
    92   45   46 2    
    93   45   47 1    
    94   47   48 1    
    95   47   49 1    
    96   47  170 1    
    97   48  171 1    
    98   48  172 1    
    99   48  173 1    
   100   49   50 am   BACKBONE|DICT|INTERRES
   101   49  174 1    
   102   50   51 2    
   103   50   52 1    
   104   52   53 1    
   105   52   54 1    
   106   52  175 1    
   107   53  176 1    
   108   53  177 1    
   109   53  178 1    
   110   54   55 am   BACKBONE|DICT|INTERRES
   111   54  179 1    
   112   55   56 2    
   113   55   57 1    
   114   57   58 1    
   115   57   59 1    
   116   57  180 1    
   117   58  181 1    
   118   58  182 1    
   119   58  183 1    
   120   59   60 am   BACKBONE|DICT|INTERRES
   121   59  184 1    
   122   60   61 2    
   123   60   62 1    
   124   62   63 1    
   125   62   64 1    
   126   62  185 1    
   127   63  186 1    
   128   63  187 1    
   129   63  188 1    
   130   64   65 am   BACKBONE|DICT|INTERRES
   131   64  189 1    
   132   65   66 2    
   133   67   68 2    
   134   67   69 am   BACKBONE|DICT|INTERRES
   135   69   70 1    
   136   69  190 1    
   137   70   71 1    
   138   70   72 1    
   139   70  191 1    
   140   71  192 1    
   141   71  193 1    
   142   71  194 1    
   143   72   73 2    
   144   72   74 am   BACKBONE|DICT|INTERRES
   145   74   75 1    
   146   74  195 1    
   147   75   76 1    
   148   75   77 1    
   149   75  196 1    
   150   76  197 1    
   151   76  198 1    
   152   76  199 1    
   153   77   78 2    
   154   77   79 am   BACKBONE|DICT|INTERRES
   155   79   80 1    
   156   79  200 1    
   157   80   81 1    
   158   80   82 1    
   159   80  201 1    
   160   81  202 1    
   161   81  203 1    
   162   81  204 1    
   163   82   83 2    
   164   82   84 am   BACKBONE|DICT|INTERRES
   165   84   85 1    
   166   84  205 1    
   167   85   86 1    
   168   85   87 1    
   169   85  206 1    
   170   86  207 1    
   171   86  208 1    
   172   86  209 1    
   173   87   88 2    
   174   87   89 am   BACKBONE|DICT|INTERRES
   175   89   90 1    
   176   89  210 1    
   177   90   91 1    
   178   90   92 1    
   179   90  211 1    
   180   91  212 1    
   181   91  213 1    
   182   91  214 1    
   183   92   93 2    
   184   92   94 am   BACKBONE|DICT|INTERRES
   185   94   95 1    
   186   94  215 1    
   187   95   96 1    
   188   95   97 1    
   189   95  216 1    
   190   96  217 1    
   191   96  218 1    
   192   96  219 1    
   193   97   98 2    
   194   97   99 am   BACKBONE|DICT|INTERRES
   195   99  100 1    
   196   99  220 1    
   197  100  101 1    
   198  100  102 1    
   199  100  221 1    
   200  101  222 1    
   201  101  223 1    
   202  101  224 1    
   203  102  103 2    
   204  102  104 am   BACKBONE|DICT|INTERRES
   205  104  105 1    
   206  104  225 1    
   207  105  106 1    
   208  105  107 1    
   209  105  226 1    
   210  106  227 1    
   211  106  228 1    
   212  106  229 1    
   213  107  108 2    
   214  107  109 am   BACKBONE|DICT|INTERRES
   215  109  110 1    
   216  109  230 1    
   217  110  111 1    
   218  110  112 1    
   219  110  231 1    
   220  111  232 1    
   221  111  233 1    
   222  111  234 1    
   223  112  113 2    
   224  112  114 am   BACKBONE|DICT|INTERRES
   225  114  115 1    
   226  114  235 1    
   227  115  116 1    
   228  115  117 1    
   229  115  236 1    
   230  116  237 1    
   231  116  238 1    
   232  116  239 1    
   233  117  118 2    
   234  117  119 am   BACKBONE|DICT|INTERRES
   235  119  120 1    
   236  119  240 1    
   237  120  121 1    
   238  120  124 1    
   239  120  241 1    
   240  121  122 am   BACKBONE|DICT|INTERRES
   241  121  123 2    
   242  122  242 1    
   243  122  243 1    
   244  124  125 1    
   245  124  244 1    
   246  124  245 1    
   247  125  126 1    
   248  126  246 1    
   249  126  247 1    
@<TRIPOS>SUBSTRUCTURE
     1 UNK         1 GROUP             0       ****    0 ROOT    
