@<TRIPOS>MOLECULE
3R540
247   249    1
SMALL
USER_CHARGES


@<TRIPOS>ATOM
      1 CA         -0.0532  -12.3621  -53.2727 C.3       0 UNK        -0.1800 
      2 C           1.2464  -12.6530  -52.5356 C.2       0 UNK         0.5000 
      3 O           1.8048  -11.7531  -51.9076 O.2       0 UNK        -0.5000 
      4 N           1.7347  -13.8980  -52.6139 N.am      1 UNK        -0.5000 
      5 CA          2.9576  -14.3619  -51.9482 C.3       1 UNK         0.1400 
      6 C6          3.4282  -15.7195  -52.5295 C.3       23 UNK        -0.0398 
      7 S7          5.1547  -16.1308  -52.0838 S.3       23 UNK        -0.2404 
      8 C8          5.1762  -17.9523  -52.1498 C.3       23 UNK        -0.0205 
      9 C9          4.2107  -18.5982  -51.1650 C.ar      23 UNK        -0.0193 
     10 C10         3.0299  -19.1800  -51.6327 C.ar      23 UNK        -0.1150 
     11 C11         2.1260  -19.7679  -50.7451 C.ar      23 UNK        -0.0193 
     12 C12         2.4281  -19.8089  -49.3832 C.ar      23 UNK        -0.1150 
     13 C13         3.6109  -19.2431  -48.9018 C.ar      23 UNK        -0.0193 
     14 C14         4.4967  -18.6310  -49.7959 C.ar      23 UNK        -0.1150 
     15 C15         3.9202  -19.2958  -47.4156 C.3       23 UNK        -0.0205 
     16 S16         5.1283  -20.6018  -47.0533 S.3       23 UNK        -0.2404 
     17 C17         4.7677  -20.9455  -45.2910 C.3       23 UNK        -0.0398 
     18 CA          4.1085  -22.3140  -44.9136 C.3       11 UNK         0.1400 
     19 N           2.8850  -22.1493  -44.1182 N.am      11 UNK        -0.5000 
     20 C           2.4246  -23.0772  -43.2644 C.2       10 UNK         0.5000 
     21 O           2.9620  -24.1712  -43.0869 O.2       10 UNK        -0.5000 
     22 CA          1.1670  -22.7245  -42.4571 C.3       10 UNK         0.1400 
     23 CB          1.4952  -21.7054  -41.3553 C.3       10 UNK        -0.1800 
     24 N           0.0974  -22.2136  -43.3085 N.am      10 UNK        -0.5000 
     25 C          -0.7073  -22.9861  -44.0509 C.2       9 UNK         0.5000 
     26 O          -0.6724  -24.2180  -44.0522 O.2       9 UNK        -0.5000 
     27 CA         -1.7591  -22.2755  -44.9208 C.3       9 UNK         0.1400 
     28 CB         -3.1060  -22.2393  -44.1839 C.3       9 UNK        -0.1800 
     29 N          -1.3989  -20.9153  -45.3171 N.am      9 UNK        -0.5000 
     30 C          -0.3670  -20.5882  -46.1090 C.2       8 UNK         0.5000 
     31 O           0.4491  -21.3877  -46.5632 O.2       8 UNK        -0.5000 
     32 CA         -0.1796  -19.0895  -46.3793 C.3       8 UNK         0.1400 
     33 CB         -1.3388  -18.5488  -47.2290 C.3       8 UNK        -0.1800 
     34 N          -0.0534  -18.3160  -45.1434 N.am      8 UNK        -0.5000 
     35 C           0.8534  -18.5389  -44.1784 C.2       7 UNK         0.5000 
     36 O           1.7198  -19.4136  -44.2283 O.2       7 UNK        -0.5000 
     37 CA          0.7387  -17.6663  -42.9194 C.3       7 UNK         0.1400 
     38 CB          1.3975  -16.2959  -43.1400 C.3       7 UNK        -0.1800 
     39 N          -0.6583  -17.4938  -42.5212 N.am      7 UNK        -0.5000 
     40 C          -1.3876  -18.4442  -41.9177 C.2       6 UNK         0.5000 
     41 O          -0.9389  -19.5394  -41.5837 O.2       6 UNK        -0.5000 
     42 CA         -2.8754  -18.1340  -41.6680 C.3       6 UNK         0.1400 
     43 CB         -3.0561  -17.3865  -40.3384 C.3       6 UNK        -0.1800 
     44 N          -3.4828  -17.3546  -42.7461 N.am      6 UNK        -0.5000 
     45 C          -3.6562  -17.7997  -43.9982 C.2       5 UNK         0.5000 
     46 O          -3.3653  -18.9385  -44.3641 O.2       5 UNK        -0.5000 
     47 CA         -4.2007  -16.7840  -45.0213 C.3       5 UNK         0.1400 
     48 CB         -5.7351  -16.8343  -45.0675 C.3       5 UNK        -0.1800 
     49 N          -3.7689  -15.4028  -44.7784 N.am      5 UNK        -0.5000 
     50 C          -2.4938  -14.9936  -44.7494 C.2       4 UNK         0.5000 
     51 O          -1.5274  -15.7513  -44.8613 O.2       4 UNK        -0.5000 
     52 CA         -2.2526  -13.4912  -44.5323 C.3       4 UNK         0.1400 
     53 CB         -1.3269  -13.2473  -43.3291 C.3       4 UNK        -0.1800 
     54 N          -1.6433  -12.9276  -45.7314 N.am      4 UNK        -0.5000 
     55 C          -2.3266  -12.5473  -46.8187 C.2       3 UNK         0.5000 
     56 O          -3.5551  -12.4702  -46.8616 O.2       3 UNK        -0.5000 
     57 CA         -1.5031  -12.2092  -48.0791 C.3       3 UNK         0.1400 
     58 CB         -1.2265  -10.7004  -48.1565 C.3       3 UNK        -0.1800 
     59 N          -0.2329  -12.9347  -48.1956 N.am      3 UNK        -0.5000 
     60 C          -0.1067  -14.2684  -48.2382 C.2       2 UNK         0.5000 
     61 O          -1.0501  -15.0488  -48.1405 O.2       2 UNK        -0.5000 
     62 CA          1.3062  -14.8015  -48.4876 C.3       2 UNK         0.1400 
     63 CB          1.4886  -16.2711  -48.0668 C.3       2 UNK        -0.1800 
     64 N           1.5976  -14.6608  -49.9085 N.am      2 UNK        -0.5000 
     65 C           2.8142  -14.4141  -50.4082 C.2       1 UNK         0.5000 
     66 O           3.8041  -14.2130  -49.7021 O.2       1 UNK        -0.5000 
     67 C           3.9062  -23.3275  -46.0652 C.2       11 UNK         0.5000 
     68 O           4.8105  -24.1216  -46.3323 O.2       11 UNK        -0.5000 
     69 N           2.7247  -23.3119  -46.6940 N.am      12 UNK        -0.5000 
     70 CA          2.3133  -24.2547  -47.7250 C.3       12 UNK         0.1400 
     71 CB          2.1310  -23.4973  -49.0490 C.3       12 UNK        -0.1800 
     72 C           1.0130  -24.9033  -47.2369 C.2       12 UNK         0.5000 
     73 O          -0.0228  -24.2396  -47.2232 O.2       12 UNK        -0.5000 
     74 N           1.1134  -26.1648  -46.7948 N.am      13 UNK        -0.5000 
     75 CA          0.0938  -26.9542  -46.0934 C.3       13 UNK         0.1400 
     76 CB          0.5490  -28.4231  -46.0566 C.3       13 UNK        -0.1800 
     77 C          -1.3362  -26.8265  -46.6608 C.2       13 UNK         0.5000 
     78 O          -1.6669  -27.4803  -47.6520 O.2       13 UNK        -0.5000 
     79 N          -2.1359  -25.9655  -46.0151 N.am      14 UNK        -0.5000 
     80 CA         -3.5325  -25.6354  -46.3210 C.3       14 UNK         0.1400 
     81 CB         -4.4426  -26.8635  -46.1108 C.3       14 UNK        -0.1800 
     82 C          -3.7557  -24.9628  -47.6953 C.2       14 UNK         0.5000 
     83 O          -4.8760  -24.9953  -48.2079 O.2       14 UNK        -0.5000 
     84 N          -2.7190  -24.3226  -48.2599 N.am      15 UNK        -0.5000 
     85 CA         -2.7540  -23.6658  -49.5744 C.3       15 UNK         0.1400 
     86 CB         -1.3487  -23.1837  -49.9448 C.3       15 UNK        -0.1800 
     87 C          -3.7555  -22.5012  -49.6881 C.2       15 UNK         0.5000 
     88 O          -4.2019  -22.1949  -50.7946 O.2       15 UNK        -0.5000 
     89 N          -4.1451  -21.9164  -48.5464 N.am      16 UNK        -0.5000 
     90 CA         -5.1794  -20.8863  -48.4424 C.3       16 UNK         0.1400 
     91 CB         -5.2672  -20.4003  -46.9905 C.3       16 UNK        -0.1800 
     92 C          -6.5686  -21.3375  -48.9430 C.2       16 UNK         0.5000 
     93 O          -7.3761  -20.4887  -49.3189 O.2       16 UNK        -0.5000 
     94 N          -6.8200  -22.6555  -48.9661 N.am      17 UNK        -0.5000 
     95 CA         -8.0214  -23.2508  -49.5510 C.3       17 UNK         0.1400 
     96 CB         -8.1515  -24.7023  -49.0654 C.3       17 UNK        -0.1800 
     97 C          -8.0297  -23.1951  -51.0926 C.2       17 UNK         0.5000 
     98 O          -9.1099  -23.1870  -51.6843 O.2       17 UNK        -0.5000 
     99 N          -6.8423  -23.1608  -51.7154 N.am      18 UNK        -0.5000 
    100 CA        -6.6717  -23.0469  -53.1630 C.3       18 UNK         0.1400 
    101 CB        -5.3988  -23.7927  -53.5955 C.3       18 UNK        -0.1800 
    102 C         -6.6237  -21.5738  -53.5996 C.2       18 UNK         0.5000 
    103 O         -7.2914  -21.2087  -54.5682 O.2       18 UNK        -0.5000 
    104 N         -5.8568  -20.7520  -52.8726 N.am      19 UNK        -0.5000 
    105 CA        -5.7210  -19.3182  -53.1039 C.3       19 UNK         0.1400 
    106 CB        -4.6552  -19.0526  -54.1833 C.3       19 UNK        -0.1800 
    107 C         -5.3559  -18.6544  -51.7733 C.2       19 UNK         0.5000 
    108 O         -4.2424  -18.8536  -51.2905 O.2       19 UNK        -0.5000 
    109 N         -6.2936  -17.8867  -51.2024 N.am      20 UNK        -0.5000 
    110 CA        -6.2124  -17.2951  -49.8606 C.3       20 UNK         0.1400 
    111 CB        -7.5183  -16.5425  -49.5637 C.3       20 UNK        -0.1800 
    112 C         -4.9981  -16.3803  -49.6143 C.2       20 UNK         0.5000 
    113 O         -4.5058  -16.3350  -48.4885 O.2       20 UNK        -0.5000 
    114 N         -4.5490  -15.6787  -50.6623 N.am      21 UNK        -0.5000 
    115 CA        -3.3921  -14.7823  -50.6264 C.3       21 UNK         0.1400 
    116 CB        -3.7877  -13.4553  -51.2963 C.3       21 UNK        -0.1800 
    117 C         -2.1504  -15.3785  -51.3186 C.2       21 UNK         0.5000 
    118 O         -1.0986  -14.7367  -51.3079 O.2       21 UNK        -0.5000 
    119 N         -2.2861  -16.5590  -51.9423 N.am      22 UNK        -0.5000 
    120 CA        -1.2695  -17.1927  -52.8005 C.3       22 UNK         0.1400 
    121 C         -0.8111  -16.2728  -53.9738 C.2       22 UNK         0.5000 
    122 N         -1.7409  -15.7414  -54.7573 N.am      22 UNK        -0.7600 
    123 O          0.3747  -16.0086  -54.1623 O.2       22 UNK        -0.5000 
    124 C124       -0.0817  -17.7756  -51.9931 C.3       23 UNK        -0.0398 
    125 S125       -0.5683  -19.1924  -50.9526 S.3       23 UNK        -0.2404 
    126 C126        0.8130  -20.3407  -51.2516 C.3       23 UNK        -0.0205 
    127 H127       -0.8244  -12.0613  -52.5637 H         1 UNK         0.0600 
    128 H128       -0.4149  -13.2354  -53.8144 H         1 UNK         0.0600 
    129 H129        0.0911  -11.5529  -53.9883 H         1 UNK         0.0600 
    130 H130        1.2228  -14.5994  -53.1438 H         1 UNK         0.3000 
    131 H131        3.7318  -13.6237  -52.1690 H         1 UNK         0.0600 
    132 H132        2.7516  -16.5134  -52.2161 H         1 UNK         0.0800 
    133 H133        3.3751  -15.6957  -53.6189 H         1 UNK         0.0800 
    134 H134        6.1881  -18.2984  -51.9347 H         1 UNK         0.0800 
    135 H135        4.9584  -18.2721  -53.1701 H         1 UNK         0.0800 
    136 H136        2.8062  -19.1584  -52.6898 H         1 UNK         0.1150 
    137 H137        1.7347  -20.2760  -48.6986 H         1 UNK         0.1150 
    138 H138        5.4111  -18.1875  -49.4276 H         1 UNK         0.1150 
    139 H139        4.3064  -18.3335  -47.0765 H         1 UNK         0.0800 
    140 H140        3.0065  -19.4815  -46.8499 H         1 UNK         0.0800 
    141 H141        4.1892  -20.1151  -44.8860 H         1 UNK         0.0800 
    142 H142        5.7250  -20.8723  -44.7732 H         1 UNK         0.0800 
    143 H143        4.8283  -22.7998  -44.2500 H         1 UNK         0.0600 
    144 H144        2.3888  -21.2675  -44.2144 H         1 UNK         0.3000 
    145 H145        0.8192  -23.6369  -41.9676 H         1 UNK         0.0600 
    146 H146        1.7816  -20.7376  -41.7678 H         1 UNK         0.0600 
    147 H147        0.6390  -21.5498  -40.6992 H         1 UNK         0.0600 
    148 H148        2.3194  -22.0542  -40.7319 H         1 UNK         0.0600 
    149 H149       -0.0135  -21.2102  -43.3530 H         1 UNK         0.3000 
    150 H150       -1.8795  -22.8625  -45.8320 H         1 UNK         0.0600 
    151 H151       -3.4073  -23.2348  -43.8562 H         1 UNK         0.0600 
    152 H152       -3.8975  -21.8541  -44.8239 H         1 UNK         0.0600 
    153 H153       -3.0574  -21.6052  -43.2974 H         1 UNK         0.0600 
    154 H154       -2.0027  -20.1730  -44.9719 H         1 UNK         0.3000 
    155 H155        0.7425  -18.9581  -46.9449 H         1 UNK         0.0600 
    156 H156       -1.2078  -17.4936  -47.4568 H         1 UNK         0.0600 
    157 H157       -1.4077  -19.0821  -48.1763 H         1 UNK         0.0600 
    158 H158       -2.2995  -18.6603  -46.7324 H         1 UNK         0.0600 
    159 H159       -0.7004  -17.5421  -45.0244 H         1 UNK         0.3000 
    160 H160        1.2722  -18.1687  -42.1095 H         1 UNK         0.0600 
    161 H161        0.9549  -15.7598  -43.9794 H         1 UNK         0.0600 
    162 H162        2.4610  -16.4094  -43.3535 H         1 UNK         0.0600 
    163 H163        1.3086  -15.6669  -42.2542 H         1 UNK         0.0600 
    164 H164       -1.1182  -16.6532  -42.8424 H         1 UNK         0.3000 
    165 H165       -3.4054  -19.0866  -41.6005 H         1 UNK         0.0600 
    166 H166       -4.1113  -17.2308  -40.1136 H         1 UNK         0.0600 
    167 H167       -2.6290  -17.9546  -39.5108 H         1 UNK         0.0600 
    168 H168       -2.5676  -16.4114  -40.3539 H         1 UNK         0.0600 
    169 H169       -3.7501  -16.4055  -42.5319 H         1 UNK         0.3000 
    170 H170       -3.8223  -17.0759  -46.0016 H         1 UNK         0.0600 
    171 H171       -6.0901  -17.8535  -45.2220 H         1 UNK         0.0600 
    172 H172       -6.1787  -16.4710  -44.1398 H         1 UNK         0.0600 
    173 H173       -6.1226  -16.2295  -45.8878 H         1 UNK         0.0600 
    174 H174       -4.5024  -14.7138  -44.6970 H         1 UNK         0.3000 
    175 H175       -3.2042  -12.9938  -44.3322 H         1 UNK         0.0600 
    176 H176       -0.3390  -13.6836  -43.4801 H         1 UNK         0.0600 
    177 H177       -1.1947  -12.1808  -43.1464 H         1 UNK         0.0600 
    178 H178       -1.7437  -13.6837  -42.4206 H         1 UNK         0.0600 
    179 H179       -0.6402  -13.0074  -45.8047 H         1 UNK         0.3000 
    180 H180       -2.1109  -12.4823  -48.9424 H         1 UNK         0.0600 
    181 H181       -0.5868  -10.3665  -47.3386 H         1 UNK         0.0600 
    182 H182       -2.1544  -10.1294  -48.1021 H         1 UNK         0.0600 
    183 H183       -0.7392  -10.4360  -49.0954 H         1 UNK         0.0600 
    184 H184        0.5942  -12.3685  -48.3181 H         1 UNK         0.3000 
    185 H185        1.9902  -14.1899  -47.8953 H         1 UNK         0.0600 
    186 H186        0.8806  -16.9430  -48.6742 H         1 UNK         0.0600 
    187 H187        2.5280  -16.5811  -48.1695 H         1 UNK         0.0600 
    188 H188        1.2067  -16.4148  -47.0233 H         1 UNK         0.0600 
    189 H189        0.7968  -14.7283  -50.5322 H         1 UNK         0.3000 
    190 H190        2.0066  -22.6478  -46.4147 H         1 UNK         0.3000 
    191 H191        3.0629  -25.0337  -47.8779 H         1 UNK         0.0600 
    192 H192        1.3988  -22.6968  -48.9512 H         1 UNK         0.0600 
    193 H193        1.7942  -24.1664  -49.8410 H         1 UNK         0.0600 
    194 H194        3.0685  -23.0470  -49.3758 H         1 UNK         0.0600 
    195 H195        2.0176  -26.6079  -46.8631 H         1 UNK         0.3000 
    196 H196        0.0774  -26.5984  -45.0618 H         1 UNK         0.0600 
    197 H197        0.6802  -28.8291  -47.0604 H         1 UNK         0.0600 
    198 H198       -0.1840  -29.0470  -45.5433 H         1 UNK         0.0600 
    199 H199        1.4942  -28.5317  -45.5244 H         1 UNK         0.0600 
    200 H200       -1.7166  -25.4330  -45.2576 H         1 UNK         0.3000 
    201 H201       -3.8273  -24.8897  -45.5830 H         1 UNK         0.0600 
    202 H202       -4.2861  -27.3072  -45.1276 H         1 UNK         0.0600 
    203 H203       -4.2618  -27.6344  -46.8603 H         1 UNK         0.0600 
    204 H204       -5.4960  -26.5880  -46.1752 H         1 UNK         0.0600 
    205 H205       -1.8142  -24.3380  -47.7920 H         1 UNK         0.3000 
    206 H206       -3.0565  -24.4178  -50.3059 H         1 UNK         0.0600 
    207 H207       -0.6485  -24.0171  -49.9857 H         1 UNK         0.0600 
    208 H208       -1.3448  -22.7074  -50.9262 H         1 UNK         0.0600 
    209 H209       -0.9757  -22.4575  -49.2211 H         1 UNK         0.0600 
    210 H210       -3.7306  -22.2369  -47.6853 H         1 UNK         0.3000 
    211 H211       -4.8568  -20.0496  -49.0608 H         1 UNK         0.0600 
    212 H212       -5.6106  -21.1902  -46.3222 H         1 UNK         0.0600 
    213 H213       -5.9686  -19.5702  -46.9034 H         1 UNK         0.0600 
    214 H214       -4.3008  -20.0468  -46.6333 H         1 UNK         0.0600 
    215 H215       -6.1088  -23.3017  -48.6421 H         1 UNK         0.3000 
    216 H216       -8.8905  -22.6943  -49.1935 H         1 UNK         0.0600 
    217 H217       -9.0730  -25.1555  -49.4330 H         1 UNK         0.0600 
    218 H218       -8.1743  -24.7551  -47.9768 H         1 UNK         0.0600 
    219 H219       -7.3218  -25.3187  -49.4136 H         1 UNK         0.0600 
    220 H220       -5.9970  -23.1022  -51.1601 H         1 UNK         0.3000 
    221 H221       -7.5169  -23.5205  -53.6674 H         1 UNK         0.0600 
    222 H222       -4.5002  -23.3612  -53.1543 H         1 UNK         0.0600 
    223 H223       -5.4414  -24.8432  -53.3076 H         1 UNK         0.0600 
    224 H224       -5.2786  -23.7572  -54.6790 H         1 UNK         0.0600 
    225 H225       -5.3173  -21.1257  -52.0956 H         1 UNK         0.3000 
    226 H226       -6.6744  -18.9101  -53.4466 H         1 UNK         0.0600 
    227 H227       -4.9591  -19.4616  -55.1468 H         1 UNK         0.0600 
    228 H228       -4.4941  -17.9828  -54.3206 H         1 UNK         0.0600 
    229 H229       -3.6966  -19.5012  -53.9194 H         1 UNK         0.0600 
    230 H230       -7.1810  -17.7821  -51.6726 H         1 UNK         0.3000 
    231 H231       -6.1366  -18.1138  -49.1455 H         1 UNK         0.0600 
    232 H232       -7.4999  -16.1067  -48.5637 H         1 UNK         0.0600 
    233 H233       -8.3772  -17.2125  -49.6073 H         1 UNK         0.0600 
    234 H234       -7.6856  -15.7310  -50.2730 H         1 UNK         0.0600 
    235 H235       -5.0260  -15.7737  -51.5468 H         1 UNK         0.3000 
    236 H236       -3.1172  -14.5654  -49.5942 H         1 UNK         0.0600 
    237 H237       -2.9643  -12.7405  -51.2721 H         1 UNK         0.0600 
    238 H238       -4.6313  -12.9927  -50.7838 H         1 UNK         0.0600 
    239 H239       -4.0651  -13.5987  -52.3413 H         1 UNK         0.0600 
    240 H240       -3.1362  -17.0898  -51.8025 H         1 UNK         0.3000 
    241 H241       -1.7645  -18.0337  -53.2867 H         1 UNK         0.0600 
    242 H242       -1.4590  -15.1416  -55.5162 H         1 UNK         0.3800 
    243 H243       -2.7195  -15.9236  -54.6050 H         1 UNK         0.3800 
    244 H244        0.3805  -17.0156  -51.3625 H         1 UNK         0.0800 
    245 H245        0.6915  -18.1127  -52.6826 H         1 UNK         0.0800 
    246 H246        0.8730  -20.5747  -52.3155 H         1 UNK         0.0800 
    247 H247        0.6123  -21.2823  -50.7433 H         1 UNK         0.0800 
@<TRIPOS>BOND
     1    1    2 1    
     2    1  127 1    
     3    1  128 1    
     4    1  129 1    
     5    2    3 2    
     6    2    4 am   BACKBONE|DICT|INTERRES
     7    4    5 1    
     8    4  130 1    
     9    5    6 1    
    10    5   65 1    
    11    5  131 1    
    12    6    7 1    
    13    6  132 1    
    14    6  133 1    
    15    7    8 1    
    16    8    9 1    
    17    8  134 1    
    18    8  135 1    
    19    9   10 ar   
    20    9   14 ar   
    21   10   11 ar   
    22   10  136 1    
    23   11   12 ar   
    24   11  126 1    
    25   12   13 ar   
    26   12  137 1    
    27   13   14 ar   
    28   13   15 1    
    29   14  138 1    
    30   15   16 1    
    31   15  139 1    
    32   15  140 1    
    33   16   17 1    
    34   17   18 1    
    35   17  141 1    
    36   17  142 1    
    37   18   19 1    
    38   18   67 1    
    39   18  143 1    
    40   19   20 am   BACKBONE|DICT|INTERRES
    41   19  144 1    
    42   20   21 2    
    43   20   22 1    
    44   22   23 1    
    45   22   24 1    
    46   22  145 1    
    47   23  146 1    
    48   23  147 1    
    49   23  148 1    
    50   24   25 am   BACKBONE|DICT|INTERRES
    51   24  149 1    
    52   25   26 2    
    53   25   27 1    
    54   27   28 1    
    55   27   29 1    
    56   27  150 1    
    57   28  151 1    
    58   28  152 1    
    59   28  153 1    
    60   29   30 am   BACKBONE|DICT|INTERRES
    61   29  154 1    
    62   30   31 2    
    63   30   32 1    
    64   32   33 1    
    65   32   34 1    
    66   32  155 1    
    67   33  156 1    
    68   33  157 1    
    69   33  158 1    
    70   34   35 am   BACKBONE|DICT|INTERRES
    71   34  159 1    
    72   35   36 2    
    73   35   37 1    
    74   37   38 1    
    75   37   39 1    
    76   37  160 1    
    77   38  161 1    
    78   38  162 1    
    79   38  163 1    
    80   39   40 am   BACKBONE|DICT|INTERRES
    81   39  164 1    
    82   40   41 2    
    83   40   42 1    
    84   42   43 1    
    85   42   44 1    
    86   42  165 1    
    87   43  166 1    
    88   43  167 1    
    89   43  168 1    
    90   44   45 am   BACKBONE|DICT|INTERRES
    91   44  169 1    
    92   45   46 2    
    93   45   47 1    
    94   47   48 1    
    95   47   49 1    
    96   47  170 1    
    97   48  171 1    
    98   48  172 1    
    99   48  173 1    
   100   49   50 am   BACKBONE|DICT|INTERRES
   101   49  174 1    
   102   50   51 2    
   103   50   52 1    
   104   52   53 1    
   105   52   54 1    
   106   52  175 1    
   107   53  176 1    
   108   53  177 1    
   109   53  178 1    
   110   54   55 am   BACKBONE|DICT|INTERRES
   111   54  179 1    
   112   55   56 2    
   113   55   57 1    
   114   57   58 1    
   115   57   59 1    
   116   57  180 1    
   117   58  181 1    
   118   58  182 1    
   119   58  183 1    
   120   59   60 am   BACKBONE|DICT|INTERRES
   121   59  184 1    
   122   60   61 2    
   123   60   62 1    
   124   62   63 1    
   125   62   64 1    
   126   62  185 1    
   127   63  186 1    
   128   63  187 1    
   129   63  188 1    
   130   64   65 am   BACKBONE|DICT|INTERRES
   131   64  189 1    
   132   65   66 2    
   133   67   68 2    
   134   67   69 am   BACKBONE|DICT|INTERRES
   135   69   70 1    
   136   69  190 1    
   137   70   71 1    
   138   70   72 1    
   139   70  191 1    
   140   71  192 1    
   141   71  193 1    
   142   71  194 1    
   143   72   73 2    
   144   72   74 am   BACKBONE|DICT|INTERRES
   145   74   75 1    
   146   74  195 1    
   147   75   76 1    
   148   75   77 1    
   149   75  196 1    
   150   76  197 1    
   151   76  198 1    
   152   76  199 1    
   153   77   78 2    
   154   77   79 am   BACKBONE|DICT|INTERRES
   155   79   80 1    
   156   79  200 1    
   157   80   81 1    
   158   80   82 1    
   159   80  201 1    
   160   81  202 1    
   161   81  203 1    
   162   81  204 1    
   163   82   83 2    
   164   82   84 am   BACKBONE|DICT|INTERRES
   165   84   85 1    
   166   84  205 1    
   167   85   86 1    
   168   85   87 1    
   169   85  206 1    
   170   86  207 1    
   171   86  208 1    
   172   86  209 1    
   173   87   88 2    
   174   87   89 am   BACKBONE|DICT|INTERRES
   175   89   90 1    
   176   89  210 1    
   177   90   91 1    
   178   90   92 1    
   179   90  211 1    
   180   91  212 1    
   181   91  213 1    
   182   91  214 1    
   183   92   93 2    
   184   92   94 am   BACKBONE|DICT|INTERRES
   185   94   95 1    
   186   94  215 1    
   187   95   96 1    
   188   95   97 1    
   189   95  216 1    
   190   96  217 1    
   191   96  218 1    
   192   96  219 1    
   193   97   98 2    
   194   97   99 am   BACKBONE|DICT|INTERRES
   195   99  100 1    
   196   99  220 1    
   197  100  101 1    
   198  100  102 1    
   199  100  221 1    
   200  101  222 1    
   201  101  223 1    
   202  101  224 1    
   203  102  103 2    
   204  102  104 am   BACKBONE|DICT|INTERRES
   205  104  105 1    
   206  104  225 1    
   207  105  106 1    
   208  105  107 1    
   209  105  226 1    
   210  106  227 1    
   211  106  228 1    
   212  106  229 1    
   213  107  108 2    
   214  107  109 am   BACKBONE|DICT|INTERRES
   215  109  110 1    
   216  109  230 1    
   217  110  111 1    
   218  110  112 1    
   219  110  231 1    
   220  111  232 1    
   221  111  233 1    
   222  111  234 1    
   223  112  113 2    
   224  112  114 am   BACKBONE|DICT|INTERRES
   225  114  115 1    
   226  114  235 1    
   227  115  116 1    
   228  115  117 1    
   229  115  236 1    
   230  116  237 1    
   231  116  238 1    
   232  116  239 1    
   233  117  118 2    
   234  117  119 am   BACKBONE|DICT|INTERRES
   235  119  120 1    
   236  119  240 1    
   237  120  121 1    
   238  120  124 1    
   239  120  241 1    
   240  121  122 am   BACKBONE|DICT|INTERRES
   241  121  123 2    
   242  122  242 1    
   243  122  243 1    
   244  124  125 1    
   245  124  244 1    
   246  124  245 1    
   247  125  126 1    
   248  126  246 1    
   249  126  247 1    
@<TRIPOS>SUBSTRUCTURE
     1 UNK         1 GROUP             0       ****    0 ROOT    
