@<TRIPOS>MOLECULE
3R540
247   249    1
SMALL
USER_CHARGES


@<TRIPOS>ATOM
      1 CA          1.4136  -14.6684  -53.8149 C.3       0 UNK        -0.1800 
      2 C           2.1167  -14.3330  -52.5072 C.2       0 UNK         0.5000 
      3 O           3.1230  -13.6242  -52.5188 O.2       0 UNK        -0.5000 
      4 N           1.5909  -14.8397  -51.3867 N.am      1 UNK        -0.5000 
      5 CA          2.1006  -14.5982  -50.0316 C.3       1 UNK         0.1400 
      6 C6          2.0090  -15.8869  -49.1614 C.3       23 UNK        -0.0398 
      7 S7          3.4665  -16.1681  -48.0973 S.3       23 UNK        -0.2404 
      8 C8          4.7911  -16.5525  -49.2950 C.3       23 UNK        -0.0205 
      9 C9          4.6551  -17.9329  -49.9226 C.ar      23 UNK        -0.0193 
     10 C10         3.8525  -18.1123  -51.0536 C.ar      23 UNK        -0.1150 
     11 C11         3.7347  -19.3699  -51.6478 C.ar      23 UNK        -0.0193 
     12 C12         4.4719  -20.4406  -51.1379 C.ar      23 UNK        -0.1150 
     13 C13         5.2846  -20.2786  -50.0115 C.ar      23 UNK        -0.0193 
     14 C14         5.3638  -19.0223  -49.4012 C.ar      23 UNK        -0.1150 
     15 C15         6.0845  -21.4621  -49.4744 C.3       23 UNK        -0.0205 
     16 S16         5.2316  -22.3568  -48.1304 S.3       23 UNK        -0.2404 
     17 C17         3.6099  -22.6825  -48.8981 C.3       23 UNK        -0.0398 
     18 CA          2.7702  -23.8247  -48.2692 C.3       11 UNK         0.1400 
     19 N           2.7845  -23.7917  -46.8040 N.am      11 UNK        -0.5000 
     20 C           2.0569  -24.5470  -45.9675 C.2       10 UNK         0.5000 
     21 O           1.2788  -25.4305  -46.3251 O.2       10 UNK        -0.5000 
     22 CA          2.1718  -24.2124  -44.4691 C.3       10 UNK         0.1400 
     23 CB          3.2156  -25.1167  -43.7978 C.3       10 UNK        -0.1800 
     24 N           2.4962  -22.8098  -44.1854 N.am      10 UNK        -0.5000 
     25 C           1.8125  -21.7418  -44.6200 C.2       9 UNK         0.5000 
     26 O           0.8457  -21.8047  -45.3840 O.2       9 UNK        -0.5000 
     27 CA          2.3253  -20.3721  -44.1505 C.3       9 UNK         0.1400 
     28 CB          2.7213  -19.5002  -45.3538 C.3       9 UNK        -0.1800 
     29 N           1.3239  -19.6724  -43.3511 N.am      9 UNK        -0.5000 
     30 C           0.8737  -20.0604  -42.1499 C.2       8 UNK         0.5000 
     31 O           1.2720  -21.0664  -41.5616 O.2       8 UNK        -0.5000 
     32 CA         -0.1889  -19.1700  -41.4844 C.3       8 UNK         0.1400 
     33 CB          0.4709  -17.9661  -40.7930 C.3       8 UNK        -0.1800 
     34 N          -1.1681  -18.6856  -42.4564 N.am      8 UNK        -0.5000 
     35 C          -2.3896  -19.2069  -42.6325 C.2       7 UNK         0.5000 
     36 O          -2.8350  -20.1405  -41.9642 O.2       7 UNK        -0.5000 
     37 CA         -3.2810  -18.5832  -43.7263 C.3       7 UNK         0.1400 
     38 CB         -4.2880  -17.6035  -43.1055 C.3       7 UNK        -0.1800 
     39 N          -2.5327  -17.8891  -44.7749 N.am      7 UNK        -0.5000 
     40 C          -1.7580  -18.4967  -45.6831 C.2       6 UNK         0.5000 
     41 O          -1.6774  -19.7171  -45.7937 O.2       6 UNK        -0.5000 
     42 CA         -0.9056  -17.5946  -46.5980 C.3       6 UNK         0.1400 
     43 CB         -1.6276  -17.3236  -47.9257 C.3       6 UNK        -0.1800 
     44 N          -0.5346  -16.3171  -45.9843 N.am      6 UNK        -0.5000 
     45 C           0.2069  -16.1752  -44.8767 C.2       5 UNK         0.5000 
     46 O           0.6258  -17.1208  -44.2138 O.2       5 UNK        -0.5000 
     47 CA          0.4924  -14.7440  -44.4034 C.3       5 UNK         0.1400 
     48 CB          1.6353  -14.1263  -45.2175 C.3       5 UNK        -0.1800 
     49 N          -0.7019  -13.9105  -44.5150 N.am      5 UNK        -0.5000 
     50 C          -1.6543  -13.8363  -43.5754 C.2       4 UNK         0.5000 
     51 O          -1.5908  -14.4127  -42.4892 O.2       4 UNK        -0.5000 
     52 CA         -2.8975  -12.9888  -43.9088 C.3       4 UNK         0.1400 
     53 CB         -2.6839  -11.5282  -43.4838 C.3       4 UNK        -0.1800 
     54 N          -3.2622  -13.0274  -45.3261 N.am      4 UNK        -0.5000 
     55 C          -3.6879  -14.1222  -45.9704 C.2       3 UNK         0.5000 
     56 O          -3.8274  -15.2217  -45.4353 O.2       3 UNK        -0.5000 
     57 CA         -3.9539  -13.9732  -47.4798 C.3       3 UNK         0.1400 
     58 CB         -5.3960  -13.5121  -47.7347 C.3       3 UNK        -0.1800 
     59 N          -3.0232  -13.0801  -48.1842 N.am      3 UNK        -0.5000 
     60 C          -1.6914  -13.2270  -48.2154 C.2       2 UNK         0.5000 
     61 O          -1.0848  -14.0468  -47.5245 O.2       2 UNK        -0.5000 
     62 CA         -0.9173  -12.3291  -49.1965 C.3       2 UNK         0.1400 
     63 CB         -0.4349  -11.0298  -48.5226 C.3       2 UNK        -0.1800 
     64 N           0.1561  -13.1057  -49.8344 N.am      2 UNK        -0.5000 
     65 C           1.3739  -13.4151  -49.3567 C.2       1 UNK         0.5000 
     66 O           1.9299  -12.8290  -48.4289 O.2       1 UNK        -0.5000 
     67 C           1.3472  -23.7257  -48.8561 C.2       11 UNK         0.5000 
     68 O           1.0272  -24.4339  -49.8108 O.2       11 UNK        -0.5000 
     69 N           0.5452  -22.8228  -48.2769 N.am      12 UNK        -0.5000 
     70 CA         -0.7978  -22.4912  -48.7313 C.3       12 UNK         0.1400 
     71 CB         -0.8926  -20.9747  -48.9289 C.3       12 UNK        -0.1800 
     72 C          -1.8654  -22.9817  -47.7483 C.2       12 UNK         0.5000 
     73 O          -2.9368  -23.3897  -48.1971 O.2       12 UNK        -0.5000 
     74 N          -1.5653  -22.9644  -46.4421 N.am      13 UNK        -0.5000 
     75 CA         -2.4862  -23.3687  -45.3809 C.3       13 UNK         0.1400 
     76 CB         -1.8918  -22.9998  -44.0139 C.3       13 UNK        -0.1800 
     77 C          -2.8549  -24.8621  -45.4365 C.2       13 UNK         0.5000 
     78 O          -4.0251  -25.1983  -45.2539 O.2       13 UNK        -0.5000 
     79 N          -1.8704  -25.7281  -45.7235 N.am      14 UNK        -0.5000 
     80 CA         -2.0833  -27.1718  -45.8716 C.3       14 UNK         0.1400 
     81 CB         -0.7548  -27.9130  -45.6607 C.3       14 UNK        -0.1800 
     82 C          -2.6928  -27.5397  -47.2377 C.2       14 UNK         0.5000 
     83 O          -3.3857  -28.5522  -47.3414 O.2       14 UNK        -0.5000 
     84 N          -2.4288  -26.7113  -48.2570 N.am      15 UNK        -0.5000 
     85 CA         -2.9294  -26.8762  -49.6231 C.3       15 UNK         0.1400 
     86 CB         -1.9805  -26.1392  -50.5814 C.3       15 UNK        -0.1800 
     87 C          -4.3714  -26.3645  -49.8098 C.2       15 UNK         0.5000 
     88 O          -4.9822  -26.6638  -50.8362 O.2       15 UNK        -0.5000 
     89 N          -4.8686  -25.5795  -48.8412 N.am      16 UNK        -0.5000 
     90 CA         -6.1234  -24.8190  -48.8630 C.3       16 UNK         0.1400 
     91 CB         -7.3500  -25.7514  -48.9454 C.3       16 UNK        -0.1800 
     92 C          -6.1231  -23.7101  -49.9398 C.2       16 UNK         0.5000 
     93 O          -7.1739  -23.3709  -50.4858 O.2       16 UNK        -0.5000 
     94 N          -4.9358  -23.1488  -50.2047 N.am      17 UNK        -0.5000 
     95 CA         -4.6945  -22.0572  -51.1502 C.3       17 UNK         0.1400 
     96 CB         -3.3960  -22.3430  -51.9214 C.3       17 UNK        -0.1800 
     97 C          -4.6206  -20.6902  -50.4444 C.2       17 UNK         0.5000 
     98 O          -4.3559  -19.6840  -51.1037 O.2       17 UNK        -0.5000 
     99 N          -4.8527  -20.6649  -49.1231 N.am      18 UNK        -0.5000 
    100 CA        -4.8434  -19.4713  -48.2758 C.3       18 UNK         0.1400 
    101 CB        -5.0752  -19.8841  -46.8168 C.3       18 UNK        -0.1800 
    102 C         -5.8659  -18.4055  -48.7072 C.2       18 UNK         0.5000 
    103 O         -5.5439  -17.2178  -48.7087 O.2       18 UNK        -0.5000 
    104 N         -7.0548  -18.8574  -49.1307 N.am      19 UNK        -0.5000 
    105 CA        -8.1279  -18.0177  -49.6718 C.3       19 UNK         0.1400 
    106 CB        -9.4091  -18.8581  -49.7817 C.3       19 UNK        -0.1800 
    107 C         -7.7805  -17.3832  -51.0343 C.2       19 UNK         0.5000 
    108 O         -8.3302  -16.3351  -51.3730 O.2       19 UNK        -0.5000 
    109 N         -6.8609  -18.0159  -51.7748 N.am      20 UNK        -0.5000 
    110 CA        -6.2928  -17.5214  -53.0286 C.3       20 UNK         0.1400 
    111 CB        -6.0757  -18.7165  -53.9732 C.3       20 UNK        -0.1800 
    112 C         -4.9748  -16.7524  -52.8012 C.2       20 UNK         0.5000 
    113 O         -4.3341  -16.3617  -53.7778 O.2       20 UNK        -0.5000 
    114 N         -4.5682  -16.5754  -51.5325 N.am      21 UNK        -0.5000 
    115 CA        -3.3584  -15.8907  -51.0644 C.3       21 UNK         0.1400 
    116 CB        -3.4332  -14.3906  -51.4135 C.3       21 UNK        -0.1800 
    117 C         -2.0362  -16.5318  -51.5380 C.2       21 UNK         0.5000 
    118 O         -1.0005  -15.8645  -51.5160 O.2       21 UNK        -0.5000 
    119 N         -2.0873  -17.8019  -51.9620 N.am      22 UNK        -0.5000 
    120 CA        -1.0272  -18.4970  -52.7121 C.3       22 UNK         0.1400 
    121 C         -0.8124  -17.9567  -54.1647 C.2       22 UNK         0.5000 
    122 N         -1.7387  -17.1989  -54.7410 N.am      22 UNK        -0.7600 
    123 O          0.2004  -18.2371  -54.7984 O.2       22 UNK        -0.5000 
    124 C124        0.2971  -18.6353  -51.9037 C.3       23 UNK        -0.0398 
    125 S125        1.1794  -20.1918  -52.2804 S.3       23 UNK        -0.2404 
    126 C126        2.8063  -19.5854  -52.8321 C.3       23 UNK        -0.0205 
    127 H127        0.4768  -15.1995  -53.6492 H         1 UNK         0.0600 
    128 H128        2.0535  -15.2964  -54.4347 H         1 UNK         0.0600 
    129 H129        1.1898  -13.7557  -54.3671 H         1 UNK         0.0600 
    130 H130        0.7201  -15.3668  -51.4479 H         1 UNK         0.3000 
    131 H131        3.1463  -14.2982  -50.1063 H         1 UNK         0.0600 
    132 H132        1.8681  -16.7742  -49.7762 H         1 UNK         0.0800 
    133 H133        1.1308  -15.8685  -48.5143 H         1 UNK         0.0800 
    134 H134        4.8296  -15.7947  -50.0776 H         1 UNK         0.0800 
    135 H135        5.7477  -16.4829  -48.7750 H         1 UNK         0.0800 
    136 H136        3.3131  -17.2735  -51.4690 H         1 UNK         0.1150 
    137 H137        4.3985  -21.4078  -51.6145 H         1 UNK         0.1150 
    138 H138        5.9900  -18.8900  -48.5300 H         1 UNK         0.1150 
    139 H139        6.3049  -22.1620  -50.2820 H         1 UNK         0.0800 
    140 H140        7.0510  -21.1143  -49.1069 H         1 UNK         0.0800 
    141 H141        3.7678  -22.9099  -49.9531 H         1 UNK         0.0800 
    142 H142        3.0671  -21.7345  -48.8669 H         1 UNK         0.0800 
    143 H143        3.1972  -24.7828  -48.5714 H         1 UNK         0.0600 
    144 H144        3.3982  -23.1012  -46.3971 H         1 UNK         0.3000 
    145 H145        1.2017  -24.4211  -44.0158 H         1 UNK         0.0600 
    146 H146        3.2361  -24.9632  -42.7187 H         1 UNK         0.0600 
    147 H147        2.9889  -26.1699  -43.9698 H         1 UNK         0.0600 
    148 H148        4.2183  -24.9290  -44.1841 H         1 UNK         0.0600 
    149 H149        3.2725  -22.6576  -43.5578 H         1 UNK         0.3000 
    150 H150        3.2115  -20.5128  -43.5286 H         1 UNK         0.0600 
    151 H151        3.4966  -19.9830  -45.9504 H         1 UNK         0.0600 
    152 H152        3.1113  -18.5341  -45.0326 H         1 UNK         0.0600 
    153 H153        1.8727  -19.3137  -46.0118 H         1 UNK         0.0600 
    154 H154        0.9703  -18.8032  -43.7444 H         1 UNK         0.3000 
    155 H155       -0.6838  -19.7639  -40.7131 H         1 UNK         0.0600 
    156 H156        0.9954  -17.3260  -41.5033 H         1 UNK         0.0600 
    157 H157        1.1970  -18.2939  -40.0481 H         1 UNK         0.0600 
    158 H158       -0.2702  -17.3544  -40.2781 H         1 UNK         0.0600 
    159 H159       -0.8535  -17.9527  -43.0811 H         1 UNK         0.3000 
    160 H160       -3.8381  -19.4017  -44.1844 H         1 UNK         0.0600 
    161 H161       -3.7878  -16.7378  -42.6691 H         1 UNK         0.0600 
    162 H162       -4.8687  -18.0828  -42.3164 H         1 UNK         0.0600 
    163 H163       -4.9943  -17.2406  -43.8525 H         1 UNK         0.0600 
    164 H164       -2.6154  -16.8793  -44.8025 H         1 UNK         0.3000 
    165 H165        0.0203  -18.1269  -46.8203 H         1 UNK         0.0600 
    166 H166       -1.0825  -16.6123  -48.5444 H         1 UNK         0.0600 
    167 H167       -1.7249  -18.2379  -48.5090 H         1 UNK         0.0600 
    168 H168       -2.6281  -16.9255  -47.7592 H         1 UNK         0.0600 
    169 H169       -0.8193  -15.4768  -46.4845 H         1 UNK         0.3000 
    170 H170        0.8110  -14.7877  -43.3596 H         1 UNK         0.0600 
    171 H171        2.5528  -14.7052  -45.1043 H         1 UNK         0.0600 
    172 H172        1.3956  -14.1028  -46.2791 H         1 UNK         0.0600 
    173 H173        1.8480  -13.1066  -44.8970 H         1 UNK         0.0600 
    174 H174       -0.8610  -13.4679  -45.4107 H         1 UNK         0.3000 
    175 H175       -3.7347  -13.3930  -43.3356 H         1 UNK         0.0600 
    176 H176       -1.8733  -11.0601  -44.0438 H         1 UNK         0.0600 
    177 H177       -3.5859  -10.9360  -43.6387 H         1 UNK         0.0600 
    178 H178       -2.4317  -11.4629  -42.4245 H         1 UNK         0.0600 
    179 H179       -3.1639  -12.1696  -45.8487 H         1 UNK         0.3000 
    180 H180       -3.8460  -14.9651  -47.9184 H         1 UNK         0.0600 
    181 H181       -5.5688  -12.5020  -47.3616 H         1 UNK         0.0600 
    182 H182       -6.1091  -14.1735  -47.2403 H         1 UNK         0.0600 
    183 H183       -5.6323  -13.5250  -48.7987 H         1 UNK         0.0600 
    184 H184       -3.4473  -12.3627  -48.7544 H         1 UNK         0.3000 
    185 H185       -1.5915  -12.0402  -50.0032 H         1 UNK         0.0600 
    186 H186       -1.2819  -10.3932  -48.2652 H         1 UNK         0.0600 
    187 H187        0.1093  -11.2237  -47.5977 H         1 UNK         0.0600 
    188 H188        0.2140  -10.4563  -49.1845 H         1 UNK         0.0600 
    189 H189       -0.1518  -13.6601  -50.6216 H         1 UNK         0.3000 
    190 H190        0.8750  -22.3355  -47.4515 H         1 UNK         0.3000 
    191 H191       -0.9988  -22.9668  -49.6917 H         1 UNK         0.0600 
    192 H192       -0.2305  -20.6539  -49.7295 H         1 UNK         0.0600 
    193 H193       -1.9033  -20.6672  -49.1955 H         1 UNK         0.0600 
    194 H194       -0.6033  -20.4355  -48.0282 H         1 UNK         0.0600 
    195 H195       -0.6875  -22.5517  -46.1359 H         1 UNK         0.3000 
    196 H196       -3.4063  -22.7950  -45.5107 H         1 UNK         0.0600 
    197 H197       -2.5930  -23.2217  -43.2087 H         1 UNK         0.0600 
    198 H198       -1.6624  -21.9353  -43.9605 H         1 UNK         0.0600 
    199 H199       -0.9723  -23.5476  -43.8113 H         1 UNK         0.0600 
    200 H200       -0.9295  -25.3865  -45.8790 H         1 UNK         0.3000 
    201 H201       -2.7772  -27.5043  -45.0964 H         1 UNK         0.0600 
    202 H202       -0.2913  -27.6374  -44.7132 H         1 UNK         0.0600 
    203 H203       -0.0430  -27.7006  -46.4589 H         1 UNK         0.0600 
    204 H204       -0.9116  -28.9922  -45.6453 H         1 UNK         0.0600 
    205 H205       -1.8558  -25.9000  -48.0788 H         1 UNK         0.3000 
    206 H206       -2.9185  -27.9375  -49.8800 H         1 UNK         0.0600 
    207 H207       -0.9578  -26.5047  -50.4858 H         1 UNK         0.0600 
    208 H208       -2.2809  -26.2849  -51.6198 H         1 UNK         0.0600 
    209 H209       -1.9715  -25.0657  -50.3926 H         1 UNK         0.0600 
    210 H210       -4.2566  -25.3722  -48.0632 H         1 UNK         0.3000 
    211 H211       -6.1725  -24.3023  -47.9034 H         1 UNK         0.0600 
    212 H212       -7.4264  -26.2412  -49.9163 H         1 UNK         0.0600 
    213 H213       -8.2740  -25.1934  -48.7904 H         1 UNK         0.0600 
    214 H214       -7.3078  -26.5263  -48.1800 H         1 UNK         0.0600 
    215 H215       -4.1393  -23.4403  -49.6430 H         1 UNK         0.3000 
    216 H216       -5.5108  -22.0034  -51.8730 H         1 UNK         0.0600 
    217 H217       -3.2322  -21.5988  -52.7019 H         1 UNK         0.0600 
    218 H218       -3.4317  -23.3186  -52.4065 H         1 UNK         0.0600 
    219 H219       -2.5258  -22.3254  -51.2677 H         1 UNK         0.0600 
    220 H220       -5.0298  -21.5447  -48.6620 H         1 UNK         0.3000 
    221 H221       -3.8534  -19.0252  -48.3517 H         1 UNK         0.0600 
    222 H222       -6.0247  -20.4047  -46.6882 H         1 UNK         0.0600 
    223 H223       -4.2801  -20.5413  -46.4638 H         1 UNK         0.0600 
    224 H224       -5.0902  -19.0086  -46.1666 H         1 UNK         0.0600 
    225 H225       -7.2282  -19.8517  -49.1045 H         1 UNK         0.3000 
    226 H226       -8.3096  -17.2035  -48.9669 H         1 UNK         0.0600 
    227 H227       -9.7086  -19.2503  -48.8096 H         1 UNK         0.0600 
    228 H228      -10.2390  -18.2584  -50.1581 H         1 UNK         0.0600 
    229 H229       -9.2798  -19.7024  -50.4602 H         1 UNK         0.0600 
    230 H230       -6.4258  -18.8471  -51.3982 H         1 UNK         0.3000 
    231 H231       -6.9915  -16.8331  -53.5082 H         1 UNK         0.0600 
    232 H232       -7.0047  -19.2624  -54.1376 H         1 UNK         0.0600 
    233 H233       -5.3401  -19.4180  -53.5789 H         1 UNK         0.0600 
    234 H234       -5.7196  -18.3852  -54.9495 H         1 UNK         0.0600 
    235 H235       -5.1495  -16.9533  -50.7945 H         1 UNK         0.3000 
    236 H236       -3.3574  -15.9809  -49.9792 H         1 UNK         0.0600 
    237 H237       -2.5770  -13.8515  -51.0172 H         1 UNK         0.0600 
    238 H238       -3.4411  -14.2218  -52.4903 H         1 UNK         0.0600 
    239 H239       -4.3292  -13.9330  -50.9949 H         1 UNK         0.0600 
    240 H240       -2.9689  -18.2978  -51.8838 H         1 UNK         0.3000 
    241 H241       -1.4324  -19.4997  -52.8529 H         1 UNK         0.0600 
    242 H242       -1.5813  -16.8700  -55.6797 H         1 UNK         0.3800 
    243 H243       -2.6018  -16.9472  -54.2670 H         1 UNK         0.3800 
    244 H244        0.0880  -18.6377  -50.8340 H         1 UNK         0.0800 
    245 H245        0.9446  -17.7738  -52.0697 H         1 UNK         0.0800 
    246 H246        2.6942  -18.6698  -53.4150 H         1 UNK         0.0800 
    247 H247        3.2425  -20.3215  -53.5089 H         1 UNK         0.0800 
@<TRIPOS>BOND
     1    1    2 1    
     2    1  127 1    
     3    1  128 1    
     4    1  129 1    
     5    2    3 2    
     6    2    4 am   BACKBONE|DICT|INTERRES
     7    4    5 1    
     8    4  130 1    
     9    5    6 1    
    10    5   65 1    
    11    5  131 1    
    12    6    7 1    
    13    6  132 1    
    14    6  133 1    
    15    7    8 1    
    16    8    9 1    
    17    8  134 1    
    18    8  135 1    
    19    9   10 ar   
    20    9   14 ar   
    21   10   11 ar   
    22   10  136 1    
    23   11   12 ar   
    24   11  126 1    
    25   12   13 ar   
    26   12  137 1    
    27   13   14 ar   
    28   13   15 1    
    29   14  138 1    
    30   15   16 1    
    31   15  139 1    
    32   15  140 1    
    33   16   17 1    
    34   17   18 1    
    35   17  141 1    
    36   17  142 1    
    37   18   19 1    
    38   18   67 1    
    39   18  143 1    
    40   19   20 am   BACKBONE|DICT|INTERRES
    41   19  144 1    
    42   20   21 2    
    43   20   22 1    
    44   22   23 1    
    45   22   24 1    
    46   22  145 1    
    47   23  146 1    
    48   23  147 1    
    49   23  148 1    
    50   24   25 am   BACKBONE|DICT|INTERRES
    51   24  149 1    
    52   25   26 2    
    53   25   27 1    
    54   27   28 1    
    55   27   29 1    
    56   27  150 1    
    57   28  151 1    
    58   28  152 1    
    59   28  153 1    
    60   29   30 am   BACKBONE|DICT|INTERRES
    61   29  154 1    
    62   30   31 2    
    63   30   32 1    
    64   32   33 1    
    65   32   34 1    
    66   32  155 1    
    67   33  156 1    
    68   33  157 1    
    69   33  158 1    
    70   34   35 am   BACKBONE|DICT|INTERRES
    71   34  159 1    
    72   35   36 2    
    73   35   37 1    
    74   37   38 1    
    75   37   39 1    
    76   37  160 1    
    77   38  161 1    
    78   38  162 1    
    79   38  163 1    
    80   39   40 am   BACKBONE|DICT|INTERRES
    81   39  164 1    
    82   40   41 2    
    83   40   42 1    
    84   42   43 1    
    85   42   44 1    
    86   42  165 1    
    87   43  166 1    
    88   43  167 1    
    89   43  168 1    
    90   44   45 am   BACKBONE|DICT|INTERRES
    91   44  169 1    
    92   45   46 2    
    93   45   47 1    
    94   47   48 1    
    95   47   49 1    
    96   47  170 1    
    97   48  171 1    
    98   48  172 1    
    99   48  173 1    
   100   49   50 am   BACKBONE|DICT|INTERRES
   101   49  174 1    
   102   50   51 2    
   103   50   52 1    
   104   52   53 1    
   105   52   54 1    
   106   52  175 1    
   107   53  176 1    
   108   53  177 1    
   109   53  178 1    
   110   54   55 am   BACKBONE|DICT|INTERRES
   111   54  179 1    
   112   55   56 2    
   113   55   57 1    
   114   57   58 1    
   115   57   59 1    
   116   57  180 1    
   117   58  181 1    
   118   58  182 1    
   119   58  183 1    
   120   59   60 am   BACKBONE|DICT|INTERRES
   121   59  184 1    
   122   60   61 2    
   123   60   62 1    
   124   62   63 1    
   125   62   64 1    
   126   62  185 1    
   127   63  186 1    
   128   63  187 1    
   129   63  188 1    
   130   64   65 am   BACKBONE|DICT|INTERRES
   131   64  189 1    
   132   65   66 2    
   133   67   68 2    
   134   67   69 am   BACKBONE|DICT|INTERRES
   135   69   70 1    
   136   69  190 1    
   137   70   71 1    
   138   70   72 1    
   139   70  191 1    
   140   71  192 1    
   141   71  193 1    
   142   71  194 1    
   143   72   73 2    
   144   72   74 am   BACKBONE|DICT|INTERRES
   145   74   75 1    
   146   74  195 1    
   147   75   76 1    
   148   75   77 1    
   149   75  196 1    
   150   76  197 1    
   151   76  198 1    
   152   76  199 1    
   153   77   78 2    
   154   77   79 am   BACKBONE|DICT|INTERRES
   155   79   80 1    
   156   79  200 1    
   157   80   81 1    
   158   80   82 1    
   159   80  201 1    
   160   81  202 1    
   161   81  203 1    
   162   81  204 1    
   163   82   83 2    
   164   82   84 am   BACKBONE|DICT|INTERRES
   165   84   85 1    
   166   84  205 1    
   167   85   86 1    
   168   85   87 1    
   169   85  206 1    
   170   86  207 1    
   171   86  208 1    
   172   86  209 1    
   173   87   88 2    
   174   87   89 am   BACKBONE|DICT|INTERRES
   175   89   90 1    
   176   89  210 1    
   177   90   91 1    
   178   90   92 1    
   179   90  211 1    
   180   91  212 1    
   181   91  213 1    
   182   91  214 1    
   183   92   93 2    
   184   92   94 am   BACKBONE|DICT|INTERRES
   185   94   95 1    
   186   94  215 1    
   187   95   96 1    
   188   95   97 1    
   189   95  216 1    
   190   96  217 1    
   191   96  218 1    
   192   96  219 1    
   193   97   98 2    
   194   97   99 am   BACKBONE|DICT|INTERRES
   195   99  100 1    
   196   99  220 1    
   197  100  101 1    
   198  100  102 1    
   199  100  221 1    
   200  101  222 1    
   201  101  223 1    
   202  101  224 1    
   203  102  103 2    
   204  102  104 am   BACKBONE|DICT|INTERRES
   205  104  105 1    
   206  104  225 1    
   207  105  106 1    
   208  105  107 1    
   209  105  226 1    
   210  106  227 1    
   211  106  228 1    
   212  106  229 1    
   213  107  108 2    
   214  107  109 am   BACKBONE|DICT|INTERRES
   215  109  110 1    
   216  109  230 1    
   217  110  111 1    
   218  110  112 1    
   219  110  231 1    
   220  111  232 1    
   221  111  233 1    
   222  111  234 1    
   223  112  113 2    
   224  112  114 am   BACKBONE|DICT|INTERRES
   225  114  115 1    
   226  114  235 1    
   227  115  116 1    
   228  115  117 1    
   229  115  236 1    
   230  116  237 1    
   231  116  238 1    
   232  116  239 1    
   233  117  118 2    
   234  117  119 am   BACKBONE|DICT|INTERRES
   235  119  120 1    
   236  119  240 1    
   237  120  121 1    
   238  120  124 1    
   239  120  241 1    
   240  121  122 am   BACKBONE|DICT|INTERRES
   241  121  123 2    
   242  122  242 1    
   243  122  243 1    
   244  124  125 1    
   245  124  244 1    
   246  124  245 1    
   247  125  126 1    
   248  126  246 1    
   249  126  247 1    
@<TRIPOS>SUBSTRUCTURE
     1 UNK         1 GROUP             0       ****    0 ROOT    
