@<TRIPOS>MOLECULE
3R540
247   249    1
SMALL
USER_CHARGES


@<TRIPOS>ATOM
      1 CA         -4.7960  -14.6189  -45.7642 C.3       0 UNK        -0.1800 
      2 C          -3.4198  -13.9810  -45.6434 C.2       0 UNK         0.5000 
      3 O          -2.4266  -14.6932  -45.5232 O.2       0 UNK        -0.5000 
      4 N          -3.3539  -12.6441  -45.6653 N.am      1 UNK        -0.5000 
      5 CA         -2.1553  -11.7871  -45.6179 C.3       1 UNK         0.1400 
      6 C6         -1.0860  -12.0755  -46.7094 C.3       23 UNK        -0.0398 
      7 S7         -1.7724  -12.2105  -48.3929 S.3       23 UNK        -0.2404 
      8 C8         -1.2507  -13.8968  -48.8423 C.3       23 UNK        -0.0205 
      9 C9         -2.1808  -14.4955  -49.8813 C.ar      23 UNK        -0.0193 
     10 C10        -2.1036  -14.0858  -51.2146 C.ar      23 UNK        -0.1150 
     11 C11        -2.9664  -14.6238  -52.1736 C.ar      23 UNK        -0.0193 
     12 C12        -3.9076  -15.5831  -51.7884 C.ar      23 UNK        -0.1150 
     13 C13        -3.9807  -16.0135  -50.4603 C.ar      23 UNK        -0.0193 
     14 C14        -3.1203  -15.4603  -49.5088 C.ar      23 UNK        -0.1150 
     15 C15        -4.9823  -17.0846  -50.0624 C.3       23 UNK        -0.0205 
     16 S16        -4.3596  -18.7416  -50.4757 S.3       23 UNK        -0.2404 
     17 C17        -3.1340  -19.0270  -49.1549 C.3       23 UNK        -0.0398 
     18 CA         -3.2994  -20.4229  -48.5094 C.3       11 UNK         0.1400 
     19 N          -2.0393  -20.9180  -47.9610 N.am      11 UNK        -0.5000 
     20 C          -1.8081  -22.1968  -47.6360 C.2       10 UNK         0.5000 
     21 O          -2.6380  -23.1046  -47.7257 O.2       10 UNK        -0.5000 
     22 CA         -0.4124  -22.5025  -47.0777 C.3       10 UNK         0.1400 
     23 CB          0.6481  -22.4042  -48.1847 C.3       10 UNK        -0.1800 
     24 N          -0.0498  -21.6366  -45.9548 N.am      10 UNK        -0.5000 
     25 C          -0.7520  -21.5047  -44.8184 C.2       9 UNK         0.5000 
     26 O          -1.7860  -22.1278  -44.5698 O.2       9 UNK        -0.5000 
     27 CA         -0.2360  -20.4738  -43.8015 C.3       9 UNK         0.1400 
     28 CB          0.9729  -21.0258  -43.0320 C.3       9 UNK        -0.1800 
     29 N           0.1150  -19.1959  -44.4190 N.am      9 UNK        -0.5000 
     30 C          -0.7296  -18.4195  -45.1132 C.2       8 UNK         0.5000 
     31 O          -1.9126  -18.6899  -45.3110 O.2       8 UNK        -0.5000 
     32 CA         -0.1268  -17.1578  -45.7469 C.3       8 UNK         0.1400 
     33 CB          0.1775  -16.0996  -44.6721 C.3       8 UNK        -0.1800 
     34 N           1.0761  -17.4728  -46.5178 N.am      8 UNK        -0.5000 
     35 C           1.0903  -18.2551  -47.6087 C.2       7 UNK         0.5000 
     36 O           0.0793  -18.7330  -48.1258 O.2       7 UNK        -0.5000 
     37 CA          2.4737  -18.6120  -48.1807 C.3       7 UNK         0.1400 
     38 CB          2.9499  -17.5516  -49.1816 C.3       7 UNK        -0.1800 
     39 N           3.4794  -18.7846  -47.1309 N.am      7 UNK        -0.5000 
     40 C           3.5096  -19.8322  -46.2942 C.2       6 UNK         0.5000 
     41 O           2.7040  -20.7610  -46.3339 O.2       6 UNK        -0.5000 
     42 CA          4.5882  -19.8188  -45.1963 C.3       6 UNK         0.1400 
     43 CB          5.9180  -20.3663  -45.7350 C.3       6 UNK        -0.1800 
     44 N           4.8058  -18.4907  -44.6224 N.am      6 UNK        -0.5000 
     45 C           3.8740  -17.7783  -43.9755 C.2       5 UNK         0.5000 
     46 O           2.7276  -18.1824  -43.7830 O.2       5 UNK        -0.5000 
     47 CA          4.2715  -16.3787  -43.4696 C.3       5 UNK         0.1400 
     48 CB          5.7957  -16.1847  -43.3109 C.3       5 UNK        -0.1800 
     49 N           3.7097  -15.2979  -44.2854 N.am      5 UNK        -0.5000 
     50 C           3.8800  -15.0835  -45.6012 C.2       4 UNK         0.5000 
     51 O           4.4270  -15.8884  -46.3564 O.2       4 UNK        -0.5000 
     52 CA          3.3685  -13.7432  -46.1809 C.3       4 UNK         0.1400 
     53 CB          2.3292  -13.9560  -47.2946 C.3       4 UNK        -0.1800 
     54 N           2.8093  -12.8430  -45.1688 N.am      4 UNK        -0.5000 
     55 C           3.5307  -12.1066  -44.3108 C.2       3 UNK         0.5000 
     56 O           4.7609  -12.0593  -44.3221 O.2       3 UNK        -0.5000 
     57 CA          2.7543  -11.3057  -43.2453 C.3       3 UNK         0.1400 
     58 CB          2.7094   -9.8171  -43.6219 C.3       3 UNK        -0.1800 
     59 N           1.3831  -11.7717  -43.0197 N.am      3 UNK        -0.5000 
     60 C           1.0158  -12.9629  -42.5311 C.2       2 UNK         0.5000 
     61 O           1.8167  -13.8511  -42.2377 O.2       2 UNK        -0.5000 
     62 CA         -0.4990  -13.2252  -42.4050 C.3       2 UNK         0.1400 
     63 CB         -1.0958  -12.5093  -41.1789 C.3       2 UNK        -0.1800 
     64 N          -1.2507  -12.9263  -43.6337 N.am      2 UNK        -0.5000 
     65 C          -1.4724  -11.7484  -44.2351 C.2       1 UNK         0.5000 
     66 O          -1.1171  -10.6642  -43.7711 O.2       1 UNK        -0.5000 
     67 C          -4.4556  -20.4678  -47.4892 C.2       11 UNK         0.5000 
     68 O          -5.5980  -20.6867  -47.8961 O.2       11 UNK        -0.5000 
     69 N          -4.1450  -20.2970  -46.1968 N.am      12 UNK        -0.5000 
     70 CA         -5.1022  -20.4022  -45.1000 C.3       12 UNK         0.1400 
     71 CB         -4.5093  -19.7940  -43.8196 C.3       12 UNK        -0.1800 
     72 C          -5.5703  -21.8456  -44.8503 C.2       12 UNK         0.5000 
     73 O          -6.7784  -22.0622  -44.7469 O.2       12 UNK        -0.5000 
     74 N          -4.6309  -22.8000  -44.7448 N.am      13 UNK        -0.5000 
     75 CA         -4.9502  -24.1897  -44.3996 C.3       13 UNK         0.1400 
     76 CB         -5.3625  -24.2929  -42.9165 C.3       13 UNK        -0.1800 
     77 C          -3.8313  -25.2049  -44.6800 C.2       13 UNK         0.5000 
     78 O          -4.1502  -26.3636  -44.9478 O.2       13 UNK        -0.5000 
     79 N          -2.5537  -24.8088  -44.5834 N.am      14 UNK        -0.5000 
     80 CA         -1.4225  -25.7473  -44.5318 C.3       14 UNK         0.1400 
     81 CB         -0.1631  -25.0325  -44.0162 C.3       14 UNK        -0.1800 
     82 C          -1.1418  -26.5049  -45.8456 C.2       14 UNK         0.5000 
     83 O          -0.5308  -27.5726  -45.7967 O.2       14 UNK        -0.5000 
     84 N          -1.6178  -25.9744  -46.9802 N.am      15 UNK        -0.5000 
     85 CA         -1.5873  -26.6324  -48.2906 C.3       15 UNK         0.1400 
     86 CB         -0.9496  -25.6819  -49.3197 C.3       15 UNK        -0.1800 
     87 C          -3.0010  -27.0875  -48.7091 C.2       15 UNK         0.5000 
     88 O          -3.2970  -27.1367  -49.9027 O.2       15 UNK        -0.5000 
     89 N          -3.8548  -27.3817  -47.7145 N.am      16 UNK        -0.5000 
     90 CA         -5.2878  -27.6943  -47.8119 C.3       16 UNK         0.1400 
     91 CB         -5.5462  -28.9369  -48.6903 C.3       16 UNK        -0.1800 
     92 C          -6.1473  -26.4755  -48.2148 C.2       16 UNK         0.5000 
     93 O          -7.2798  -26.6518  -48.6671 O.2       16 UNK        -0.5000 
     94 N          -5.5906  -25.2715  -48.0078 N.am      17 UNK        -0.5000 
     95 CA         -6.0922  -23.9415  -48.3640 C.3       17 UNK         0.1400 
     96 CB         -7.4813  -23.6775  -47.7484 C.3       17 UNK        -0.1800 
     97 C          -6.0874  -23.6743  -49.8835 C.2       17 UNK         0.5000 
     98 O          -6.0130  -24.6087  -50.6834 O.2       17 UNK        -0.5000 
     99 N          -6.1758  -22.3852  -50.2475 N.am      18 UNK        -0.5000 
    100 CA        -6.2165  -21.8555  -51.6184 C.3       18 UNK         0.1400 
    101 CB        -7.5446  -22.2357  -52.3058 C.3       18 UNK        -0.1800 
    102 C         -4.9740  -22.2691  -52.4367 C.2       18 UNK         0.5000 
    103 O         -5.0773  -23.0616  -53.3756 O.2       18 UNK        -0.5000 
    104 N         -3.8105  -21.7536  -52.0181 N.am      19 UNK        -0.5000 
    105 CA        -2.4935  -22.0551  -52.5797 C.3       19 UNK         0.1400 
    106 CB        -1.4177  -21.3277  -51.7573 C.3       19 UNK        -0.1800 
    107 C         -2.3802  -21.6773  -54.0682 C.2       19 UNK         0.5000 
    108 O         -2.8117  -20.5889  -54.4596 O.2       19 UNK        -0.5000 
    109 N         -1.7851  -22.5797  -54.8600 N.am      20 UNK        -0.5000 
    110 CA        -1.5562  -22.4241  -56.2964 C.3       20 UNK         0.1400 
    111 CB        -0.9301  -23.7115  -56.8541 C.3       20 UNK        -0.1800 
    112 C         -0.6647  -21.2069  -56.5926 C.2       20 UNK         0.5000 
    113 O          0.4380  -21.1149  -56.0467 O.2       20 UNK        -0.5000 
    114 N         -1.1887  -20.2758  -57.4021 N.am      21 UNK        -0.5000 
    115 CA        -0.5885  -18.9841  -57.7625 C.3       21 UNK         0.1400 
    116 CB         0.6170  -19.1997  -58.7015 C.3       21 UNK        -0.1800 
    117 C         -0.2422  -18.0991  -56.5416 C.2       21 UNK         0.5000 
    118 O          0.6983  -17.3060  -56.6107 O.2       21 UNK        -0.5000 
    119 N         -0.9955  -18.2695  -55.4440 N.am      22 UNK        -0.5000 
    120 CA        -0.7739  -17.6467  -54.1267 C.3       22 UNK         0.1400 
    121 C          0.4919  -18.1715  -53.3792 C.2       22 UNK         0.5000 
    122 N          1.0929  -19.2877  -53.7790 N.am      22 UNK        -0.7600 
    123 O          0.9268  -17.5755  -52.3986 O.2       22 UNK        -0.5000 
    124 C124       -0.8573  -16.0925  -54.1581 C.3       23 UNK        -0.0398 
    125 S125       -2.4727  -15.5047  -54.7817 S.3       23 UNK        -0.2404 
    126 C126       -2.8815  -14.1593  -53.6215 C.3       23 UNK        -0.0205 
    127 H127       -5.5847  -13.8704  -45.8427 H         1 UNK         0.0600 
    128 H128       -4.9987  -15.2390  -44.8911 H         1 UNK         0.0600 
    129 H129       -4.8381  -15.2524  -46.6499 H         1 UNK         0.0600 
    130 H130       -4.2211  -12.1314  -45.7421 H         1 UNK         0.3000 
    131 H131       -2.5301  -10.7784  -45.7999 H         1 UNK         0.0600 
    132 H132       -0.5298  -12.9827  -46.4708 H         1 UNK         0.0800 
    133 H133       -0.3451  -11.2740  -46.7249 H         1 UNK         0.0800 
    134 H134       -1.2304  -14.5374  -47.9596 H         1 UNK         0.0800 
    135 H135       -0.2299  -13.8710  -49.2263 H         1 UNK         0.0800 
    136 H136       -1.3752  -13.3396  -51.4998 H         1 UNK         0.1150 
    137 H137       -4.5713  -16.0088  -52.5280 H         1 UNK         0.1150 
    138 H138       -3.1763  -15.7835  -48.4789 H         1 UNK         0.1150 
    139 H139       -5.2191  -17.0274  -48.9987 H         1 UNK         0.0800 
    140 H140       -5.9211  -16.9187  -50.5928 H         1 UNK         0.0800 
    141 H141       -3.1704  -18.2393  -48.4006 H         1 UNK         0.0800 
    142 H142       -2.1530  -18.9401  -49.6242 H         1 UNK         0.0800 
    143 H143       -3.5667  -21.1272  -49.2987 H         1 UNK         0.0600 
    144 H144       -1.2974  -20.2345  -47.8413 H         1 UNK         0.3000 
    145 H145       -0.4219  -23.5301  -46.7209 H         1 UNK         0.0600 
    146 H146        1.6113  -22.7803  -47.8401 H         1 UNK         0.0600 
    147 H147        0.7897  -21.3767  -48.5180 H         1 UNK         0.0600 
    148 H148        0.3654  -22.9900  -49.0594 H         1 UNK         0.0600 
    149 H149        0.8188  -21.1183  -46.0542 H         1 UNK         0.3000 
    150 H150       -1.0383  -20.2842  -43.0859 H         1 UNK         0.0600 
    151 H151        0.7288  -21.9712  -42.5457 H         1 UNK         0.0600 
    152 H152        1.2941  -20.3324  -42.2546 H         1 UNK         0.0600 
    153 H153        1.8234  -21.2043  -43.6906 H         1 UNK         0.0600 
    154 H154        1.0731  -18.8780  -44.2902 H         1 UNK         0.3000 
    155 H155       -0.8705  -16.7449  -46.4317 H         1 UNK         0.0600 
    156 H156        1.0232  -16.3669  -44.0435 H         1 UNK         0.0600 
    157 H157       -0.6782  -15.9736  -44.0087 H         1 UNK         0.0600 
    158 H158        0.3821  -15.1268  -45.1134 H         1 UNK         0.0600 
    159 H159        1.9602  -17.1851  -46.1263 H         1 UNK         0.3000 
    160 H160        2.3735  -19.5557  -48.7204 H         1 UNK         0.0600 
    161 H161        3.1576  -16.6021  -48.6925 H         1 UNK         0.0600 
    162 H162        2.1965  -17.3705  -49.9492 H         1 UNK         0.0600 
    163 H163        3.8603  -17.8713  -49.6885 H         1 UNK         0.0600 
    164 H164        4.1378  -18.0266  -46.9949 H         1 UNK         0.3000 
    165 H165        4.2490  -20.4764  -44.3932 H         1 UNK         0.0600 
    166 H166        6.6632  -20.4423  -44.9429 H         1 UNK         0.0600 
    167 H167        5.7874  -21.3650  -46.1539 H         1 UNK         0.0600 
    168 H168        6.3268  -19.7308  -46.5216 H         1 UNK         0.0600 
    169 H169        5.7148  -18.0754  -44.7651 H         1 UNK         0.3000 
    170 H170        3.8241  -16.2779  -42.4795 H         1 UNK         0.0600 
    171 H171        6.2293  -16.9646  -42.6834 H         1 UNK         0.0600 
    172 H172        6.3181  -16.1961  -44.2680 H         1 UNK         0.0600 
    173 H173        6.0148  -15.2303  -42.8318 H         1 UNK         0.0600 
    174 H174        3.1845  -14.6084  -43.7610 H         1 UNK         0.3000 
    175 H175        4.2310  -13.2476  -46.6313 H         1 UNK         0.0600 
    176 H176        1.5014  -14.5873  -46.9776 H         1 UNK         0.0600 
    177 H177        1.9163  -13.0074  -47.6383 H         1 UNK         0.0600 
    178 H178        2.7874  -14.4297  -48.1617 H         1 UNK         0.0600 
    179 H179        1.8056  -12.8217  -45.0798 H         1 UNK         0.3000 
    180 H180        3.2986  -11.4070  -42.3042 H         1 UNK         0.0600 
    181 H181        2.2399   -9.2254  -42.8358 H         1 UNK         0.0600 
    182 H182        2.1502   -9.6535  -44.5441 H         1 UNK         0.0600 
    183 H183        3.7139   -9.4186  -43.7706 H         1 UNK         0.0600 
    184 H184        0.6362  -11.1207  -43.2487 H         1 UNK         0.3000 
    185 H185       -0.6176  -14.2968  -42.2390 H         1 UNK         0.0600 
    186 H186       -0.9908  -11.4260  -41.2412 H         1 UNK         0.0600 
    187 H187       -2.1559  -12.7373  -41.0686 H         1 UNK         0.0600 
    188 H188       -0.5973  -12.8301  -40.2635 H         1 UNK         0.0600 
    189 H189       -1.5886  -13.7415  -44.1412 H         1 UNK         0.3000 
    190 H190       -3.1941  -20.0458  -45.9433 H         1 UNK         0.3000 
    191 H191       -5.9820  -19.8125  -45.3667 H         1 UNK         0.0600 
    192 H192       -4.2882  -18.7351  -43.9539 H         1 UNK         0.0600 
    193 H193       -3.5870  -20.2939  -43.5233 H         1 UNK         0.0600 
    194 H194       -5.2092  -19.8752  -42.9871 H         1 UNK         0.0600 
    195 H195       -3.6514  -22.5488  -44.8435 H         1 UNK         0.3000 
    196 H196       -5.7978  -24.5030  -45.0124 H         1 UNK         0.0600 
    197 H197       -6.2755  -23.7355  -42.7091 H         1 UNK         0.0600 
    198 H198       -4.5808  -23.9104  -42.2591 H         1 UNK         0.0600 
    199 H199       -5.5540  -25.3283  -42.6309 H         1 UNK         0.0600 
    200 H200       -2.3343  -23.8312  -44.4076 H         1 UNK         0.3000 
    201 H201       -1.6785  -26.5075  -43.7904 H         1 UNK         0.0600 
    202 H202       -0.3580  -24.5153  -43.0766 H         1 UNK         0.0600 
    203 H203        0.2208  -24.3040  -44.7264 H         1 UNK         0.0600 
    204 H204        0.6376  -25.7491  -43.8296 H         1 UNK         0.0600 
    205 H205       -2.1112  -25.0907  -46.9362 H         1 UNK         0.3000 
    206 H206       -0.9729  -27.5339  -48.2533 H         1 UNK         0.0600 
    207 H207       -1.5567  -24.7911  -49.4808 H         1 UNK         0.0600 
    208 H208        0.0419  -25.3663  -48.9963 H         1 UNK         0.0600 
    209 H209       -0.8294  -26.1735  -50.2857 H         1 UNK         0.0600 
    210 H210       -3.5207  -27.2798  -46.7626 H         1 UNK         0.3000 
    211 H211       -5.5999  -27.9493  -46.7982 H         1 UNK         0.0600 
    212 H212       -5.3713  -28.7330  -49.7467 H         1 UNK         0.0600 
    213 H213       -6.5792  -29.2728  -48.5938 H         1 UNK         0.0600 
    214 H214       -4.9070  -29.7692  -48.3962 H         1 UNK         0.0600 
    215 H215       -4.6417  -25.2798  -47.6667 H         1 UNK         0.3000 
    216 H216       -5.3830  -23.2525  -47.9083 H         1 UNK         0.0600 
    217 H217       -7.7424  -22.6211  -47.8184 H         1 UNK         0.0600 
    218 H218       -7.5070  -23.9448  -46.6926 H         1 UNK         0.0600 
    219 H219       -8.2660  -24.2388  -48.2559 H         1 UNK         0.0600 
    220 H220       -6.1980  -21.6889  -49.5072 H         1 UNK         0.3000 
    221 H221       -6.1992  -20.7686  -51.5382 H         1 UNK         0.0600 
    222 H222       -7.6490  -23.3141  -52.4288 H         1 UNK         0.0600 
    223 H223       -8.4001  -21.8810  -51.7310 H         1 UNK         0.0600 
    224 H224       -7.6105  -21.7867  -53.2975 H         1 UNK         0.0600 
    225 H225       -3.8343  -21.0538  -51.2921 H         1 UNK         0.3000 
    226 H226       -2.3351  -23.1306  -52.4769 H         1 UNK         0.0600 
    227 H227       -1.4216  -21.6586  -50.7195 H         1 UNK         0.0600 
    228 H228       -0.4210  -21.5253  -52.1541 H         1 UNK         0.0600 
    229 H229       -1.5643  -20.2469  -51.7691 H         1 UNK         0.0600 
    230 H230       -1.4353  -23.4323  -54.4484 H         1 UNK         0.3000 
    231 H231       -2.5280  -22.2821  -56.7738 H         1 UNK         0.0600 
    232 H232       -0.7613  -23.6287  -57.9286 H         1 UNK         0.0600 
    233 H233       -1.5824  -24.5701  -56.6937 H         1 UNK         0.0600 
    234 H234        0.0316  -23.9276  -56.3868 H         1 UNK         0.0600 
    235 H235       -2.1164  -20.4343  -57.7707 H         1 UNK         0.3000 
    236 H236       -1.3492  -18.4378  -58.3218 H         1 UNK         0.0600 
    237 H237        1.4462  -19.6878  -58.1884 H         1 UNK         0.0600 
    238 H238        0.3441  -19.8152  -59.5586 H         1 UNK         0.0600 
    239 H239        0.9864  -18.2506  -59.0913 H         1 UNK         0.0600 
    240 H240       -1.7278  -18.9694  -55.4636 H         1 UNK         0.3000 
    241 H241       -1.6031  -17.9935  -53.5086 H         1 UNK         0.0600 
    242 H242        1.9056  -19.6093  -53.2795 H         1 UNK         0.3800 
    243 H243        0.7709  -19.8039  -54.5914 H         1 UNK         0.3800 
    244 H244       -0.0661  -15.6664  -54.7749 H         1 UNK         0.0800 
    245 H245       -0.6946  -15.6902  -53.1584 H         1 UNK         0.0800 
    246 H246       -3.8405  -13.7265  -53.9091 H         1 UNK         0.0800 
    247 H247       -2.1421  -13.3646  -53.7323 H         1 UNK         0.0800 
@<TRIPOS>BOND
     1    1    2 1    
     2    1  127 1    
     3    1  128 1    
     4    1  129 1    
     5    2    3 2    
     6    2    4 am   BACKBONE|DICT|INTERRES
     7    4    5 1    
     8    4  130 1    
     9    5    6 1    
    10    5   65 1    
    11    5  131 1    
    12    6    7 1    
    13    6  132 1    
    14    6  133 1    
    15    7    8 1    
    16    8    9 1    
    17    8  134 1    
    18    8  135 1    
    19    9   10 ar   
    20    9   14 ar   
    21   10   11 ar   
    22   10  136 1    
    23   11   12 ar   
    24   11  126 1    
    25   12   13 ar   
    26   12  137 1    
    27   13   14 ar   
    28   13   15 1    
    29   14  138 1    
    30   15   16 1    
    31   15  139 1    
    32   15  140 1    
    33   16   17 1    
    34   17   18 1    
    35   17  141 1    
    36   17  142 1    
    37   18   19 1    
    38   18   67 1    
    39   18  143 1    
    40   19   20 am   BACKBONE|DICT|INTERRES
    41   19  144 1    
    42   20   21 2    
    43   20   22 1    
    44   22   23 1    
    45   22   24 1    
    46   22  145 1    
    47   23  146 1    
    48   23  147 1    
    49   23  148 1    
    50   24   25 am   BACKBONE|DICT|INTERRES
    51   24  149 1    
    52   25   26 2    
    53   25   27 1    
    54   27   28 1    
    55   27   29 1    
    56   27  150 1    
    57   28  151 1    
    58   28  152 1    
    59   28  153 1    
    60   29   30 am   BACKBONE|DICT|INTERRES
    61   29  154 1    
    62   30   31 2    
    63   30   32 1    
    64   32   33 1    
    65   32   34 1    
    66   32  155 1    
    67   33  156 1    
    68   33  157 1    
    69   33  158 1    
    70   34   35 am   BACKBONE|DICT|INTERRES
    71   34  159 1    
    72   35   36 2    
    73   35   37 1    
    74   37   38 1    
    75   37   39 1    
    76   37  160 1    
    77   38  161 1    
    78   38  162 1    
    79   38  163 1    
    80   39   40 am   BACKBONE|DICT|INTERRES
    81   39  164 1    
    82   40   41 2    
    83   40   42 1    
    84   42   43 1    
    85   42   44 1    
    86   42  165 1    
    87   43  166 1    
    88   43  167 1    
    89   43  168 1    
    90   44   45 am   BACKBONE|DICT|INTERRES
    91   44  169 1    
    92   45   46 2    
    93   45   47 1    
    94   47   48 1    
    95   47   49 1    
    96   47  170 1    
    97   48  171 1    
    98   48  172 1    
    99   48  173 1    
   100   49   50 am   BACKBONE|DICT|INTERRES
   101   49  174 1    
   102   50   51 2    
   103   50   52 1    
   104   52   53 1    
   105   52   54 1    
   106   52  175 1    
   107   53  176 1    
   108   53  177 1    
   109   53  178 1    
   110   54   55 am   BACKBONE|DICT|INTERRES
   111   54  179 1    
   112   55   56 2    
   113   55   57 1    
   114   57   58 1    
   115   57   59 1    
   116   57  180 1    
   117   58  181 1    
   118   58  182 1    
   119   58  183 1    
   120   59   60 am   BACKBONE|DICT|INTERRES
   121   59  184 1    
   122   60   61 2    
   123   60   62 1    
   124   62   63 1    
   125   62   64 1    
   126   62  185 1    
   127   63  186 1    
   128   63  187 1    
   129   63  188 1    
   130   64   65 am   BACKBONE|DICT|INTERRES
   131   64  189 1    
   132   65   66 2    
   133   67   68 2    
   134   67   69 am   BACKBONE|DICT|INTERRES
   135   69   70 1    
   136   69  190 1    
   137   70   71 1    
   138   70   72 1    
   139   70  191 1    
   140   71  192 1    
   141   71  193 1    
   142   71  194 1    
   143   72   73 2    
   144   72   74 am   BACKBONE|DICT|INTERRES
   145   74   75 1    
   146   74  195 1    
   147   75   76 1    
   148   75   77 1    
   149   75  196 1    
   150   76  197 1    
   151   76  198 1    
   152   76  199 1    
   153   77   78 2    
   154   77   79 am   BACKBONE|DICT|INTERRES
   155   79   80 1    
   156   79  200 1    
   157   80   81 1    
   158   80   82 1    
   159   80  201 1    
   160   81  202 1    
   161   81  203 1    
   162   81  204 1    
   163   82   83 2    
   164   82   84 am   BACKBONE|DICT|INTERRES
   165   84   85 1    
   166   84  205 1    
   167   85   86 1    
   168   85   87 1    
   169   85  206 1    
   170   86  207 1    
   171   86  208 1    
   172   86  209 1    
   173   87   88 2    
   174   87   89 am   BACKBONE|DICT|INTERRES
   175   89   90 1    
   176   89  210 1    
   177   90   91 1    
   178   90   92 1    
   179   90  211 1    
   180   91  212 1    
   181   91  213 1    
   182   91  214 1    
   183   92   93 2    
   184   92   94 am   BACKBONE|DICT|INTERRES
   185   94   95 1    
   186   94  215 1    
   187   95   96 1    
   188   95   97 1    
   189   95  216 1    
   190   96  217 1    
   191   96  218 1    
   192   96  219 1    
   193   97   98 2    
   194   97   99 am   BACKBONE|DICT|INTERRES
   195   99  100 1    
   196   99  220 1    
   197  100  101 1    
   198  100  102 1    
   199  100  221 1    
   200  101  222 1    
   201  101  223 1    
   202  101  224 1    
   203  102  103 2    
   204  102  104 am   BACKBONE|DICT|INTERRES
   205  104  105 1    
   206  104  225 1    
   207  105  106 1    
   208  105  107 1    
   209  105  226 1    
   210  106  227 1    
   211  106  228 1    
   212  106  229 1    
   213  107  108 2    
   214  107  109 am   BACKBONE|DICT|INTERRES
   215  109  110 1    
   216  109  230 1    
   217  110  111 1    
   218  110  112 1    
   219  110  231 1    
   220  111  232 1    
   221  111  233 1    
   222  111  234 1    
   223  112  113 2    
   224  112  114 am   BACKBONE|DICT|INTERRES
   225  114  115 1    
   226  114  235 1    
   227  115  116 1    
   228  115  117 1    
   229  115  236 1    
   230  116  237 1    
   231  116  238 1    
   232  116  239 1    
   233  117  118 2    
   234  117  119 am   BACKBONE|DICT|INTERRES
   235  119  120 1    
   236  119  240 1    
   237  120  121 1    
   238  120  124 1    
   239  120  241 1    
   240  121  122 am   BACKBONE|DICT|INTERRES
   241  121  123 2    
   242  122  242 1    
   243  122  243 1    
   244  124  125 1    
   245  124  244 1    
   246  124  245 1    
   247  125  126 1    
   248  126  246 1    
   249  126  247 1    
@<TRIPOS>SUBSTRUCTURE
     1 UNK         1 GROUP             0       ****    0 ROOT    
