@<TRIPOS>MOLECULE
3R540
247   249    1
SMALL
USER_CHARGES


@<TRIPOS>ATOM
      1 CA          0.4425   -8.5092  -46.7173 C.3       0 UNK        -0.1800 
      2 C           0.8321   -9.6319  -47.6687 C.2       0 UNK         0.5000 
      3 O           0.8843   -9.4199  -48.8803 O.2       0 UNK        -0.5000 
      4 N           1.1051  -10.8216  -47.1273 N.am      1 UNK        -0.5000 
      5 CA          1.5252  -12.0161  -47.8539 C.3       1 UNK         0.1400 
      6 C6          0.3283  -12.7303  -48.5334 C.3       23 UNK        -0.0398 
      7 S7          0.8430  -13.9491  -49.7906 S.3       23 UNK        -0.2404 
      8 C8          0.1983  -15.4835  -49.0534 C.3       23 UNK        -0.0205 
      9 C9          0.5352  -16.7109  -49.8865 C.ar      23 UNK        -0.0193 
     10 C10         0.0806  -16.8127  -51.2040 C.ar      23 UNK        -0.1150 
     11 C11         0.3687  -17.9421  -51.9766 C.ar      23 UNK        -0.0193 
     12 C12         1.1228  -18.9780  -51.4161 C.ar      23 UNK        -0.1150 
     13 C13         1.5862  -18.8883  -50.0990 C.ar      23 UNK        -0.0193 
     14 C14         1.2863  -17.7546  -49.3389 C.ar      23 UNK        -0.1150 
     15 C15         2.4387  -20.0017  -49.5087 C.3       23 UNK        -0.0205 
     16 S16         1.4367  -21.4110  -48.9479 S.3       23 UNK        -0.2404 
     17 C17         0.7067  -20.7631  -47.4042 C.3       23 UNK        -0.0398 
     18 CA         -0.1118  -21.8469  -46.6609 C.3       11 UNK         0.1400 
     19 N          -0.3188  -21.5352  -45.2438 N.am      11 UNK        -0.5000 
     20 C          -0.8613  -22.3815  -44.3548 C.2       10 UNK         0.5000 
     21 O          -1.1953  -23.5341  -44.6258 O.2       10 UNK        -0.5000 
     22 CA         -1.1390  -21.8372  -42.9433 C.3       10 UNK         0.1400 
     23 CB          0.1393  -21.8357  -42.0928 C.3       10 UNK        -0.1800 
     24 N          -1.7321  -20.4999  -42.9705 N.am      10 UNK        -0.5000 
     25 C          -2.9282  -20.2171  -43.5079 C.2       9 UNK         0.5000 
     26 O          -3.6837  -21.0684  -43.9763 O.2       9 UNK        -0.5000 
     27 CA         -3.3320  -18.7332  -43.5746 C.3       9 UNK         0.1400 
     28 CB         -3.9157  -18.2663  -42.2331 C.3       9 UNK        -0.1800 
     29 N          -2.2234  -17.8595  -43.9609 N.am      9 UNK        -0.5000 
     30 C          -1.5852  -17.9084  -45.1396 C.2       8 UNK         0.5000 
     31 O          -1.8875  -18.6759  -46.0535 O.2       8 UNK        -0.5000 
     32 CA         -0.3628  -16.9863  -45.2983 C.3       8 UNK         0.1400 
     33 CB         -0.7934  -15.5339  -45.5504 C.3       8 UNK        -0.1800 
     34 N           0.5217  -17.0443  -44.1345 N.am      8 UNK        -0.5000 
     35 C           1.1740  -18.1445  -43.7327 C.2       7 UNK         0.5000 
     36 O           1.1604  -19.2095  -44.3492 O.2       7 UNK        -0.5000 
     37 CA          1.9208  -18.0563  -42.3908 C.3       7 UNK         0.1400 
     38 CB          3.3378  -17.4922  -42.5774 C.3       7 UNK        -0.1800 
     39 N           1.1864  -17.2520  -41.4130 N.am      7 UNK        -0.5000 
     40 C           0.0595  -17.6515  -40.8055 C.2       6 UNK         0.5000 
     41 O          -0.4539  -18.7553  -40.9823 O.2       6 UNK        -0.5000 
     42 CA         -0.6309  -16.6364  -39.8752 C.3       6 UNK         0.1400 
     43 CB          0.0015  -16.6688  -38.4760 C.3       6 UNK        -0.1800 
     44 N          -0.5832  -15.2702  -40.3962 N.am      6 UNK        -0.5000 
     45 C          -1.2109  -14.8582  -41.5069 C.2       5 UNK         0.5000 
     46 O          -1.9521  -15.5767  -42.1762 O.2       5 UNK        -0.5000 
     47 CA         -0.9142  -13.4203  -41.9799 C.3       5 UNK         0.1400 
     48 CB         -1.9188  -12.4337  -41.3673 C.3       5 UNK        -0.1800 
     49 N           0.4512  -12.9739  -41.6797 N.am      5 UNK        -0.5000 
     50 C           1.5606  -13.5785  -42.1240 C.2       4 UNK         0.5000 
     51 O           1.5479  -14.5871  -42.8366 O.2       4 UNK        -0.5000 
     52 CA          2.8993  -13.0136  -41.6293 C.3       4 UNK         0.1400 
     53 CB          3.1109  -13.3703  -40.1436 C.3       4 UNK        -0.1800 
     54 N           3.9523  -13.5998  -42.4475 N.am      4 UNK        -0.5000 
     55 C           5.2489  -13.2733  -42.4704 C.2       3 UNK         0.5000 
     56 O           5.7461  -12.3800  -41.7837 O.2       3 UNK        -0.5000 
     57 CA          6.1455  -14.0890  -43.4243 C.3       3 UNK         0.1400 
     58 CB          6.8258  -15.2386  -42.6646 C.3       3 UNK        -0.1800 
     59 N           5.4018  -14.6451  -44.5578 N.am      3 UNK        -0.5000 
     60 C           4.9718  -13.9262  -45.6028 C.2       2 UNK         0.5000 
     61 O           5.2731  -12.7424  -45.7770 O.2       2 UNK        -0.5000 
     62 CA          4.0767  -14.6546  -46.6323 C.3       2 UNK         0.1400 
     63 CB          3.2491  -15.8067  -46.0197 C.3       2 UNK        -0.1800 
     64 N           3.2003  -13.7350  -47.3669 N.am      2 UNK        -0.5000 
     65 C           2.2675  -12.9198  -46.8531 C.2       1 UNK         0.5000 
     66 O           1.9800  -12.8558  -45.6541 O.2       1 UNK        -0.5000 
     67 C          -1.4441  -22.1479  -47.3760 C.2       11 UNK         0.5000 
     68 O          -1.5438  -23.1752  -48.0429 O.2       11 UNK        -0.5000 
     69 N          -2.4549  -21.2899  -47.1734 N.am      12 UNK        -0.5000 
     70 CA         -3.8040  -21.4431  -47.7252 C.3       12 UNK         0.1400 
     71 CB         -4.6335  -20.1933  -47.3977 C.3       12 UNK        -0.1800 
     72 C          -4.5333  -22.7217  -47.2692 C.2       12 UNK         0.5000 
     73 O          -5.3693  -23.2326  -48.0129 O.2       12 UNK        -0.5000 
     74 N          -4.2087  -23.2205  -46.0704 N.am      13 UNK        -0.5000 
     75 CA         -4.6925  -24.5001  -45.5618 C.3       13 UNK         0.1400 
     76 CB         -4.6252  -24.4947  -44.0264 C.3       13 UNK        -0.1800 
     77 C          -3.9024  -25.6883  -46.1426 C.2       13 UNK         0.5000 
     78 O          -4.5101  -26.6857  -46.5339 O.2       13 UNK        -0.5000 
     79 N          -2.5674  -25.5786  -46.1539 N.am      14 UNK        -0.5000 
     80 CA         -1.6517  -26.6640  -46.5006 C.3       14 UNK         0.1400 
     81 CB         -0.2707  -26.3744  -45.8910 C.3       14 UNK        -0.1800 
     82 C          -1.5223  -26.9240  -48.0111 C.2       14 UNK         0.5000 
     83 O          -1.5627  -28.0838  -48.4256 O.2       14 UNK        -0.5000 
     84 N          -1.3208  -25.8633  -48.8014 N.am      15 UNK        -0.5000 
     85 CA         -1.0279  -25.9498  -50.2289 C.3       15 UNK         0.1400 
     86 CB         -0.0312  -24.8444  -50.6140 C.3       15 UNK        -0.1800 
     87 C          -2.3177  -25.8278  -51.0485 C.2       15 UNK         0.5000 
     88 O          -3.0657  -24.8637  -50.8757 O.2       15 UNK        -0.5000 
     89 N          -2.5297  -26.7812  -51.9651 N.am      16 UNK        -0.5000 
     90 CA         -3.6899  -26.8395  -52.8585 C.3       16 UNK         0.1400 
     91 CB         -3.6637  -28.1624  -53.6383 C.3       16 UNK        -0.1800 
     92 C          -3.7811  -25.6446  -53.8260 C.2       16 UNK         0.5000 
     93 O          -4.8859  -25.2102  -54.1484 O.2       16 UNK        -0.5000 
     94 N          -2.6230  -25.1144  -54.2448 N.am      17 UNK        -0.5000 
     95 CA         -2.5205  -23.9171  -55.0787 C.3       17 UNK         0.1400 
     96 CB         -1.0733  -23.7476  -55.5649 C.3       17 UNK        -0.1800 
     97 C          -2.9988  -22.6571  -54.3387 C.2       17 UNK         0.5000 
     98 O          -3.7794  -21.8856  -54.8931 O.2       17 UNK        -0.5000 
     99 N          -2.5577  -22.4910  -53.0847 N.am      18 UNK        -0.5000 
    100 CA        -2.9516  -21.3774  -52.2216 C.3       18 UNK         0.1400 
    101 CB        -1.9911  -21.2868  -51.0306 C.3       18 UNK        -0.1800 
    102 C         -4.4190  -21.4822  -51.7661 C.2       18 UNK         0.5000 
    103 O         -5.0963  -20.4583  -51.6769 O.2       18 UNK        -0.5000 
    104 N         -4.9084  -22.7140  -51.5561 N.am      19 UNK        -0.5000 
    105 CA        -6.3206  -23.0220  -51.3055 C.3       19 UNK         0.1400 
    106 CB        -6.4729  -24.5132  -50.9689 C.3       19 UNK        -0.1800 
    107 C         -7.2327  -22.6467  -52.4919 C.2       19 UNK         0.5000 
    108 O         -8.3697  -22.2266  -52.2780 O.2       19 UNK        -0.5000 
    109 N         -6.6974  -22.7522  -53.7159 N.am      20 UNK        -0.5000 
    110 CA        -7.3135  -22.3148  -54.9704 C.3       20 UNK         0.1400 
    111 CB        -6.8190  -23.2267  -56.1070 C.3       20 UNK        -0.1800 
    112 C         -7.0577  -20.8205  -55.2783 C.2       20 UNK         0.5000 
    113 O         -7.1841  -20.4084  -56.4329 O.2       20 UNK        -0.5000 
    114 N         -6.6984  -20.0337  -54.2524 N.am      21 UNK        -0.5000 
    115 CA        -6.4539  -18.5879  -54.2702 C.3       21 UNK         0.1400 
    116 CB        -7.7410  -17.8150  -54.6283 C.3       21 UNK        -0.1800 
    117 C         -5.2399  -18.1694  -55.1250 C.2       21 UNK         0.5000 
    118 O         -5.2082  -17.0478  -55.6346 O.2       21 UNK        -0.5000 
    119 N         -4.2557  -19.0698  -55.2477 N.am      22 UNK        -0.5000 
    120 CA        -2.9762  -18.8828  -55.9541 C.3       22 UNK         0.1400 
    121 C         -3.1004  -18.8485  -57.5078 C.2       22 UNK         0.5000 
    122 N         -4.2244  -19.2483  -58.0919 N.am      22 UNK        -0.7600 
    123 O         -2.1544  -18.4843  -58.2013 O.2       22 UNK        -0.5000 
    124 C124       -2.1202  -17.7120  -55.3890 C.3       23 UNK        -0.0398 
    125 S125       -1.9000  -17.7947  -53.5752 S.3       23 UNK        -0.2404 
    126 C126       -0.0996  -18.0186  -53.4248 C.3       23 UNK        -0.0205 
    127 H127        0.4357   -8.8421  -45.6790 H         1 UNK         0.0600 
    128 H128       -0.5530   -8.1386  -46.9617 H         1 UNK         0.0600 
    129 H129        1.1466   -7.6818  -46.8045 H         1 UNK         0.0600 
    130 H130        1.0891  -10.9524  -46.1224 H         1 UNK         0.3000 
    131 H131        2.2416  -11.7065  -48.6184 H         1 UNK         0.0600 
    132 H132       -0.2932  -11.9990  -49.0515 H         1 UNK         0.0800 
    133 H133       -0.3230  -13.1922  -47.7892 H         1 UNK         0.0800 
    134 H134       -0.8853  -15.4112  -48.9512 H         1 UNK         0.0800 
    135 H135        0.6068  -15.5840  -48.0482 H         1 UNK         0.0800 
    136 H136       -0.4970  -16.0052  -51.6320 H         1 UNK         0.1150 
    137 H137        1.3600  -19.8527  -52.0054 H         1 UNK         0.1150 
    138 H138        1.6419  -17.6882  -48.3214 H         1 UNK         0.1150 
    139 H139        3.1423  -20.3533  -50.2646 H         1 UNK         0.0800 
    140 H140        3.0456  -19.6299  -48.6816 H         1 UNK         0.0800 
    141 H141        0.0991  -19.8829  -47.6215 H         1 UNK         0.0800 
    142 H142        1.5271  -20.4203  -46.7724 H         1 UNK         0.0800 
    143 H143        0.4736  -22.7692  -46.6764 H         1 UNK         0.0600 
    144 H144       -0.0276  -20.6133  -44.9310 H         1 UNK         0.3000 
    145 H145       -1.8579  -22.5069  -42.4667 H         1 UNK         0.0600 
    146 H146       -0.0662  -21.5125  -41.0723 H         1 UNK         0.0600 
    147 H147        0.9005  -21.1759  -42.5074 H         1 UNK         0.0600 
    148 H148        0.5694  -22.8363  -42.0361 H         1 UNK         0.0600 
    149 H149       -1.1963  -19.7538  -42.5390 H         1 UNK         0.3000 
    150 H150       -4.1098  -18.6357  -44.3344 H         1 UNK         0.0600 
    151 H151       -4.7565  -18.8930  -41.9333 H         1 UNK         0.0600 
    152 H152       -4.2808  -17.2412  -42.2982 H         1 UNK         0.0600 
    153 H153       -3.1740  -18.3064  -41.4350 H         1 UNK         0.0600 
    154 H154       -1.9408  -17.1602  -43.2798 H         1 UNK         0.3000 
    155 H155        0.2045  -17.3301  -46.1655 H         1 UNK         0.0600 
    156 H156       -1.4035  -15.4590  -46.4507 H         1 UNK         0.0600 
    157 H157        0.0708  -14.8831  -45.6812 H         1 UNK         0.0600 
    158 H158       -1.3852  -15.1373  -44.7271 H         1 UNK         0.0600 
    159 H159        0.6329  -16.1921  -43.5943 H         1 UNK         0.3000 
    160 H160        2.0162  -19.0695  -41.9957 H         1 UNK         0.0600 
    161 H161        3.3248  -16.4805  -42.9781 H         1 UNK         0.0600 
    162 H162        3.9130  -18.1098  -43.2682 H         1 UNK         0.0600 
    163 H163        3.8805  -17.4703  -41.6323 H         1 UNK         0.0600 
    164 H164        1.5025  -16.3025  -41.2799 H         1 UNK         0.3000 
    165 H165       -1.6793  -16.9283  -39.7835 H         1 UNK         0.0600 
    166 H166       -0.5299  -16.0108  -37.7881 H         1 UNK         0.0600 
    167 H167       -0.0346  -17.6745  -38.0551 H         1 UNK         0.0600 
    168 H168        1.0471  -16.3589  -38.4976 H         1 UNK         0.0600 
    169 H169        0.0023  -14.6125  -39.9037 H         1 UNK         0.3000 
    170 H170       -1.0349  -13.4001  -43.0647 H         1 UNK         0.0600 
    171 H171       -1.8239  -12.3834  -40.2819 H         1 UNK         0.0600 
    172 H172       -1.7772  -11.4285  -41.7648 H         1 UNK         0.0600 
    173 H173       -2.9440  -12.7296  -41.5942 H         1 UNK         0.0600 
    174 H174        0.5383  -12.1592  -41.0895 H         1 UNK         0.3000 
    175 H175        2.8998  -11.9306  -41.7653 H         1 UNK         0.0600 
    176 H176        3.1369  -14.4500  -39.9906 H         1 UNK         0.0600 
    177 H177        4.0443  -12.9583  -39.7606 H         1 UNK         0.0600 
    178 H178        2.3106  -12.9688  -39.5211 H         1 UNK         0.0600 
    179 H179        3.6063  -14.3041  -43.0867 H         1 UNK         0.3000 
    180 H180        6.9230  -13.4228  -43.8044 H         1 UNK         0.0600 
    181 H181        7.5060  -15.7920  -43.3123 H         1 UNK         0.0600 
    182 H182        6.0972  -15.9429  -42.2610 H         1 UNK         0.0600 
    183 H183        7.4129  -14.8590  -41.8273 H         1 UNK         0.0600 
    184 H184        5.1513  -15.6208  -44.5003 H         1 UNK         0.3000 
    185 H185        4.7521  -15.0864  -47.3719 H         1 UNK         0.0600 
    186 H186        2.6297  -15.4602  -45.1928 H         1 UNK         0.0600 
    187 H187        2.5870  -16.2496  -46.7611 H         1 UNK         0.0600 
    188 H188        3.8858  -16.6100  -45.6485 H         1 UNK         0.0600 
    189 H189        3.3648  -13.6943  -48.3630 H         1 UNK         0.3000 
    190 H190       -2.2833  -20.4510  -46.6244 H         1 UNK         0.3000 
    191 H191       -3.7116  -21.5064  -48.8086 H         1 UNK         0.0600 
    192 H192       -4.1620  -19.2929  -47.7919 H         1 UNK         0.0600 
    193 H193       -4.7574  -20.0647  -46.3225 H         1 UNK         0.0600 
    194 H194       -5.6287  -20.2592  -47.8391 H         1 UNK         0.0600 
    195 H195       -3.5604  -22.7052  -45.4879 H         1 UNK         0.3000 
    196 H196       -5.7398  -24.6220  -45.8466 H         1 UNK         0.0600 
    197 H197       -5.2305  -23.6893  -43.6098 H         1 UNK         0.0600 
    198 H198       -3.6051  -24.3642  -43.6645 H         1 UNK         0.0600 
    199 H199       -5.0022  -25.4323  -43.6160 H         1 UNK         0.0600 
    200 H200       -2.1411  -24.7309  -45.7899 H         1 UNK         0.3000 
    201 H201       -2.0256  -27.5818  -46.0415 H         1 UNK         0.0600 
    202 H202       -0.3296  -26.2889  -44.8058 H         1 UNK         0.0600 
    203 H203        0.1519  -25.4455  -46.2762 H         1 UNK         0.0600 
    204 H204        0.4341  -27.1757  -46.1164 H         1 UNK         0.0600 
    205 H205       -1.3963  -24.9218  -48.4172 H         1 UNK         0.3000 
    206 H206       -0.5527  -26.9080  -50.4499 H         1 UNK         0.0600 
    207 H207       -0.4281  -23.8499  -50.4138 H         1 UNK         0.0600 
    208 H208        0.9003  -24.9444  -50.0567 H         1 UNK         0.0600 
    209 H209        0.2173  -24.8915  -51.6748 H         1 UNK         0.0600 
    210 H210       -1.8655  -27.5377  -52.0454 H         1 UNK         0.3000 
    211 H211       -4.5869  -26.8302  -52.2367 H         1 UNK         0.0600 
    212 H212       -2.7709  -28.2472  -54.2592 H         1 UNK         0.0600 
    213 H213       -4.5301  -28.2446  -54.2962 H         1 UNK         0.0600 
    214 H214       -3.6876  -29.0187  -52.9641 H         1 UNK         0.0600 
    215 H215       -1.7602  -25.5396  -53.9401 H         1 UNK         0.3000 
    216 H216       -3.1606  -24.0539  -55.9531 H         1 UNK         0.0600 
    217 H217       -0.9756  -22.8626  -56.1953 H         1 UNK         0.0600 
    218 H218       -0.7549  -24.6046  -56.1586 H         1 UNK         0.0600 
    219 H219       -0.3757  -23.6373  -54.7338 H         1 UNK         0.0600 
    220 H220       -1.9631  -23.1958  -52.6760 H         1 UNK         0.3000 
    221 H221       -2.8542  -20.4561  -52.7977 H         1 UNK         0.0600 
    222 H222       -2.2190  -20.4220  -50.4064 H         1 UNK         0.0600 
    223 H223       -2.0565  -22.1765  -50.4069 H         1 UNK         0.0600 
    224 H224       -0.9574  -21.1828  -51.3601 H         1 UNK         0.0600 
    225 H225       -4.2655  -23.5014  -51.5574 H         1 UNK         0.3000 
    226 H226       -6.6372  -22.4393  -50.4382 H         1 UNK         0.0600 
    227 H227       -5.8112  -24.8090  -50.1549 H         1 UNK         0.0600 
    228 H228       -7.4933  -24.7370  -50.6564 H         1 UNK         0.0600 
    229 H229       -6.2492  -25.1448  -51.8275 H         1 UNK         0.0600 
    230 H230       -5.7651  -23.1388  -53.7973 H         1 UNK         0.3000 
    231 H231       -8.3953  -22.4391  -54.8937 H         1 UNK         0.0600 
    232 H232       -7.3215  -22.9959  -57.0470 H         1 UNK         0.0600 
    233 H233       -7.0181  -24.2753  -55.8849 H         1 UNK         0.0600 
    234 H234       -5.7468  -23.1192  -56.2719 H         1 UNK         0.0600 
    235 H235       -6.5583  -20.4724  -53.3510 H         1 UNK         0.3000 
    236 H236       -6.1929  -18.3221  -53.2449 H         1 UNK         0.0600 
    237 H237       -8.0292  -17.9662  -55.6688 H         1 UNK         0.0600 
    238 H238       -8.5755  -18.1256  -53.9995 H         1 UNK         0.0600 
    239 H239       -7.6078  -16.7428  -54.4801 H         1 UNK         0.0600 
    240 H240       -4.3867  -19.9975  -54.8582 H         1 UNK         0.3000 
    241 H241       -2.4110  -19.7935  -55.7574 H         1 UNK         0.0600 
    242 H242       -4.2960  -19.2339  -59.0970 H         1 UNK         0.3800 
    243 H243       -5.0091  -19.5554  -57.5353 H         1 UNK         0.3800 
    244 H244       -2.5768  -16.7520  -55.6323 H         1 UNK         0.0800 
    245 H245       -1.1386  -17.7009  -55.8650 H         1 UNK         0.0800 
    246 H246        0.4120  -17.2426  -53.9959 H         1 UNK         0.0800 
    247 H247        0.1760  -18.9746  -53.8729 H         1 UNK         0.0800 
@<TRIPOS>BOND
     1    1    2 1    
     2    1  127 1    
     3    1  128 1    
     4    1  129 1    
     5    2    3 2    
     6    2    4 am   BACKBONE|DICT|INTERRES
     7    4    5 1    
     8    4  130 1    
     9    5    6 1    
    10    5   65 1    
    11    5  131 1    
    12    6    7 1    
    13    6  132 1    
    14    6  133 1    
    15    7    8 1    
    16    8    9 1    
    17    8  134 1    
    18    8  135 1    
    19    9   10 ar   
    20    9   14 ar   
    21   10   11 ar   
    22   10  136 1    
    23   11   12 ar   
    24   11  126 1    
    25   12   13 ar   
    26   12  137 1    
    27   13   14 ar   
    28   13   15 1    
    29   14  138 1    
    30   15   16 1    
    31   15  139 1    
    32   15  140 1    
    33   16   17 1    
    34   17   18 1    
    35   17  141 1    
    36   17  142 1    
    37   18   19 1    
    38   18   67 1    
    39   18  143 1    
    40   19   20 am   BACKBONE|DICT|INTERRES
    41   19  144 1    
    42   20   21 2    
    43   20   22 1    
    44   22   23 1    
    45   22   24 1    
    46   22  145 1    
    47   23  146 1    
    48   23  147 1    
    49   23  148 1    
    50   24   25 am   BACKBONE|DICT|INTERRES
    51   24  149 1    
    52   25   26 2    
    53   25   27 1    
    54   27   28 1    
    55   27   29 1    
    56   27  150 1    
    57   28  151 1    
    58   28  152 1    
    59   28  153 1    
    60   29   30 am   BACKBONE|DICT|INTERRES
    61   29  154 1    
    62   30   31 2    
    63   30   32 1    
    64   32   33 1    
    65   32   34 1    
    66   32  155 1    
    67   33  156 1    
    68   33  157 1    
    69   33  158 1    
    70   34   35 am   BACKBONE|DICT|INTERRES
    71   34  159 1    
    72   35   36 2    
    73   35   37 1    
    74   37   38 1    
    75   37   39 1    
    76   37  160 1    
    77   38  161 1    
    78   38  162 1    
    79   38  163 1    
    80   39   40 am   BACKBONE|DICT|INTERRES
    81   39  164 1    
    82   40   41 2    
    83   40   42 1    
    84   42   43 1    
    85   42   44 1    
    86   42  165 1    
    87   43  166 1    
    88   43  167 1    
    89   43  168 1    
    90   44   45 am   BACKBONE|DICT|INTERRES
    91   44  169 1    
    92   45   46 2    
    93   45   47 1    
    94   47   48 1    
    95   47   49 1    
    96   47  170 1    
    97   48  171 1    
    98   48  172 1    
    99   48  173 1    
   100   49   50 am   BACKBONE|DICT|INTERRES
   101   49  174 1    
   102   50   51 2    
   103   50   52 1    
   104   52   53 1    
   105   52   54 1    
   106   52  175 1    
   107   53  176 1    
   108   53  177 1    
   109   53  178 1    
   110   54   55 am   BACKBONE|DICT|INTERRES
   111   54  179 1    
   112   55   56 2    
   113   55   57 1    
   114   57   58 1    
   115   57   59 1    
   116   57  180 1    
   117   58  181 1    
   118   58  182 1    
   119   58  183 1    
   120   59   60 am   BACKBONE|DICT|INTERRES
   121   59  184 1    
   122   60   61 2    
   123   60   62 1    
   124   62   63 1    
   125   62   64 1    
   126   62  185 1    
   127   63  186 1    
   128   63  187 1    
   129   63  188 1    
   130   64   65 am   BACKBONE|DICT|INTERRES
   131   64  189 1    
   132   65   66 2    
   133   67   68 2    
   134   67   69 am   BACKBONE|DICT|INTERRES
   135   69   70 1    
   136   69  190 1    
   137   70   71 1    
   138   70   72 1    
   139   70  191 1    
   140   71  192 1    
   141   71  193 1    
   142   71  194 1    
   143   72   73 2    
   144   72   74 am   BACKBONE|DICT|INTERRES
   145   74   75 1    
   146   74  195 1    
   147   75   76 1    
   148   75   77 1    
   149   75  196 1    
   150   76  197 1    
   151   76  198 1    
   152   76  199 1    
   153   77   78 2    
   154   77   79 am   BACKBONE|DICT|INTERRES
   155   79   80 1    
   156   79  200 1    
   157   80   81 1    
   158   80   82 1    
   159   80  201 1    
   160   81  202 1    
   161   81  203 1    
   162   81  204 1    
   163   82   83 2    
   164   82   84 am   BACKBONE|DICT|INTERRES
   165   84   85 1    
   166   84  205 1    
   167   85   86 1    
   168   85   87 1    
   169   85  206 1    
   170   86  207 1    
   171   86  208 1    
   172   86  209 1    
   173   87   88 2    
   174   87   89 am   BACKBONE|DICT|INTERRES
   175   89   90 1    
   176   89  210 1    
   177   90   91 1    
   178   90   92 1    
   179   90  211 1    
   180   91  212 1    
   181   91  213 1    
   182   91  214 1    
   183   92   93 2    
   184   92   94 am   BACKBONE|DICT|INTERRES
   185   94   95 1    
   186   94  215 1    
   187   95   96 1    
   188   95   97 1    
   189   95  216 1    
   190   96  217 1    
   191   96  218 1    
   192   96  219 1    
   193   97   98 2    
   194   97   99 am   BACKBONE|DICT|INTERRES
   195   99  100 1    
   196   99  220 1    
   197  100  101 1    
   198  100  102 1    
   199  100  221 1    
   200  101  222 1    
   201  101  223 1    
   202  101  224 1    
   203  102  103 2    
   204  102  104 am   BACKBONE|DICT|INTERRES
   205  104  105 1    
   206  104  225 1    
   207  105  106 1    
   208  105  107 1    
   209  105  226 1    
   210  106  227 1    
   211  106  228 1    
   212  106  229 1    
   213  107  108 2    
   214  107  109 am   BACKBONE|DICT|INTERRES
   215  109  110 1    
   216  109  230 1    
   217  110  111 1    
   218  110  112 1    
   219  110  231 1    
   220  111  232 1    
   221  111  233 1    
   222  111  234 1    
   223  112  113 2    
   224  112  114 am   BACKBONE|DICT|INTERRES
   225  114  115 1    
   226  114  235 1    
   227  115  116 1    
   228  115  117 1    
   229  115  236 1    
   230  116  237 1    
   231  116  238 1    
   232  116  239 1    
   233  117  118 2    
   234  117  119 am   BACKBONE|DICT|INTERRES
   235  119  120 1    
   236  119  240 1    
   237  120  121 1    
   238  120  124 1    
   239  120  241 1    
   240  121  122 am   BACKBONE|DICT|INTERRES
   241  121  123 2    
   242  122  242 1    
   243  122  243 1    
   244  124  125 1    
   245  124  244 1    
   246  124  245 1    
   247  125  126 1    
   248  126  246 1    
   249  126  247 1    
@<TRIPOS>SUBSTRUCTURE
     1 UNK         1 GROUP             0       ****    0 ROOT    
