@<TRIPOS>MOLECULE
3R540
247   249    1
SMALL
USER_CHARGES


@<TRIPOS>ATOM
      1 CA          6.4388  -14.5300  -47.8806 C.3       0 UNK        -0.1800 
      2 C           4.9294  -14.5661  -47.6880 C.2       0 UNK         0.5000 
      3 O           4.4548  -15.1450  -46.7099 O.2       0 UNK        -0.5000 
      4 N           4.1838  -13.9547  -48.6197 N.am      1 UNK        -0.5000 
      5 CA          2.7188  -13.8661  -48.6538 C.3       1 UNK         0.1400 
      6 C6          2.2113  -13.1350  -49.9240 C.3       23 UNK        -0.0398 
      7 S7          2.7054  -13.9448  -51.4859 S.3       23 UNK        -0.2404 
      8 C8          1.1333  -13.9593  -52.4185 C.3       23 UNK        -0.0205 
      9 C9          0.3879  -15.2886  -52.3376 C.ar      23 UNK        -0.0193 
     10 C10        -0.1043  -15.8785  -53.5056 C.ar      23 UNK        -0.1150 
     11 C11        -0.7833  -17.1002  -53.4620 C.ar      23 UNK        -0.0193 
     12 C12        -0.9661  -17.7428  -52.2331 C.ar      23 UNK        -0.1150 
     13 C13        -0.4893  -17.1582  -51.0550 C.ar      23 UNK        -0.0193 
     14 C14         0.1704  -15.9272  -51.1132 C.ar      23 UNK        -0.1150 
     15 C15        -0.6649  -17.8488  -49.7127 C.3       23 UNK        -0.0205 
     16 S16         0.8928  -18.6325  -49.1961 S.3       23 UNK        -0.2404 
     17 C17         0.5893  -18.9289  -47.4239 C.3       23 UNK        -0.0398 
     18 CA          0.2951  -20.4135  -47.1057 C.3       11 UNK         0.1400 
     19 N           0.6494  -20.7646  -45.7308 N.am      11 UNK        -0.5000 
     20 C           0.7017  -22.0147  -45.2517 C.2       10 UNK         0.5000 
     21 O           0.4754  -23.0171  -45.9292 O.2       10 UNK        -0.5000 
     22 CA          1.0159  -22.1683  -43.7531 C.3       10 UNK         0.1400 
     23 CB          2.5206  -22.0094  -43.4908 C.3       10 UNK        -0.1800 
     24 N           0.2650  -21.2270  -42.9207 N.am      10 UNK        -0.5000 
     25 C          -1.0725  -21.2119  -42.8199 C.2       9 UNK         0.5000 
     26 O          -1.8120  -22.0075  -43.3995 O.2       9 UNK        -0.5000 
     27 CA         -1.6928  -20.0966  -41.9612 C.3       9 UNK         0.1400 
     28 CB         -1.5718  -20.4285  -40.4665 C.3       9 UNK        -0.1800 
     29 N          -1.1004  -18.7853  -42.2228 N.am      9 UNK        -0.5000 
     30 C          -1.1506  -18.1449  -43.3997 C.2       8 UNK         0.5000 
     31 O          -1.7220  -18.5814  -44.3983 O.2       8 UNK        -0.5000 
     32 CA         -0.3756  -16.8195  -43.4962 C.3       8 UNK         0.1400 
     33 CB         -1.1272  -15.6889  -42.7764 C.3       8 UNK        -0.1800 
     34 N           0.9855  -16.9318  -42.9684 N.am      8 UNK        -0.5000 
     35 C           1.9139  -17.7767  -43.4425 C.2       7 UNK         0.5000 
     36 O           1.7351  -18.5210  -44.4033 O.2       7 UNK        -0.5000 
     37 CA          3.2531  -17.8352  -42.6962 C.3       7 UNK         0.1400 
     38 CB          4.1772  -16.7093  -43.1722 C.3       7 UNK        -0.1800 
     39 N           3.0672  -17.7587  -41.2485 N.am      7 UNK        -0.5000 
     40 C           2.5290  -18.7419  -40.5125 C.2       6 UNK         0.5000 
     41 O           2.1662  -19.8248  -40.9741 O.2       6 UNK        -0.5000 
     42 CA          2.3162  -18.4415  -39.0184 C.3       6 UNK         0.1400 
     43 CB          3.6333  -18.5775  -38.2398 C.3       6 UNK        -0.1800 
     44 N           1.7505  -17.1108  -38.7924 N.am      6 UNK        -0.5000 
     45 C           0.5303  -16.7315  -39.1963 C.2       5 UNK         0.5000 
     46 O          -0.2581  -17.4737  -39.7808 O.2       5 UNK        -0.5000 
     47 CA          0.1330  -15.2681  -38.9349 C.3       5 UNK         0.1400 
     48 CB         -0.5319  -15.1321  -37.5571 C.3       5 UNK        -0.1800 
     49 N           1.2400  -14.3122  -39.0334 N.am      5 UNK        -0.5000 
     50 C           1.9877  -14.0986  -40.1246 C.2       4 UNK         0.5000 
     51 O           1.8902  -14.7651  -41.1597 O.2       4 UNK        -0.5000 
     52 CA          2.9793  -12.9224  -40.0282 C.3       4 UNK         0.1400 
     53 CB          4.0736  -13.1647  -38.9669 C.3       4 UNK        -0.1800 
     54 N           3.5256  -12.5610  -41.3405 N.am      4 UNK        -0.5000 
     55 C           4.5052  -13.1462  -42.0418 C.2       3 UNK         0.5000 
     56 O           5.2600  -14.0134  -41.5996 O.2       3 UNK        -0.5000 
     57 CA          4.6174  -12.6995  -43.5166 C.3       3 UNK         0.1400 
     58 CB          5.9419  -13.1321  -44.1686 C.3       3 UNK        -0.1800 
     59 N           3.5087  -13.2234  -44.3184 N.am      3 UNK        -0.5000 
     60 C           2.2366  -12.8035  -44.2585 C.2       2 UNK         0.5000 
     61 O           1.8698  -11.8480  -43.5703 O.2       2 UNK        -0.5000 
     62 CA          1.2131  -13.5933  -45.1020 C.3       2 UNK         0.1400 
     63 CB         -0.1501  -12.8832  -45.2323 C.3       2 UNK        -0.1800 
     64 N           1.7222  -13.9881  -46.4185 N.am      2 UNK        -0.5000 
     65 C           2.1724  -13.1759  -47.3854 C.2       1 UNK         0.5000 
     66 O           2.1948  -11.9462  -47.3041 O.2       1 UNK        -0.5000 
     67 C          -1.1613  -20.7931  -47.4326 C.2       11 UNK         0.5000 
     68 O          -1.4013  -21.3883  -48.4804 O.2       11 UNK        -0.5000 
     69 N          -2.0988  -20.4956  -46.5199 N.am      12 UNK        -0.5000 
     70 CA         -3.5117  -20.8621  -46.6402 C.3       12 UNK         0.1400 
     71 CB         -4.3157  -20.2281  -45.4962 C.3       12 UNK        -0.1800 
     72 C          -3.7365  -22.3839  -46.6831 C.2       12 UNK         0.5000 
     73 O          -4.5632  -22.8473  -47.4699 O.2       12 UNK        -0.5000 
     74 N          -2.9777  -23.1311  -45.8689 N.am      13 UNK        -0.5000 
     75 CA         -2.9653  -24.5929  -45.8590 C.3       13 UNK         0.1400 
     76 CB         -2.1900  -25.1003  -44.6339 C.3       13 UNK        -0.1800 
     77 C          -2.3922  -25.1815  -47.1605 C.2       13 UNK         0.5000 
     78 O          -3.0038  -26.0840  -47.7319 O.2       13 UNK        -0.5000 
     79 N          -1.2599  -24.6370  -47.6304 N.am      14 UNK        -0.5000 
     80 CA         -0.6074  -25.0196  -48.8871 C.3       14 UNK         0.1400 
     81 CB          0.7576  -24.3223  -48.9890 C.3       14 UNK        -0.1800 
     82 C          -1.4676  -24.7157  -50.1289 C.2       14 UNK         0.5000 
     83 O          -1.5139  -25.5254  -51.0552 O.2       14 UNK        -0.5000 
     84 N          -2.1628  -23.5721  -50.1030 N.am      15 UNK        -0.5000 
     85 CA         -3.1305  -23.1371  -51.1097 C.3       15 UNK         0.1400 
     86 CB         -3.3553  -21.6253  -50.9372 C.3       15 UNK        -0.1800 
     87 C          -4.4769  -23.8866  -51.0375 C.2       15 UNK         0.5000 
     88 O          -5.3063  -23.7048  -51.9303 O.2       15 UNK        -0.5000 
     89 N          -4.6905  -24.6687  -49.9678 N.am      16 UNK        -0.5000 
     90 CA         -5.9029  -25.4202  -49.6298 C.3       16 UNK         0.1400 
     91 CB         -6.0750  -26.6196  -50.5826 C.3       16 UNK        -0.1800 
     92 C          -7.1497  -24.5155  -49.5461 C.2       16 UNK         0.5000 
     93 O          -8.1897  -24.8332  -50.1240 O.2       16 UNK        -0.5000 
     94 N          -6.9939  -23.3812  -48.8465 N.am      17 UNK        -0.5000 
     95 CA         -7.9587  -22.2843  -48.7113 C.3       17 UNK         0.1400 
     96 CB         -9.2250  -22.7415  -47.9567 C.3       17 UNK        -0.1800 
     97 C          -8.2610  -21.5941  -50.0601 C.2       17 UNK         0.5000 
     98 O          -9.4097  -21.2441  -50.3362 O.2       17 UNK        -0.5000 
     99 N          -7.2023  -21.4065  -50.8629 N.am      18 UNK        -0.5000 
    100 CA        -7.1820  -20.7869  -52.1919 C.3       18 UNK         0.1400 
    101 CB        -7.5656  -19.2945  -52.1158 C.3       18 UNK        -0.1800 
    102 C         -7.9987  -21.5783  -53.2322 C.2       18 UNK         0.5000 
    103 O         -8.8078  -21.0030  -53.9635 O.2       18 UNK        -0.5000 
    104 N         -7.7482  -22.8915  -53.3051 N.am      19 UNK        -0.5000 
    105 CA        -8.3599  -23.8169  -54.2609 C.3       19 UNK         0.1400 
    106 CB        -8.2946  -25.2412  -53.6843 C.3       19 UNK        -0.1800 
    107 C         -7.6827  -23.7091  -55.6430 C.2       19 UNK         0.5000 
    108 O         -7.0003  -24.6404  -56.0739 O.2       19 UNK        -0.5000 
    109 N         -7.8531  -22.5455  -56.2890 N.am      20 UNK        -0.5000 
    110 CA        -7.2357  -22.1307  -57.5573 C.3       20 UNK         0.1400 
    111 CB        -7.7429  -22.9960  -58.7302 C.3       20 UNK        -0.1800 
    112 C         -5.6936  -22.0604  -57.4777 C.2       20 UNK         0.5000 
    113 O         -5.0004  -22.3531  -58.4551 O.2       20 UNK        -0.5000 
    114 N         -5.1867  -21.6797  -56.2971 N.am      21 UNK        -0.5000 
    115 CA        -3.7659  -21.5435  -55.9872 C.3       21 UNK         0.1400 
    116 CB        -3.6128  -21.2772  -54.4840 C.3       21 UNK        -0.1800 
    117 C         -3.0949  -20.4295  -56.8092 C.2       21 UNK         0.5000 
    118 O         -3.7185  -19.3978  -57.0695 O.2       21 UNK        -0.5000 
    119 N         -1.8343  -20.6681  -57.1875 N.am      22 UNK        -0.5000 
    120 CA        -0.9956  -19.8000  -58.0354 C.3       22 UNK         0.1400 
    121 C         -1.4438  -19.7145  -59.5291 C.2       22 UNK         0.5000 
    122 N         -2.3955  -20.5166  -59.9930 N.am      22 UNK        -0.7600 
    123 O         -0.8942  -18.9294  -60.2973 O.2       22 UNK        -0.5000 
    124 C124       -0.7333  -18.3932  -57.4248 C.3       23 UNK        -0.0398 
    125 S125        0.0006  -18.4429  -55.7508 S.3       23 UNK        -0.2404 
    126 C126       -1.3276  -17.7026  -54.7486 C.3       23 UNK        -0.0205 
    127 H127        6.7228  -13.9434  -48.7546 H         1 UNK         0.0600 
    128 H128        6.8224  -15.5419  -48.0103 H         1 UNK         0.0600 
    129 H129        6.9212  -14.0929  -47.0069 H         1 UNK         0.0600 
    130 H130        4.6504  -13.5015  -49.3922 H         1 UNK         0.3000 
    131 H131        2.3342  -14.8878  -48.6794 H         1 UNK         0.0600 
    132 H132        1.1235  -13.0551  -49.8911 H         1 UNK         0.0800 
    133 H133        2.5852  -12.1098  -49.9526 H         1 UNK         0.0800 
    134 H134        0.4773  -13.1542  -52.0862 H         1 UNK         0.0800 
    135 H135        1.3739  -13.7341  -53.4587 H         1 UNK         0.0800 
    136 H136        0.0423  -15.3891  -54.4585 H         1 UNK         0.1150 
    137 H137       -1.4789  -18.6937  -52.1931 H         1 UNK         0.1150 
    138 H138        0.5356  -15.4813  -50.2005 H         1 UNK         0.1150 
    139 H139       -0.9789  -17.1140  -48.9698 H         1 UNK         0.0800 
    140 H140       -1.4526  -18.6026  -49.7619 H         1 UNK         0.0800 
    141 H141       -0.1867  -18.2671  -47.0351 H         1 UNK         0.0800 
    142 H142        1.5102  -18.6249  -46.9270 H         1 UNK         0.0800 
    143 H143        0.9368  -21.0250  -47.7440 H         1 UNK         0.0600 
    144 H144        0.8888  -19.9902  -45.1151 H         1 UNK         0.3000 
    145 H145        0.7256  -23.1783  -43.4566 H         1 UNK         0.0600 
    146 H146        2.7597  -22.1977  -42.4440 H         1 UNK         0.0600 
    147 H147        3.0980  -22.7155  -44.0887 H         1 UNK         0.0600 
    148 H148        2.8695  -21.0067  -43.7380 H         1 UNK         0.0600 
    149 H149        0.8076  -20.5549  -42.3890 H         1 UNK         0.3000 
    150 H150       -2.7540  -20.0373  -42.2114 H         1 UNK         0.0600 
    151 H151       -2.0086  -21.4030  -40.2448 H         1 UNK         0.0600 
    152 H152       -2.0943  -19.6912  -39.8569 H         1 UNK         0.0600 
    153 H153       -0.5307  -20.4513  -40.1419 H         1 UNK         0.0600 
    154 H154       -0.6311  -18.3379  -41.4395 H         1 UNK         0.3000 
    155 H155       -0.2966  -16.5577  -44.5532 H         1 UNK         0.0600 
    156 H156       -1.3463  -15.9448  -41.7406 H         1 UNK         0.0600 
    157 H157       -0.5556  -14.7614  -42.7733 H         1 UNK         0.0600 
    158 H158       -2.0791  -15.4849  -43.2678 H         1 UNK         0.0600 
    159 H159        1.2314  -16.3267  -42.1905 H         1 UNK         0.3000 
    160 H160        3.7321  -18.7881  -42.9300 H         1 UNK         0.0600 
    161 H161        3.7170  -15.7353  -43.0177 H         1 UNK         0.0600 
    162 H162        4.3918  -16.8026  -44.2377 H         1 UNK         0.0600 
    163 H163        5.1301  -16.7222  -42.6432 H         1 UNK         0.0600 
    164 H164        3.2820  -16.8755  -40.8081 H         1 UNK         0.3000 
    165 H165        1.6114  -19.1791  -38.6285 H         1 UNK         0.0600 
    166 H166        3.4733  -18.4473  -37.1693 H         1 UNK         0.0600 
    167 H167        4.0708  -19.5664  -38.3839 H         1 UNK         0.0600 
    168 H168        4.3716  -17.8416  -38.5609 H         1 UNK         0.0600 
    169 H169        2.3350  -16.4343  -38.3241 H         1 UNK         0.3000 
    170 H170       -0.6025  -14.9902  -39.6916 H         1 UNK         0.0600 
    171 H171        0.1658  -15.3560  -36.7491 H         1 UNK         0.0600 
    172 H172       -0.9153  -14.1236  -37.4010 H         1 UNK         0.0600 
    173 H173       -1.3759  -15.8167  -37.4612 H         1 UNK         0.0600 
    174 H174        1.3862  -13.7235  -38.2261 H         1 UNK         0.3000 
    175 H175        2.4016  -12.0525  -39.7125 H         1 UNK         0.0600 
    176 H176        4.8238  -12.3741  -38.9836 H         1 UNK         0.0600 
    177 H177        4.5835  -14.1172  -39.1138 H         1 UNK         0.0600 
    178 H178        3.6480  -13.1821  -37.9633 H         1 UNK         0.0600 
    179 H179        2.9249  -11.9444  -41.8795 H         1 UNK         0.3000 
    180 H180        4.5800  -11.6083  -43.5362 H         1 UNK         0.0600 
    181 H181        6.0179  -14.2175  -44.2483 H         1 UNK         0.0600 
    182 H182        6.7971  -12.7821  -43.5892 H         1 UNK         0.0600 
    183 H183        6.0370  -12.7142  -45.1706 H         1 UNK         0.0600 
    184 H184        3.7305  -13.9975  -44.9334 H         1 UNK         0.3000 
    185 H185        1.0497  -14.5213  -44.5569 H         1 UNK         0.0600 
    186 H186       -0.5871  -12.6893  -44.2521 H         1 UNK         0.0600 
    187 H187       -0.0604  -11.9248  -45.7444 H         1 UNK         0.0600 
    188 H188       -0.8613  -13.4955  -45.7866 H         1 UNK         0.0600 
    189 H189        1.8217  -14.9835  -46.5627 H         1 UNK         0.3000 
    190 H190       -1.8372  -19.9734  -45.6872 H         1 UNK         0.3000 
    191 H191       -3.8808  -20.4492  -47.5810 H         1 UNK         0.0600 
    192 H192       -4.2426  -19.1408  -45.5198 H         1 UNK         0.0600 
    193 H193       -5.3732  -20.4845  -45.5715 H         1 UNK         0.0600 
    194 H194       -3.9629  -20.5657  -44.5212 H         1 UNK         0.0600 
    195 H195       -2.3635  -22.6659  -45.2075 H         1 UNK         0.3000 
    196 H196       -3.9985  -24.9348  -45.7674 H         1 UNK         0.0600 
    197 H197       -2.1817  -26.1904  -44.6007 H         1 UNK         0.0600 
    198 H198       -2.6462  -24.7499  -43.7079 H         1 UNK         0.0600 
    199 H199       -1.1533  -24.7635  -44.6419 H         1 UNK         0.0600 
    200 H200       -0.7952  -23.9201  -47.0794 H         1 UNK         0.3000 
    201 H201       -0.4370  -26.0977  -48.8582 H         1 UNK         0.0600 
    202 H202        1.4018  -24.5932  -48.1524 H         1 UNK         0.0600 
    203 H203        0.6552  -23.2368  -48.9939 H         1 UNK         0.0600 
    204 H204        1.2757  -24.6083  -49.9052 H         1 UNK         0.0600 
    205 H205       -1.9967  -22.9222  -49.3371 H         1 UNK         0.3000 
    206 H206       -2.7074  -23.3152  -52.1001 H         1 UNK         0.0600 
    207 H207       -2.4226  -21.0732  -51.0552 H         1 UNK         0.0600 
    208 H208       -4.0526  -21.2347  -51.6749 H         1 UNK         0.0600 
    209 H209       -3.7602  -21.3911  -49.9522 H         1 UNK         0.0600 
    210 H210       -3.9494  -24.7289  -49.2817 H         1 UNK         0.3000 
    211 H211       -5.7490  -25.8174  -48.6255 H         1 UNK         0.0600 
    212 H212       -6.2185  -26.2993  -51.6133 H         1 UNK         0.0600 
    213 H213       -6.9378  -27.2247  -50.3019 H         1 UNK         0.0600 
    214 H214       -5.2002  -27.2691  -50.5545 H         1 UNK         0.0600 
    215 H215       -6.0919  -23.2247  -48.3974 H         1 UNK         0.3000 
    216 H216       -7.4685  -21.5309  -48.0929 H         1 UNK         0.0600 
    217 H217       -9.8690  -21.8919  -47.7271 H         1 UNK         0.0600 
    218 H218       -8.9690  -23.2183  -47.0106 H         1 UNK         0.0600 
    219 H219       -9.8154  -23.4480  -48.5403 H         1 UNK         0.0600 
    220 H220       -6.3224  -21.7923  -50.5541 H         1 UNK         0.3000 
    221 H221       -6.1492  -20.8327  -52.5358 H         1 UNK         0.0600 
    222 H222       -8.6074  -19.1549  -51.8262 H         1 UNK         0.0600 
    223 H223       -6.9429  -18.7640  -51.3956 H         1 UNK         0.0600 
    224 H224       -7.4288  -18.8077  -53.0821 H         1 UNK         0.0600 
    225 H225       -7.0175  -23.2781  -52.7121 H         1 UNK         0.3000 
    226 H226       -9.4135  -23.5586  -54.3858 H         1 UNK         0.0600 
    227 H227       -8.8106  -25.3036  -52.7265 H         1 UNK         0.0600 
    228 H228       -8.7691  -25.9576  -54.3559 H         1 UNK         0.0600 
    229 H229       -7.2643  -25.5633  -53.5337 H         1 UNK         0.0600 
    230 H230       -8.4016  -21.8364  -55.8125 H         1 UNK         0.3000 
    231 H231       -7.5717  -21.1087  -57.7375 H         1 UNK         0.0600 
    232 H232       -7.3868  -24.0241  -58.6612 H         1 UNK         0.0600 
    233 H233       -7.4010  -22.5969  -59.6858 H         1 UNK         0.0600 
    234 H234       -8.8321  -23.0190  -58.7610 H         1 UNK         0.0600 
    235 H235       -5.8329  -21.4380  -55.5628 H         1 UNK         0.3000 
    236 H236       -3.2839  -22.4950  -56.2216 H         1 UNK         0.0600 
    237 H237       -4.0595  -22.0844  -53.9042 H         1 UNK         0.0600 
    238 H238       -2.5615  -21.2137  -54.2001 H         1 UNK         0.0600 
    239 H239       -4.0907  -20.3422  -54.1886 H         1 UNK         0.0600 
    240 H240       -1.4066  -21.5435  -56.9212 H         1 UNK         0.3000 
    241 H241       -0.0305  -20.3057  -58.0791 H         1 UNK         0.0600 
    242 H242       -2.8763  -21.1611  -59.3831 H         1 UNK         0.3800 
    243 H243       -2.6622  -20.4562  -60.9631 H         1 UNK         0.3800 
    244 H244       -0.0338  -17.8383  -58.0519 H         1 UNK         0.0800 
    245 H245       -1.6500  -17.8031  -57.4206 H         1 UNK         0.0800 
    246 H246       -1.8303  -16.9161  -55.3133 H         1 UNK         0.0800 
    247 H247       -2.0837  -18.4596  -54.5357 H         1 UNK         0.0800 
@<TRIPOS>BOND
     1    1    2 1    
     2    1  127 1    
     3    1  128 1    
     4    1  129 1    
     5    2    3 2    
     6    2    4 am   BACKBONE|DICT|INTERRES
     7    4    5 1    
     8    4  130 1    
     9    5    6 1    
    10    5   65 1    
    11    5  131 1    
    12    6    7 1    
    13    6  132 1    
    14    6  133 1    
    15    7    8 1    
    16    8    9 1    
    17    8  134 1    
    18    8  135 1    
    19    9   10 ar   
    20    9   14 ar   
    21   10   11 ar   
    22   10  136 1    
    23   11   12 ar   
    24   11  126 1    
    25   12   13 ar   
    26   12  137 1    
    27   13   14 ar   
    28   13   15 1    
    29   14  138 1    
    30   15   16 1    
    31   15  139 1    
    32   15  140 1    
    33   16   17 1    
    34   17   18 1    
    35   17  141 1    
    36   17  142 1    
    37   18   19 1    
    38   18   67 1    
    39   18  143 1    
    40   19   20 am   BACKBONE|DICT|INTERRES
    41   19  144 1    
    42   20   21 2    
    43   20   22 1    
    44   22   23 1    
    45   22   24 1    
    46   22  145 1    
    47   23  146 1    
    48   23  147 1    
    49   23  148 1    
    50   24   25 am   BACKBONE|DICT|INTERRES
    51   24  149 1    
    52   25   26 2    
    53   25   27 1    
    54   27   28 1    
    55   27   29 1    
    56   27  150 1    
    57   28  151 1    
    58   28  152 1    
    59   28  153 1    
    60   29   30 am   BACKBONE|DICT|INTERRES
    61   29  154 1    
    62   30   31 2    
    63   30   32 1    
    64   32   33 1    
    65   32   34 1    
    66   32  155 1    
    67   33  156 1    
    68   33  157 1    
    69   33  158 1    
    70   34   35 am   BACKBONE|DICT|INTERRES
    71   34  159 1    
    72   35   36 2    
    73   35   37 1    
    74   37   38 1    
    75   37   39 1    
    76   37  160 1    
    77   38  161 1    
    78   38  162 1    
    79   38  163 1    
    80   39   40 am   BACKBONE|DICT|INTERRES
    81   39  164 1    
    82   40   41 2    
    83   40   42 1    
    84   42   43 1    
    85   42   44 1    
    86   42  165 1    
    87   43  166 1    
    88   43  167 1    
    89   43  168 1    
    90   44   45 am   BACKBONE|DICT|INTERRES
    91   44  169 1    
    92   45   46 2    
    93   45   47 1    
    94   47   48 1    
    95   47   49 1    
    96   47  170 1    
    97   48  171 1    
    98   48  172 1    
    99   48  173 1    
   100   49   50 am   BACKBONE|DICT|INTERRES
   101   49  174 1    
   102   50   51 2    
   103   50   52 1    
   104   52   53 1    
   105   52   54 1    
   106   52  175 1    
   107   53  176 1    
   108   53  177 1    
   109   53  178 1    
   110   54   55 am   BACKBONE|DICT|INTERRES
   111   54  179 1    
   112   55   56 2    
   113   55   57 1    
   114   57   58 1    
   115   57   59 1    
   116   57  180 1    
   117   58  181 1    
   118   58  182 1    
   119   58  183 1    
   120   59   60 am   BACKBONE|DICT|INTERRES
   121   59  184 1    
   122   60   61 2    
   123   60   62 1    
   124   62   63 1    
   125   62   64 1    
   126   62  185 1    
   127   63  186 1    
   128   63  187 1    
   129   63  188 1    
   130   64   65 am   BACKBONE|DICT|INTERRES
   131   64  189 1    
   132   65   66 2    
   133   67   68 2    
   134   67   69 am   BACKBONE|DICT|INTERRES
   135   69   70 1    
   136   69  190 1    
   137   70   71 1    
   138   70   72 1    
   139   70  191 1    
   140   71  192 1    
   141   71  193 1    
   142   71  194 1    
   143   72   73 2    
   144   72   74 am   BACKBONE|DICT|INTERRES
   145   74   75 1    
   146   74  195 1    
   147   75   76 1    
   148   75   77 1    
   149   75  196 1    
   150   76  197 1    
   151   76  198 1    
   152   76  199 1    
   153   77   78 2    
   154   77   79 am   BACKBONE|DICT|INTERRES
   155   79   80 1    
   156   79  200 1    
   157   80   81 1    
   158   80   82 1    
   159   80  201 1    
   160   81  202 1    
   161   81  203 1    
   162   81  204 1    
   163   82   83 2    
   164   82   84 am   BACKBONE|DICT|INTERRES
   165   84   85 1    
   166   84  205 1    
   167   85   86 1    
   168   85   87 1    
   169   85  206 1    
   170   86  207 1    
   171   86  208 1    
   172   86  209 1    
   173   87   88 2    
   174   87   89 am   BACKBONE|DICT|INTERRES
   175   89   90 1    
   176   89  210 1    
   177   90   91 1    
   178   90   92 1    
   179   90  211 1    
   180   91  212 1    
   181   91  213 1    
   182   91  214 1    
   183   92   93 2    
   184   92   94 am   BACKBONE|DICT|INTERRES
   185   94   95 1    
   186   94  215 1    
   187   95   96 1    
   188   95   97 1    
   189   95  216 1    
   190   96  217 1    
   191   96  218 1    
   192   96  219 1    
   193   97   98 2    
   194   97   99 am   BACKBONE|DICT|INTERRES
   195   99  100 1    
   196   99  220 1    
   197  100  101 1    
   198  100  102 1    
   199  100  221 1    
   200  101  222 1    
   201  101  223 1    
   202  101  224 1    
   203  102  103 2    
   204  102  104 am   BACKBONE|DICT|INTERRES
   205  104  105 1    
   206  104  225 1    
   207  105  106 1    
   208  105  107 1    
   209  105  226 1    
   210  106  227 1    
   211  106  228 1    
   212  106  229 1    
   213  107  108 2    
   214  107  109 am   BACKBONE|DICT|INTERRES
   215  109  110 1    
   216  109  230 1    
   217  110  111 1    
   218  110  112 1    
   219  110  231 1    
   220  111  232 1    
   221  111  233 1    
   222  111  234 1    
   223  112  113 2    
   224  112  114 am   BACKBONE|DICT|INTERRES
   225  114  115 1    
   226  114  235 1    
   227  115  116 1    
   228  115  117 1    
   229  115  236 1    
   230  116  237 1    
   231  116  238 1    
   232  116  239 1    
   233  117  118 2    
   234  117  119 am   BACKBONE|DICT|INTERRES
   235  119  120 1    
   236  119  240 1    
   237  120  121 1    
   238  120  124 1    
   239  120  241 1    
   240  121  122 am   BACKBONE|DICT|INTERRES
   241  121  123 2    
   242  122  242 1    
   243  122  243 1    
   244  124  125 1    
   245  124  244 1    
   246  124  245 1    
   247  125  126 1    
   248  126  246 1    
   249  126  247 1    
@<TRIPOS>SUBSTRUCTURE
     1 UNK         1 GROUP             0       ****    0 ROOT    
