@<TRIPOS>MOLECULE
3R540
247   249    1
SMALL
USER_CHARGES


@<TRIPOS>ATOM
      1 CA          0.1312  -10.9477  -48.1800 C.3       0 UNK        -0.1800 
      2 C           1.5321  -11.5260  -48.3186 C.2       0 UNK         0.5000 
      3 O           2.0241  -11.6768  -49.4372 O.2       0 UNK        -0.5000 
      4 N           2.1646  -11.8435  -47.1851 N.am      1 UNK        -0.5000 
      5 CA          3.5316  -12.3570  -47.0888 C.3       1 UNK         0.1400 
      6 C6          3.5733  -13.7809  -46.4697 C.3       23 UNK        -0.0398 
      7 S7          2.5280  -14.9901  -47.3477 S.3       23 UNK        -0.2404 
      8 C8          3.6625  -15.5616  -48.6525 C.3       23 UNK        -0.0205 
      9 C9          3.1285  -16.8032  -49.3526 C.ar      23 UNK        -0.0193 
     10 C10         2.0719  -16.6981  -50.2618 C.ar      23 UNK        -0.1150 
     11 C11         1.5573  -17.8302  -50.9021 C.ar      23 UNK        -0.0193 
     12 C12         2.1347  -19.0787  -50.6327 C.ar      23 UNK        -0.1150 
     13 C13         3.2040  -19.1974  -49.7431 C.ar      23 UNK        -0.0193 
     14 C14         3.6930  -18.0572  -49.1001 C.ar      23 UNK        -0.1150 
     15 C15         3.8440  -20.5564  -49.5001 C.3       23 UNK        -0.0205 
     16 S16         3.1222  -21.4151  -48.0692 S.3       23 UNK        -0.2404 
     17 C17         1.4799  -21.9072  -48.6998 C.3       23 UNK        -0.0398 
     18 CA          0.8131  -22.9693  -47.7938 C.3       11 UNK         0.1400 
     19 N           0.5821  -22.4838  -46.4296 N.am      11 UNK        -0.5000 
     20 C           0.1834  -23.2460  -45.4027 C.2       10 UNK         0.5000 
     21 O           0.0056  -24.4608  -45.4832 O.2       10 UNK        -0.5000 
     22 CA         -0.1153  -22.5252  -44.0780 C.3       10 UNK         0.1400 
     23 CB          1.1702  -22.2955  -43.2689 C.3       10 UNK        -0.1800 
     24 N          -0.7987  -21.2515  -44.3022 N.am      10 UNK        -0.5000 
     25 C          -2.0870  -21.1434  -44.6555 C.2       9 UNK         0.5000 
     26 O          -2.8415  -22.1087  -44.7803 O.2       9 UNK        -0.5000 
     27 CA         -2.6119  -19.7243  -44.9525 C.3       9 UNK         0.1400 
     28 CB         -3.0345  -19.0193  -43.6555 C.3       9 UNK        -0.1800 
     29 N          -1.6419  -18.8868  -45.6591 N.am      9 UNK        -0.5000 
     30 C          -1.1737  -19.1442  -46.8885 C.2       8 UNK         0.5000 
     31 O          -1.5409  -20.0946  -47.5747 O.2       8 UNK        -0.5000 
     32 CA         -0.0756  -18.2136  -47.4271 C.3       8 UNK         0.1400 
     33 CB         -0.7155  -16.9781  -48.0739 C.3       8 UNK        -0.1800 
     34 N           0.9000  -17.7989  -46.4157 N.am      8 UNK        -0.5000 
     35 C           1.6322  -18.6246  -45.6516 C.2       7 UNK         0.5000 
     36 O           1.5051  -19.8471  -45.6542 O.2       7 UNK        -0.5000 
     37 CA          2.6485  -17.9850  -44.6923 C.3       7 UNK         0.1400 
     38 CB          4.0281  -17.8532  -45.3533 C.3       7 UNK        -0.1800 
     39 N           2.1894  -16.6761  -44.2257 N.am      7 UNK        -0.5000 
     40 C           1.4644  -16.5049  -43.1131 C.2       6 UNK         0.5000 
     41 O           1.1984  -17.4075  -42.3183 O.2       6 UNK        -0.5000 
     42 CA          0.9177  -15.0893  -42.8586 C.3       6 UNK         0.1400 
     43 CB          2.0317  -14.1511  -42.3723 C.3       6 UNK        -0.1800 
     44 N           0.2293  -14.4837  -44.0035 N.am      6 UNK        -0.5000 
     45 C          -0.8279  -15.0133  -44.6409 C.2       5 UNK         0.5000 
     46 O          -1.2279  -16.1655  -44.4618 O.2       5 UNK        -0.5000 
     47 CA         -1.5668  -14.1029  -45.6487 C.3       5 UNK         0.1400 
     48 CB         -3.0487  -14.4980  -45.8264 C.3       5 UNK        -0.1800 
     49 N          -1.4567  -12.6675  -45.3630 N.am      5 UNK        -0.5000 
     50 C          -1.8412  -12.0128  -44.2565 C.2       4 UNK         0.5000 
     51 O          -2.3513  -12.5467  -43.2701 O.2       4 UNK        -0.5000 
     52 CA         -1.5743  -10.4927  -44.2564 C.3       4 UNK         0.1400 
     53 CB         -2.7600   -9.7163  -43.6590 C.3       4 UNK        -0.1800 
     54 N          -0.3514  -10.1049  -43.5452 N.am      4 UNK        -0.5000 
     55 C           0.8781  -10.6055  -43.7224 C.2       3 UNK         0.5000 
     56 O           1.1451  -11.5294  -44.5026 O.2       3 UNK        -0.5000 
     57 CA          2.0090   -9.9438  -42.9135 C.3       3 UNK         0.1400 
     58 CB          1.8350  -10.1125  -41.3936 C.3       3 UNK        -0.1800 
     59 N           3.2595  -10.5502  -43.3442 N.am      3 UNK        -0.5000 
     60 C           4.4587   -9.9670  -43.4307 C.2       2 UNK         0.5000 
     61 O           4.7181   -8.8518  -42.9774 O.2       2 UNK        -0.5000 
     62 CA          5.5416  -10.7645  -44.1914 C.3       2 UNK         0.1400 
     63 CB          6.4131  -11.5606  -43.2081 C.3       2 UNK        -0.1800 
     64 N           4.9655  -11.6893  -45.1777 N.am      2 UNK        -0.5000 
     65 C           4.3379  -11.3016  -46.3001 C.2       1 UNK         0.5000 
     66 O           4.3405  -10.1336  -46.6960 O.2       1 UNK        -0.5000 
     67 C          -0.4812  -23.5251  -48.4253 C.2       11 UNK         0.5000 
     68 O          -0.4442  -24.6029  -49.0174 O.2       11 UNK        -0.5000 
     69 N          -1.6083  -22.8273  -48.2255 N.am      12 UNK        -0.5000 
     70 CA         -2.9465  -23.2558  -48.6339 C.3       12 UNK         0.1400 
     71 CB         -3.9531  -22.1284  -48.3617 C.3       12 UNK        -0.1800 
     72 C          -3.3993  -24.5499  -47.9383 C.2       12 UNK         0.5000 
     73 O          -3.9776  -25.4190  -48.5908 O.2       12 UNK        -0.5000 
     74 N          -3.1085  -24.6692  -46.6348 N.am      13 UNK        -0.5000 
     75 CA         -3.3794  -25.8667  -45.8394 C.3       13 UNK         0.1400 
     76 CB         -3.1722  -25.5605  -44.3486 C.3       13 UNK        -0.1800 
     77 C          -2.5286  -27.0709  -46.2833 C.2       13 UNK         0.5000 
     78 O          -3.0577  -28.1778  -46.3825 O.2       13 UNK        -0.5000 
     79 N          -1.2435  -26.8293  -46.5802 N.am      14 UNK        -0.5000 
     80 CA         -0.3042  -27.8235  -47.1035 C.3       14 UNK         0.1400 
     81 CB          1.1208  -27.2505  -47.0719 C.3       14 UNK        -0.1800 
     82 C          -0.6716  -28.3047  -48.5202 C.2       14 UNK         0.5000 
     83 O          -0.5855  -29.5019  -48.7962 O.2       14 UNK        -0.5000 
     84 N          -1.1028  -27.3720  -49.3809 N.am      15 UNK        -0.5000 
     85 CA         -1.6128  -27.6452  -50.7274 C.3       15 UNK         0.1400 
     86 CB         -1.6717  -26.3265  -51.5152 C.3       15 UNK        -0.1800 
     87 C          -2.9990  -28.3202  -50.7293 C.2       15 UNK         0.5000 
     88 O          -3.3640  -28.9423  -51.7274 O.2       15 UNK        -0.5000 
     89 N          -3.7409  -28.1652  -49.6232 N.am      16 UNK        -0.5000 
     90 CA         -5.1249  -28.5865  -49.3953 C.3       16 UNK         0.1400 
     91 CB         -5.2509  -30.1240  -49.4240 C.3       16 UNK        -0.1800 
     92 C          -6.1217  -27.8707  -50.3318 C.2       16 UNK         0.5000 
     93 O          -7.1218  -28.4637  -50.7417 O.2       16 UNK        -0.5000 
     94 N          -5.8334  -26.6028  -50.6488 N.am      17 UNK        -0.5000 
     95 CA         -6.6269  -25.7436  -51.5175 C.3       17 UNK         0.1400 
     96 CB         -6.4224  -26.1266  -52.9954 C.3       17 UNK        -0.1800 
     97 C          -6.2111  -24.2905  -51.2690 C.2       17 UNK         0.5000 
     98 O          -5.0260  -23.9737  -51.3814 O.2       17 UNK        -0.5000 
     99 N          -7.1933  -23.4344  -50.9662 N.am      18 UNK        -0.5000 
    100 CA        -7.0179  -22.0044  -50.6937 C.3       18 UNK         0.1400 
    101 CB        -7.8324  -21.6348  -49.4415 C.3       18 UNK        -0.1800 
    102 C         -7.3928  -21.1261  -51.9032 C.2       18 UNK         0.5000 
    103 O         -7.6703  -19.9372  -51.7323 O.2       18 UNK        -0.5000 
    104 N         -7.3886  -21.7168  -53.1076 N.am      19 UNK        -0.5000 
    105 CA        -7.6297  -21.0499  -54.3884 C.3       19 UNK         0.1400 
    106 CB        -7.5124  -22.0826  -55.5188 C.3       19 UNK        -0.1800 
    107 C         -6.6485  -19.8862  -54.6162 C.2       19 UNK         0.5000 
    108 O         -5.4598  -20.0311  -54.3165 O.2       19 UNK        -0.5000 
    109 N         -7.1742  -18.7445  -55.0817 N.am      20 UNK        -0.5000 
    110 CA        -6.4670  -17.4726  -55.2978 C.3       20 UNK         0.1400 
    111 CB        -5.4731  -17.6071  -56.4708 C.3       20 UNK        -0.1800 
    112 C         -5.7975  -16.8981  -54.0254 C.2       20 UNK         0.5000 
    113 O         -4.8510  -16.1174  -54.1355 O.2       20 UNK        -0.5000 
    114 N         -6.2862  -17.3141  -52.8447 N.am      21 UNK        -0.5000 
    115 CA        -5.7351  -17.0564  -51.5093 C.3       21 UNK         0.1400 
    116 CB        -5.8381  -15.5599  -51.1460 C.3       21 UNK        -0.1800 
    117 C         -4.3119  -17.6292  -51.3180 C.2       21 UNK         0.5000 
    118 O         -3.5338  -17.0838  -50.5344 O.2       21 UNK        -0.5000 
    119 N         -3.9964  -18.7136  -52.0373 N.am      22 UNK        -0.5000 
    120 CA        -2.6881  -19.3808  -52.0330 C.3       22 UNK         0.1400 
    121 C         -2.7968  -20.9308  -52.0162 C.2       22 UNK         0.5000 
    122 N         -3.8549  -21.5267  -52.5511 N.am      22 UNK        -0.7600 
    123 O         -1.9290  -21.6028  -51.4688 O.2       22 UNK        -0.5000 
    124 C124       -1.8010  -18.8489  -53.1898 C.3       23 UNK        -0.0398 
    125 S125       -0.0199  -19.0946  -52.8992 S.3       23 UNK        -0.2404 
    126 C126        0.3567  -17.6575  -51.8346 C.3       23 UNK        -0.0205 
    127 H127       -0.0336  -10.5417  -47.1827 H         1 UNK         0.0600 
    128 H128       -0.6154  -11.7175  -48.3750 H         1 UNK         0.0600 
    129 H129       -0.0157  -10.1395  -48.8967 H         1 UNK         0.0600 
    130 H130        1.7177  -11.6635  -46.2902 H         1 UNK         0.3000 
    131 H131        3.9916  -12.4109  -48.0773 H         1 UNK         0.0600 
    132 H132        4.5959  -14.1604  -46.4348 H         1 UNK         0.0800 
    133 H133        3.2141  -13.7547  -45.4411 H         1 UNK         0.0800 
    134 H134        3.8026  -14.7619  -49.3813 H         1 UNK         0.0800 
    135 H135        4.6448  -15.7658  -48.2244 H         1 UNK         0.0800 
    136 H136        1.6326  -15.7285  -50.4516 H         1 UNK         0.1150 
    137 H137        1.7587  -19.9736  -51.1050 H         1 UNK         0.1150 
    138 H138        4.5174  -18.1491  -48.4074 H         1 UNK         0.1150 
    139 H139        3.7584  -21.1848  -50.3879 H         1 UNK         0.0800 
    140 H140        4.9132  -20.4281  -49.3252 H         1 UNK         0.0800 
    141 H141        1.6032  -22.2971  -49.7119 H         1 UNK         0.0800 
    142 H142        0.8491  -21.0219  -48.7831 H         1 UNK         0.0800 
    143 H143        1.5050  -23.8107  -47.7149 H         1 UNK         0.0600 
    144 H144        0.7716  -21.4993  -46.2596 H         1 UNK         0.3000 
    145 H145       -0.7707  -23.1690  -43.4874 H         1 UNK         0.0600 
    146 H146        0.9556  -21.8076  -42.3181 H         1 UNK         0.0600 
    147 H147        1.6603  -23.2437  -43.0448 H         1 UNK         0.0600 
    148 H148        1.8883  -21.6779  -43.8081 H         1 UNK         0.0600 
    149 H149       -0.2200  -20.4224  -44.3093 H         1 UNK         0.3000 
    150 H150       -3.4929  -19.8244  -45.5897 H         1 UNK         0.0600 
    151 H151       -3.7681  -19.6123  -43.1078 H         1 UNK         0.0600 
    152 H152       -3.4889  -18.0505  -43.8648 H         1 UNK         0.0600 
    153 H153       -2.1836  -18.8516  -42.9937 H         1 UNK         0.0600 
    154 H154       -1.3148  -18.0555  -45.1753 H         1 UNK         0.3000 
    155 H155        0.4762  -18.7541  -48.1970 H         1 UNK         0.0600 
    156 H156       -1.3646  -16.4550  -47.3759 H         1 UNK         0.0600 
    157 H157        0.0302  -16.2721  -48.4341 H         1 UNK         0.0600 
    158 H158       -1.3294  -17.2675  -48.9269 H         1 UNK         0.0600 
    159 H159        1.0790  -16.8087  -46.3540 H         1 UNK         0.3000 
    160 H160        2.7631  -18.6632  -43.8438 H         1 UNK         0.0600 
    161 H161        4.0101  -17.1777  -46.2054 H         1 UNK         0.0600 
    162 H162        4.3805  -18.8212  -45.7124 H         1 UNK         0.0600 
    163 H163        4.7681  -17.4788  -44.6461 H         1 UNK         0.0600 
    164 H164        2.3546  -15.8854  -44.8299 H         1 UNK         0.3000 
    165 H165        0.1804  -15.1705  -42.0572 H         1 UNK         0.0600 
    166 H166        1.6199  -13.1891  -42.0752 H         1 UNK         0.0600 
    167 H167        2.5427  -14.5666  -41.5028 H         1 UNK         0.0600 
    168 H168        2.7831  -13.9727  -43.1404 H         1 UNK         0.0600 
    169 H169        0.4792  -13.5264  -44.2226 H         1 UNK         0.3000 
    170 H170       -1.0653  -14.2518  -46.6056 H         1 UNK         0.0600 
    171 H171       -3.1523  -15.5335  -46.1518 H         1 UNK         0.0600 
    172 H172       -3.6064  -14.3958  -44.8951 H         1 UNK         0.0600 
    173 H173       -3.5344  -13.8756  -46.5778 H         1 UNK         0.0600 
    174 H174       -1.0037  -12.1271  -46.0840 H         1 UNK         0.3000 
    175 H175       -1.4650  -10.1665  -45.2919 H         1 UNK         0.0600 
    176 H176       -2.8867   -9.9277  -42.5964 H         1 UNK         0.0600 
    177 H177       -2.6260   -8.6405  -43.7730 H         1 UNK         0.0600 
    178 H178       -3.6925   -9.9806  -44.1596 H         1 UNK         0.0600 
    179 H179       -0.4650   -9.3630  -42.8702 H         1 UNK         0.3000 
    180 H180        2.0169   -8.8810  -43.1641 H         1 UNK         0.0600 
    181 H181        1.8180  -11.1601  -41.0969 H         1 UNK         0.0600 
    182 H182        0.9071   -9.6571  -41.0467 H         1 UNK         0.0600 
    183 H183        2.6495   -9.6306  -40.8527 H         1 UNK         0.0600 
    184 H184        3.1263  -11.4410  -43.8025 H         1 UNK         0.3000 
    185 H185        6.1785  -10.0485  -44.7152 H         1 UNK         0.0600 
    186 H186        6.8775  -10.8992  -42.4755 H         1 UNK         0.0600 
    187 H187        5.8291  -12.3000  -42.6585 H         1 UNK         0.0600 
    188 H188        7.2167  -12.0837  -43.7269 H         1 UNK         0.0600 
    189 H189        4.9700  -12.6649  -44.9214 H         1 UNK         0.3000 
    190 H190       -1.5466  -21.9082  -47.7924 H         1 UNK         0.3000 
    191 H191       -2.9258  -23.4494  -49.7077 H         1 UNK         0.0600 
    192 H192       -3.9089  -21.7889  -47.3269 H         1 UNK         0.0600 
    193 H193       -4.9724  -22.4647  -48.5476 H         1 UNK         0.0600 
    194 H194       -3.7644  -21.2691  -49.0055 H         1 UNK         0.0600 
    195 H195       -2.6633  -23.8943  -46.1591 H         1 UNK         0.3000 
    196 H196       -4.4289  -26.1317  -45.9842 H         1 UNK         0.0600 
    197 H197       -3.4130  -26.4300  -43.7358 H         1 UNK         0.0600 
    198 H198       -3.8154  -24.7434  -44.0214 H         1 UNK         0.0600 
    199 H199       -2.1417  -25.2818  -44.1301 H         1 UNK         0.0600 
    200 H200       -0.8726  -25.8978  -46.4123 H         1 UNK         0.3000 
    201 H201       -0.3339  -28.6909  -46.4408 H         1 UNK         0.0600 
    202 H202        1.4106  -26.9712  -46.0587 H         1 UNK         0.0600 
    203 H203        1.2138  -26.3651  -47.7011 H         1 UNK         0.0600 
    204 H204        1.8450  -27.9843  -47.4277 H         1 UNK         0.0600 
    205 H205       -1.0644  -26.3941  -49.1029 H         1 UNK         0.3000 
    206 H206       -0.9148  -28.3169  -51.2310 H         1 UNK         0.0600 
    207 H207       -0.6882  -25.8610  -51.5811 H         1 UNK         0.0600 
    208 H208       -2.0221  -26.4928  -52.5345 H         1 UNK         0.0600 
    209 H209       -2.3499  -25.6100  -51.0490 H         1 UNK         0.0600 
    210 H210       -3.3500  -27.5863  -48.8911 H         1 UNK         0.3000 
    211 H211       -5.3729  -28.2570  -48.3854 H         1 UNK         0.0600 
    212 H212       -5.0882  -30.5273  -50.4237 H         1 UNK         0.0600 
    213 H213       -6.2439  -30.4400  -49.1027 H         1 UNK         0.0600 
    214 H214       -4.5299  -30.5895  -48.7519 H         1 UNK         0.0600 
    215 H215       -5.0262  -26.1590  -50.2179 H         1 UNK         0.3000 
    216 H216       -7.6819  -25.8618  -51.2615 H         1 UNK         0.0600 
    217 H217       -5.3707  -26.0732  -53.2803 H         1 UNK         0.0600 
    218 H218       -6.9772  -25.4573  -53.6540 H         1 UNK         0.0600 
    219 H219       -6.7704  -27.1396  -53.1968 H         1 UNK         0.0600 
    220 H220       -8.1433  -23.7762  -50.9223 H         1 UNK         0.3000 
    221 H221       -5.9689  -21.7892  -50.4872 H         1 UNK         0.0600 
    222 H222       -7.5493  -22.2546  -48.5906 H         1 UNK         0.0600 
    223 H223       -8.9030  -21.7608  -49.6069 H         1 UNK         0.0600 
    224 H224       -7.6628  -20.5968  -49.1526 H         1 UNK         0.0600 
    225 H225       -7.1272  -22.6895  -53.1513 H         1 UNK         0.3000 
    226 H226       -8.6494  -20.6602  -54.3730 H         1 UNK         0.0600 
    227 H227       -8.2329  -22.8910  -55.3925 H         1 UNK         0.0600 
    228 H228       -7.7065  -21.6236  -56.4891 H         1 UNK         0.0600 
    229 H229       -6.5154  -22.5239  -55.5579 H         1 UNK         0.0600 
    230 H230       -8.1661  -18.7204  -55.2759 H         1 UNK         0.3000 
    231 H231       -7.2267  -16.7463  -55.5901 H         1 UNK         0.0600 
    232 H232       -4.6392  -18.2639  -56.2210 H         1 UNK         0.0600 
    233 H233       -5.0545  -16.6380  -56.7447 H         1 UNK         0.0600 
    234 H234       -5.9622  -18.0085  -57.3583 H         1 UNK         0.0600 
    235 H235       -7.0506  -17.9777  -52.8619 H         1 UNK         0.3000 
    236 H236       -6.3705  -17.6043  -50.8122 H         1 UNK         0.0600 
    237 H237       -5.5787  -15.3933  -50.0999 H         1 UNK         0.0600 
    238 H238       -5.1663  -14.9483  -51.7486 H         1 UNK         0.0600 
    239 H239       -6.8523  -15.1879  -51.2902 H         1 UNK         0.0600 
    240 H240       -4.6818  -19.0942  -52.6789 H         1 UNK         0.3000 
    241 H241       -2.1977  -19.1330  -51.0893 H         1 UNK         0.0600 
    242 H242       -3.9649  -22.5253  -52.4248 H         1 UNK         0.3800 
    243 H243       -4.5079  -21.0172  -53.1396 H         1 UNK         0.3800 
    244 H244       -1.9671  -17.7802  -53.3358 H         1 UNK         0.0800 
    245 H245       -2.0776  -19.3199  -54.1347 H         1 UNK         0.0800 
    246 H246       -0.5124  -17.4273  -51.2179 H         1 UNK         0.0800 
    247 H247        0.5167  -16.7905  -52.4772 H         1 UNK         0.0800 
@<TRIPOS>BOND
     1    1    2 1    
     2    1  127 1    
     3    1  128 1    
     4    1  129 1    
     5    2    3 2    
     6    2    4 am   BACKBONE|DICT|INTERRES
     7    4    5 1    
     8    4  130 1    
     9    5    6 1    
    10    5   65 1    
    11    5  131 1    
    12    6    7 1    
    13    6  132 1    
    14    6  133 1    
    15    7    8 1    
    16    8    9 1    
    17    8  134 1    
    18    8  135 1    
    19    9   10 ar   
    20    9   14 ar   
    21   10   11 ar   
    22   10  136 1    
    23   11   12 ar   
    24   11  126 1    
    25   12   13 ar   
    26   12  137 1    
    27   13   14 ar   
    28   13   15 1    
    29   14  138 1    
    30   15   16 1    
    31   15  139 1    
    32   15  140 1    
    33   16   17 1    
    34   17   18 1    
    35   17  141 1    
    36   17  142 1    
    37   18   19 1    
    38   18   67 1    
    39   18  143 1    
    40   19   20 am   BACKBONE|DICT|INTERRES
    41   19  144 1    
    42   20   21 2    
    43   20   22 1    
    44   22   23 1    
    45   22   24 1    
    46   22  145 1    
    47   23  146 1    
    48   23  147 1    
    49   23  148 1    
    50   24   25 am   BACKBONE|DICT|INTERRES
    51   24  149 1    
    52   25   26 2    
    53   25   27 1    
    54   27   28 1    
    55   27   29 1    
    56   27  150 1    
    57   28  151 1    
    58   28  152 1    
    59   28  153 1    
    60   29   30 am   BACKBONE|DICT|INTERRES
    61   29  154 1    
    62   30   31 2    
    63   30   32 1    
    64   32   33 1    
    65   32   34 1    
    66   32  155 1    
    67   33  156 1    
    68   33  157 1    
    69   33  158 1    
    70   34   35 am   BACKBONE|DICT|INTERRES
    71   34  159 1    
    72   35   36 2    
    73   35   37 1    
    74   37   38 1    
    75   37   39 1    
    76   37  160 1    
    77   38  161 1    
    78   38  162 1    
    79   38  163 1    
    80   39   40 am   BACKBONE|DICT|INTERRES
    81   39  164 1    
    82   40   41 2    
    83   40   42 1    
    84   42   43 1    
    85   42   44 1    
    86   42  165 1    
    87   43  166 1    
    88   43  167 1    
    89   43  168 1    
    90   44   45 am   BACKBONE|DICT|INTERRES
    91   44  169 1    
    92   45   46 2    
    93   45   47 1    
    94   47   48 1    
    95   47   49 1    
    96   47  170 1    
    97   48  171 1    
    98   48  172 1    
    99   48  173 1    
   100   49   50 am   BACKBONE|DICT|INTERRES
   101   49  174 1    
   102   50   51 2    
   103   50   52 1    
   104   52   53 1    
   105   52   54 1    
   106   52  175 1    
   107   53  176 1    
   108   53  177 1    
   109   53  178 1    
   110   54   55 am   BACKBONE|DICT|INTERRES
   111   54  179 1    
   112   55   56 2    
   113   55   57 1    
   114   57   58 1    
   115   57   59 1    
   116   57  180 1    
   117   58  181 1    
   118   58  182 1    
   119   58  183 1    
   120   59   60 am   BACKBONE|DICT|INTERRES
   121   59  184 1    
   122   60   61 2    
   123   60   62 1    
   124   62   63 1    
   125   62   64 1    
   126   62  185 1    
   127   63  186 1    
   128   63  187 1    
   129   63  188 1    
   130   64   65 am   BACKBONE|DICT|INTERRES
   131   64  189 1    
   132   65   66 2    
   133   67   68 2    
   134   67   69 am   BACKBONE|DICT|INTERRES
   135   69   70 1    
   136   69  190 1    
   137   70   71 1    
   138   70   72 1    
   139   70  191 1    
   140   71  192 1    
   141   71  193 1    
   142   71  194 1    
   143   72   73 2    
   144   72   74 am   BACKBONE|DICT|INTERRES
   145   74   75 1    
   146   74  195 1    
   147   75   76 1    
   148   75   77 1    
   149   75  196 1    
   150   76  197 1    
   151   76  198 1    
   152   76  199 1    
   153   77   78 2    
   154   77   79 am   BACKBONE|DICT|INTERRES
   155   79   80 1    
   156   79  200 1    
   157   80   81 1    
   158   80   82 1    
   159   80  201 1    
   160   81  202 1    
   161   81  203 1    
   162   81  204 1    
   163   82   83 2    
   164   82   84 am   BACKBONE|DICT|INTERRES
   165   84   85 1    
   166   84  205 1    
   167   85   86 1    
   168   85   87 1    
   169   85  206 1    
   170   86  207 1    
   171   86  208 1    
   172   86  209 1    
   173   87   88 2    
   174   87   89 am   BACKBONE|DICT|INTERRES
   175   89   90 1    
   176   89  210 1    
   177   90   91 1    
   178   90   92 1    
   179   90  211 1    
   180   91  212 1    
   181   91  213 1    
   182   91  214 1    
   183   92   93 2    
   184   92   94 am   BACKBONE|DICT|INTERRES
   185   94   95 1    
   186   94  215 1    
   187   95   96 1    
   188   95   97 1    
   189   95  216 1    
   190   96  217 1    
   191   96  218 1    
   192   96  219 1    
   193   97   98 2    
   194   97   99 am   BACKBONE|DICT|INTERRES
   195   99  100 1    
   196   99  220 1    
   197  100  101 1    
   198  100  102 1    
   199  100  221 1    
   200  101  222 1    
   201  101  223 1    
   202  101  224 1    
   203  102  103 2    
   204  102  104 am   BACKBONE|DICT|INTERRES
   205  104  105 1    
   206  104  225 1    
   207  105  106 1    
   208  105  107 1    
   209  105  226 1    
   210  106  227 1    
   211  106  228 1    
   212  106  229 1    
   213  107  108 2    
   214  107  109 am   BACKBONE|DICT|INTERRES
   215  109  110 1    
   216  109  230 1    
   217  110  111 1    
   218  110  112 1    
   219  110  231 1    
   220  111  232 1    
   221  111  233 1    
   222  111  234 1    
   223  112  113 2    
   224  112  114 am   BACKBONE|DICT|INTERRES
   225  114  115 1    
   226  114  235 1    
   227  115  116 1    
   228  115  117 1    
   229  115  236 1    
   230  116  237 1    
   231  116  238 1    
   232  116  239 1    
   233  117  118 2    
   234  117  119 am   BACKBONE|DICT|INTERRES
   235  119  120 1    
   236  119  240 1    
   237  120  121 1    
   238  120  124 1    
   239  120  241 1    
   240  121  122 am   BACKBONE|DICT|INTERRES
   241  121  123 2    
   242  122  242 1    
   243  122  243 1    
   244  124  125 1    
   245  124  244 1    
   246  124  245 1    
   247  125  126 1    
   248  126  246 1    
   249  126  247 1    
@<TRIPOS>SUBSTRUCTURE
     1 UNK         1 GROUP             0       ****    0 ROOT    
